data_str_m1_o10_o18_pcu_sym.92
_audit_creation_date              2020-01-03
_audit_creation_method            'Materials Studio'
_symmetry_space_group_name_H-M    'P1'
_symmetry_Int_Tables_number       1
_symmetry_cell_setting            triclinic
loop_
_symmetry_equiv_pos_as_xyz
  x,y,z
_cell_length_a                    32.7405
_cell_length_b                    32.5143
_cell_length_c                    35.8532
_cell_angle_alpha                 97.9728
_cell_angle_beta                  72.8561
_cell_angle_gamma                 98.6047
loop_
_atom_site_label
_atom_site_type_symbol
_atom_site_fract_x
_atom_site_fract_y
_atom_site_fract_z
_atom_site_U_iso_or_equiv
_atom_site_adp_type
_atom_site_occupancy
C1     C     0.05285   0.16016   0.25855   0.00000  Uiso   1.00
C2     C     0.20787   0.14136   0.45961   0.00000  Uiso   1.00
C3     C     0.22914   0.12266   0.47967   0.00000  Uiso   1.00
C4     C     0.28101   0.17349   0.24126   0.00000  Uiso   1.00
C5     C     0.21804   0.12771   0.02039   0.00000  Uiso   1.00
C6     C     0.18490   0.15255   0.04188   0.00000  Uiso   1.00
C7     C     0.24035   0.10848   0.03983   0.00000  Uiso   1.00
C8     C     0.23040   0.11372   0.08051   0.00000  Uiso   1.00
C9     C     0.17462   0.15619   0.08316   0.00000  Uiso   1.00
C10    C     0.32705   0.17554   0.23763   0.00000  Uiso   1.00
C11    C     0.00752   0.15753   0.26284   0.00000  Uiso   1.00
C12    C     0.10755   0.22456   0.42009   0.00000  Uiso   1.00
C13    C     0.18144   0.32239   0.23778   0.00000  Uiso   1.00
C14    C     0.15196   0.01211   0.26184   0.00000  Uiso   1.00
C15    C     0.15560   0.05626   0.25920   0.00000  Uiso   1.00
C16    C     0.17698   0.27768   0.24128   0.00000  Uiso   1.00
C17    C     0.18845   0.14520   0.14421   0.00000  Uiso   1.00
C18    C     0.14550   0.18775   0.35604   0.00000  Uiso   1.00
C19    C     0.13684   0.19668   0.39881   0.00000  Uiso   1.00
C20    C     0.19749   0.13743   0.10197   0.00000  Uiso   1.00
C21    C     0.09955   0.23214   0.46062   0.00000  Uiso   1.00
C22    C     0.15830   0.17688   0.41842   0.00000  Uiso   1.00
C23    C     0.15180   0.18493   0.45923   0.00000  Uiso   1.00
C24    C     0.12116   0.21241   0.48032   0.00000  Uiso   1.00
C25    C     0.17435   0.16607   0.47964   0.00000  Uiso   1.00
C26    C     0.16360   0.17285   0.02140   0.00000  Uiso   1.00
C27    C     0.13257   0.20033   0.04116   0.00000  Uiso   1.00
C28    C     0.11217   0.21992   0.02090   0.00000  Uiso   1.00
H29    H     0.08886   0.24098   0.03724   0.00000  Uiso   1.00
H30    H     0.12371   0.20825   0.07242   0.00000  Uiso   1.00
H31    H     0.21954   0.13650   0.42816   0.00000  Uiso   1.00
H32    H     0.01989   0.18282   0.17999   0.00000  Uiso   1.00
H33    H     0.01749   0.22785   0.21005   0.00000  Uiso   1.00
H34    H     0.31771   0.15142   0.32097   0.00000  Uiso   1.00
H35    H     0.31974   0.10584   0.29177   0.00000  Uiso   1.00
H36    H     0.24552   0.00213   0.21393   0.00000  Uiso   1.00
H37    H     0.21627   0.32631   0.18125   0.00000  Uiso   1.00
H38    H     0.26588   0.08980   0.02350   0.00000  Uiso   1.00
H39    H     0.12455   0.33188   0.28377   0.00000  Uiso   1.00
H40    H     0.14934   0.17358   0.10177   0.00000  Uiso   1.00
H41    H     0.24837   0.09946   0.09525   0.00000  Uiso   1.00
H42    H     0.25475   0.10417   0.46306   0.00000  Uiso   1.00
H43    H     0.07634   0.25341   0.47661   0.00000  Uiso   1.00
H44    H     0.09054   0.24020   0.40551   0.00000  Uiso   1.00
H45    H     0.17931   0.15466   0.40108   0.00000  Uiso   1.00
N46    N     0.02436   0.19695   0.20674   0.00000  Uiso   1.00
N47    N     0.31208   0.13645   0.29490   0.00000  Uiso   1.00
N48    N     0.21715   0.00790   0.20882   0.00000  Uiso   1.00
O49    O     0.16667   0.16667   0.25000   0.00000  Uiso   1.00
O50    O     0.15693   0.12393   0.16625   0.00000  Uiso   1.00
O51    O     0.12687   0.20646   0.33749   0.00000  Uiso   1.00
O52    O     0.21088   0.17493   0.15877   0.00000  Uiso   1.00
O53    O     0.17198   0.16135   0.33749   0.00000  Uiso   1.00
O54    O     0.17849   0.08101   0.27820   0.00000  Uiso   1.00
O55    O     0.14581   0.26136   0.26767   0.00000  Uiso   1.00
O56    O     0.07452   0.13251   0.23607   0.00000  Uiso   1.00
O57    O     0.26785   0.19179   0.21805   0.00000  Uiso   1.00
O58    O     0.06990   0.18960   0.27820   0.00000  Uiso   1.00
O59    O     0.25440   0.15277   0.26767   0.00000  Uiso   1.00
O60    O     0.13800   0.06903   0.23607   0.00000  Uiso   1.00
O61    O     0.20437   0.25527   0.21805   0.00000  Uiso   1.00
Zn62   Zn    0.19244   0.14090   0.28277   0.00000  Uiso   1.00
Zn63   Zn    0.13459   0.12378   0.22257   0.00000  Uiso   1.00
Zn64   Zn    0.21166   0.19664   0.21188   0.00000  Uiso   1.00
Zn65   Zn    0.12798   0.20535   0.28277   0.00000  Uiso   1.00
C66    C     0.38618   0.16016   0.25855   0.00000  Uiso   1.00
C67    C     0.54121   0.14136   0.45961   0.00000  Uiso   1.00
C68    C     0.56248   0.12266   0.47967   0.00000  Uiso   1.00
C69    C     0.61435   0.17349   0.24126   0.00000  Uiso   1.00
C70    C     0.55137   0.12771   0.02039   0.00000  Uiso   1.00
C71    C     0.51823   0.15255   0.04188   0.00000  Uiso   1.00
C72    C     0.57369   0.10848   0.03983   0.00000  Uiso   1.00
C73    C     0.56373   0.11372   0.08051   0.00000  Uiso   1.00
C74    C     0.50796   0.15619   0.08316   0.00000  Uiso   1.00
C75    C     0.66038   0.17554   0.23763   0.00000  Uiso   1.00
C76    C     0.34085   0.15753   0.26284   0.00000  Uiso   1.00
C77    C     0.44089   0.22456   0.42009   0.00000  Uiso   1.00
C78    C     0.51478   0.32239   0.23778   0.00000  Uiso   1.00
C79    C     0.48530   0.01211   0.26184   0.00000  Uiso   1.00
C80    C     0.48893   0.05626   0.25920   0.00000  Uiso   1.00
C81    C     0.51031   0.27768   0.24128   0.00000  Uiso   1.00
C82    C     0.52178   0.14520   0.14421   0.00000  Uiso   1.00
C83    C     0.47883   0.18775   0.35604   0.00000  Uiso   1.00
C84    C     0.47017   0.19668   0.39881   0.00000  Uiso   1.00
C85    C     0.53082   0.13743   0.10197   0.00000  Uiso   1.00
C86    C     0.43288   0.23214   0.46062   0.00000  Uiso   1.00
C87    C     0.49163   0.17688   0.41842   0.00000  Uiso   1.00
C88    C     0.48514   0.18493   0.45923   0.00000  Uiso   1.00
C89    C     0.45449   0.21241   0.48032   0.00000  Uiso   1.00
C90    C     0.50769   0.16607   0.47964   0.00000  Uiso   1.00
C91    C     0.49693   0.17285   0.02140   0.00000  Uiso   1.00
C92    C     0.46591   0.20033   0.04116   0.00000  Uiso   1.00
C93    C     0.44550   0.21992   0.02090   0.00000  Uiso   1.00
H94    H     0.42220   0.24098   0.03724   0.00000  Uiso   1.00
H95    H     0.45705   0.20825   0.07242   0.00000  Uiso   1.00
H96    H     0.55287   0.13650   0.42816   0.00000  Uiso   1.00
H97    H     0.35322   0.18282   0.17999   0.00000  Uiso   1.00
H98    H     0.35082   0.22785   0.21005   0.00000  Uiso   1.00
H99    H     0.65105   0.15142   0.32097   0.00000  Uiso   1.00
H100   H     0.65307   0.10584   0.29177   0.00000  Uiso   1.00
H101   H     0.57885   0.00213   0.21393   0.00000  Uiso   1.00
H102   H     0.54961   0.32631   0.18125   0.00000  Uiso   1.00
H103   H     0.59921   0.08980   0.02350   0.00000  Uiso   1.00
H104   H     0.45789   0.33188   0.28377   0.00000  Uiso   1.00
H105   H     0.48268   0.17358   0.10177   0.00000  Uiso   1.00
H106   H     0.58170   0.09946   0.09525   0.00000  Uiso   1.00
H107   H     0.58808   0.10417   0.46306   0.00000  Uiso   1.00
H108   H     0.40968   0.25341   0.47661   0.00000  Uiso   1.00
H109   H     0.42387   0.24020   0.40551   0.00000  Uiso   1.00
H110   H     0.51264   0.15466   0.40108   0.00000  Uiso   1.00
N111   N     0.35769   0.19695   0.20674   0.00000  Uiso   1.00
N112   N     0.64541   0.13645   0.29490   0.00000  Uiso   1.00
N113   N     0.55049   0.00790   0.20882   0.00000  Uiso   1.00
O114   O     0.50000   0.16667   0.25000   0.00000  Uiso   1.00
O115   O     0.49027   0.12393   0.16625   0.00000  Uiso   1.00
O116   O     0.46020   0.20646   0.33749   0.00000  Uiso   1.00
O117   O     0.54421   0.17493   0.15877   0.00000  Uiso   1.00
O118   O     0.50532   0.16135   0.33749   0.00000  Uiso   1.00
O119   O     0.51182   0.08101   0.27820   0.00000  Uiso   1.00
O120   O     0.47914   0.26136   0.26767   0.00000  Uiso   1.00
O121   O     0.40785   0.13251   0.23607   0.00000  Uiso   1.00
O122   O     0.60119   0.19179   0.21805   0.00000  Uiso   1.00
O123   O     0.40323   0.18960   0.27820   0.00000  Uiso   1.00
O124   O     0.58773   0.15277   0.26767   0.00000  Uiso   1.00
O125   O     0.47133   0.06903   0.23607   0.00000  Uiso   1.00
O126   O     0.53771   0.25527   0.21805   0.00000  Uiso   1.00
Zn127  Zn    0.52577   0.14090   0.28277   0.00000  Uiso   1.00
Zn128  Zn    0.46792   0.12378   0.22257   0.00000  Uiso   1.00
Zn129  Zn    0.54500   0.19664   0.21188   0.00000  Uiso   1.00
Zn130  Zn    0.46131   0.20535   0.28277   0.00000  Uiso   1.00
C131   C     0.71952   0.16016   0.25855   0.00000  Uiso   1.00
C132   C     0.87454   0.14136   0.45961   0.00000  Uiso   1.00
C133   C     0.89581   0.12266   0.47967   0.00000  Uiso   1.00
C134   C     0.94768   0.17349   0.24126   0.00000  Uiso   1.00
C135   C     0.88470   0.12771   0.02039   0.00000  Uiso   1.00
C136   C     0.85157   0.15255   0.04188   0.00000  Uiso   1.00
C137   C     0.90702   0.10848   0.03983   0.00000  Uiso   1.00
C138   C     0.89707   0.11372   0.08051   0.00000  Uiso   1.00
C139   C     0.84129   0.15619   0.08316   0.00000  Uiso   1.00
C140   C     0.99372   0.17554   0.23763   0.00000  Uiso   1.00
C141   C     0.67418   0.15753   0.26284   0.00000  Uiso   1.00
C142   C     0.77422   0.22456   0.42009   0.00000  Uiso   1.00
C143   C     0.84811   0.32239   0.23778   0.00000  Uiso   1.00
C144   C     0.81863   0.01211   0.26184   0.00000  Uiso   1.00
C145   C     0.82227   0.05626   0.25920   0.00000  Uiso   1.00
C146   C     0.84364   0.27768   0.24128   0.00000  Uiso   1.00
C147   C     0.85511   0.14520   0.14421   0.00000  Uiso   1.00
C148   C     0.81216   0.18775   0.35604   0.00000  Uiso   1.00
C149   C     0.80351   0.19668   0.39881   0.00000  Uiso   1.00
C150   C     0.86416   0.13743   0.10197   0.00000  Uiso   1.00
C151   C     0.76621   0.23214   0.46062   0.00000  Uiso   1.00
C152   C     0.82496   0.17688   0.41842   0.00000  Uiso   1.00
C153   C     0.81847   0.18493   0.45923   0.00000  Uiso   1.00
C154   C     0.78782   0.21241   0.48032   0.00000  Uiso   1.00
C155   C     0.84102   0.16607   0.47964   0.00000  Uiso   1.00
C156   C     0.83027   0.17285   0.02140   0.00000  Uiso   1.00
C157   C     0.79924   0.20033   0.04116   0.00000  Uiso   1.00
C158   C     0.77884   0.21992   0.02090   0.00000  Uiso   1.00
H159   H     0.75553   0.24098   0.03724   0.00000  Uiso   1.00
H160   H     0.79038   0.20825   0.07242   0.00000  Uiso   1.00
H161   H     0.88620   0.13650   0.42816   0.00000  Uiso   1.00
H162   H     0.68656   0.18282   0.17999   0.00000  Uiso   1.00
H163   H     0.68416   0.22785   0.21005   0.00000  Uiso   1.00
H164   H     0.98438   0.15142   0.32097   0.00000  Uiso   1.00
H165   H     0.98640   0.10584   0.29177   0.00000  Uiso   1.00
H166   H     0.91219   0.00213   0.21393   0.00000  Uiso   1.00
H167   H     0.88294   0.32631   0.18125   0.00000  Uiso   1.00
H168   H     0.93255   0.08980   0.02350   0.00000  Uiso   1.00
H169   H     0.79122   0.33188   0.28377   0.00000  Uiso   1.00
H170   H     0.81601   0.17358   0.10177   0.00000  Uiso   1.00
H171   H     0.91504   0.09946   0.09525   0.00000  Uiso   1.00
H172   H     0.92141   0.10417   0.46306   0.00000  Uiso   1.00
H173   H     0.74301   0.25341   0.47661   0.00000  Uiso   1.00
H174   H     0.75720   0.24020   0.40551   0.00000  Uiso   1.00
H175   H     0.84598   0.15466   0.40108   0.00000  Uiso   1.00
N176   N     0.69102   0.19695   0.20674   0.00000  Uiso   1.00
N177   N     0.97874   0.13645   0.29490   0.00000  Uiso   1.00
N178   N     0.88382   0.00790   0.20882   0.00000  Uiso   1.00
O179   O     0.83333   0.16667   0.25000   0.00000  Uiso   1.00
O180   O     0.82360   0.12393   0.16625   0.00000  Uiso   1.00
O181   O     0.79354   0.20646   0.33749   0.00000  Uiso   1.00
O182   O     0.87755   0.17493   0.15877   0.00000  Uiso   1.00
O183   O     0.83865   0.16135   0.33749   0.00000  Uiso   1.00
O184   O     0.84515   0.08101   0.27820   0.00000  Uiso   1.00
O185   O     0.81247   0.26136   0.26767   0.00000  Uiso   1.00
O186   O     0.74119   0.13251   0.23607   0.00000  Uiso   1.00
O187   O     0.93452   0.19179   0.21805   0.00000  Uiso   1.00
O188   O     0.73656   0.18960   0.27820   0.00000  Uiso   1.00
O189   O     0.92106   0.15277   0.26767   0.00000  Uiso   1.00
O190   O     0.80467   0.06903   0.23607   0.00000  Uiso   1.00
O191   O     0.87104   0.25527   0.21805   0.00000  Uiso   1.00
Zn192  Zn    0.85910   0.14090   0.28277   0.00000  Uiso   1.00
Zn193  Zn    0.80125   0.12378   0.22257   0.00000  Uiso   1.00
Zn194  Zn    0.87833   0.19664   0.21188   0.00000  Uiso   1.00
Zn195  Zn    0.79465   0.20535   0.28277   0.00000  Uiso   1.00
C196   C     0.05285   0.49349   0.25855   0.00000  Uiso   1.00
C197   C     0.20787   0.47469   0.45961   0.00000  Uiso   1.00
C198   C     0.22914   0.45600   0.47967   0.00000  Uiso   1.00
C199   C     0.28101   0.50682   0.24126   0.00000  Uiso   1.00
C200   C     0.21804   0.46105   0.02039   0.00000  Uiso   1.00
C201   C     0.18490   0.48589   0.04188   0.00000  Uiso   1.00
C202   C     0.24035   0.44181   0.03983   0.00000  Uiso   1.00
C203   C     0.23040   0.44706   0.08051   0.00000  Uiso   1.00
C204   C     0.17462   0.48952   0.08316   0.00000  Uiso   1.00
C205   C     0.32705   0.50888   0.23763   0.00000  Uiso   1.00
C206   C     0.00752   0.49086   0.26284   0.00000  Uiso   1.00
C207   C     0.10755   0.55789   0.42009   0.00000  Uiso   1.00
C208   C     0.18144   0.65572   0.23778   0.00000  Uiso   1.00
C209   C     0.15196   0.34545   0.26184   0.00000  Uiso   1.00
C210   C     0.15560   0.38960   0.25920   0.00000  Uiso   1.00
C211   C     0.17698   0.61102   0.24128   0.00000  Uiso   1.00
C212   C     0.18845   0.47853   0.14421   0.00000  Uiso   1.00
C213   C     0.14550   0.52109   0.35604   0.00000  Uiso   1.00
C214   C     0.13684   0.53002   0.39881   0.00000  Uiso   1.00
C215   C     0.19749   0.47077   0.10197   0.00000  Uiso   1.00
C216   C     0.09955   0.56547   0.46062   0.00000  Uiso   1.00
C217   C     0.15830   0.51022   0.41842   0.00000  Uiso   1.00
C218   C     0.15180   0.51826   0.45923   0.00000  Uiso   1.00
C219   C     0.12116   0.54574   0.48032   0.00000  Uiso   1.00
C220   C     0.17435   0.49940   0.47964   0.00000  Uiso   1.00
C221   C     0.16360   0.50619   0.02140   0.00000  Uiso   1.00
C222   C     0.13257   0.53367   0.04116   0.00000  Uiso   1.00
C223   C     0.11217   0.55326   0.02090   0.00000  Uiso   1.00
H224   H     0.08886   0.57431   0.03724   0.00000  Uiso   1.00
H225   H     0.12371   0.54158   0.07242   0.00000  Uiso   1.00
H226   H     0.21954   0.46984   0.42816   0.00000  Uiso   1.00
H227   H     0.01989   0.51616   0.17999   0.00000  Uiso   1.00
H228   H     0.01749   0.56119   0.21005   0.00000  Uiso   1.00
H229   H     0.31771   0.48475   0.32097   0.00000  Uiso   1.00
H230   H     0.31974   0.43917   0.29177   0.00000  Uiso   1.00
H231   H     0.24552   0.33547   0.21393   0.00000  Uiso   1.00
H232   H     0.21627   0.65964   0.18125   0.00000  Uiso   1.00
H233   H     0.26588   0.42313   0.02350   0.00000  Uiso   1.00
H234   H     0.12455   0.66522   0.28377   0.00000  Uiso   1.00
H235   H     0.14934   0.50691   0.10177   0.00000  Uiso   1.00
H236   H     0.24837   0.43279   0.09525   0.00000  Uiso   1.00
H237   H     0.25475   0.43750   0.46306   0.00000  Uiso   1.00
H238   H     0.07634   0.58675   0.47661   0.00000  Uiso   1.00
H239   H     0.09054   0.57354   0.40551   0.00000  Uiso   1.00
H240   H     0.17931   0.48799   0.40108   0.00000  Uiso   1.00
N241   N     0.02436   0.53029   0.20674   0.00000  Uiso   1.00
N242   N     0.31208   0.46979   0.29490   0.00000  Uiso   1.00
N243   N     0.21715   0.34123   0.20882   0.00000  Uiso   1.00
O244   O     0.16667   0.50000   0.25000   0.00000  Uiso   1.00
O245   O     0.15693   0.45726   0.16625   0.00000  Uiso   1.00
O246   O     0.12687   0.53979   0.33749   0.00000  Uiso   1.00
O247   O     0.21088   0.50826   0.15877   0.00000  Uiso   1.00
O248   O     0.17198   0.49468   0.33749   0.00000  Uiso   1.00
O249   O     0.17849   0.41434   0.27820   0.00000  Uiso   1.00
O250   O     0.14581   0.59469   0.26767   0.00000  Uiso   1.00
O251   O     0.07452   0.46584   0.23607   0.00000  Uiso   1.00
O252   O     0.26785   0.52512   0.21805   0.00000  Uiso   1.00
O253   O     0.06990   0.52293   0.27820   0.00000  Uiso   1.00
O254   O     0.25440   0.48610   0.26767   0.00000  Uiso   1.00
O255   O     0.13800   0.40236   0.23607   0.00000  Uiso   1.00
O256   O     0.20437   0.58860   0.21805   0.00000  Uiso   1.00
Zn257  Zn    0.19244   0.47423   0.28277   0.00000  Uiso   1.00
Zn258  Zn    0.13459   0.45711   0.22257   0.00000  Uiso   1.00
Zn259  Zn    0.21166   0.52997   0.21188   0.00000  Uiso   1.00
Zn260  Zn    0.12798   0.53868   0.28277   0.00000  Uiso   1.00
C261   C     0.38618   0.49349   0.25855   0.00000  Uiso   1.00
C262   C     0.54121   0.47469   0.45961   0.00000  Uiso   1.00
C263   C     0.56248   0.45600   0.47967   0.00000  Uiso   1.00
C264   C     0.61435   0.50682   0.24126   0.00000  Uiso   1.00
C265   C     0.55137   0.46105   0.02039   0.00000  Uiso   1.00
C266   C     0.51823   0.48589   0.04188   0.00000  Uiso   1.00
C267   C     0.57369   0.44181   0.03983   0.00000  Uiso   1.00
C268   C     0.56373   0.44706   0.08051   0.00000  Uiso   1.00
C269   C     0.50796   0.48952   0.08316   0.00000  Uiso   1.00
C270   C     0.66038   0.50888   0.23763   0.00000  Uiso   1.00
C271   C     0.34085   0.49086   0.26284   0.00000  Uiso   1.00
C272   C     0.44089   0.55789   0.42009   0.00000  Uiso   1.00
C273   C     0.51478   0.65572   0.23778   0.00000  Uiso   1.00
C274   C     0.48530   0.34545   0.26184   0.00000  Uiso   1.00
C275   C     0.48893   0.38960   0.25920   0.00000  Uiso   1.00
C276   C     0.51031   0.61102   0.24128   0.00000  Uiso   1.00
C277   C     0.52178   0.47853   0.14421   0.00000  Uiso   1.00
C278   C     0.47883   0.52109   0.35604   0.00000  Uiso   1.00
C279   C     0.47017   0.53002   0.39881   0.00000  Uiso   1.00
C280   C     0.53082   0.47077   0.10197   0.00000  Uiso   1.00
C281   C     0.43288   0.56547   0.46062   0.00000  Uiso   1.00
C282   C     0.49163   0.51022   0.41842   0.00000  Uiso   1.00
C283   C     0.48514   0.51826   0.45923   0.00000  Uiso   1.00
C284   C     0.45449   0.54574   0.48032   0.00000  Uiso   1.00
C285   C     0.50769   0.49940   0.47964   0.00000  Uiso   1.00
C286   C     0.49693   0.50619   0.02140   0.00000  Uiso   1.00
C287   C     0.46591   0.53367   0.04116   0.00000  Uiso   1.00
C288   C     0.44550   0.55326   0.02090   0.00000  Uiso   1.00
H289   H     0.42220   0.57431   0.03724   0.00000  Uiso   1.00
H290   H     0.45705   0.54158   0.07242   0.00000  Uiso   1.00
H291   H     0.55287   0.46984   0.42816   0.00000  Uiso   1.00
H292   H     0.35322   0.51616   0.17999   0.00000  Uiso   1.00
H293   H     0.35082   0.56119   0.21005   0.00000  Uiso   1.00
H294   H     0.65105   0.48475   0.32097   0.00000  Uiso   1.00
H295   H     0.65307   0.43917   0.29177   0.00000  Uiso   1.00
H296   H     0.57885   0.33547   0.21393   0.00000  Uiso   1.00
H297   H     0.54961   0.65964   0.18125   0.00000  Uiso   1.00
H298   H     0.59921   0.42313   0.02350   0.00000  Uiso   1.00
H299   H     0.45789   0.66522   0.28377   0.00000  Uiso   1.00
H300   H     0.48268   0.50691   0.10177   0.00000  Uiso   1.00
H301   H     0.58170   0.43279   0.09525   0.00000  Uiso   1.00
H302   H     0.58808   0.43750   0.46306   0.00000  Uiso   1.00
H303   H     0.40968   0.58675   0.47661   0.00000  Uiso   1.00
H304   H     0.42387   0.57354   0.40551   0.00000  Uiso   1.00
H305   H     0.51264   0.48799   0.40108   0.00000  Uiso   1.00
N306   N     0.35769   0.53029   0.20674   0.00000  Uiso   1.00
N307   N     0.64541   0.46979   0.29490   0.00000  Uiso   1.00
N308   N     0.55049   0.34123   0.20882   0.00000  Uiso   1.00
O309   O     0.50000   0.50000   0.25000   0.00000  Uiso   1.00
O310   O     0.49027   0.45726   0.16625   0.00000  Uiso   1.00
O311   O     0.46020   0.53979   0.33749   0.00000  Uiso   1.00
O312   O     0.54421   0.50826   0.15877   0.00000  Uiso   1.00
O313   O     0.50532   0.49468   0.33749   0.00000  Uiso   1.00
O314   O     0.51182   0.41434   0.27820   0.00000  Uiso   1.00
O315   O     0.47914   0.59469   0.26767   0.00000  Uiso   1.00
O316   O     0.40785   0.46584   0.23607   0.00000  Uiso   1.00
O317   O     0.60119   0.52512   0.21805   0.00000  Uiso   1.00
O318   O     0.40323   0.52293   0.27820   0.00000  Uiso   1.00
O319   O     0.58773   0.48610   0.26767   0.00000  Uiso   1.00
O320   O     0.47133   0.40236   0.23607   0.00000  Uiso   1.00
O321   O     0.53771   0.58860   0.21805   0.00000  Uiso   1.00
Zn322  Zn    0.52577   0.47423   0.28277   0.00000  Uiso   1.00
Zn323  Zn    0.46792   0.45711   0.22257   0.00000  Uiso   1.00
Zn324  Zn    0.54500   0.52997   0.21188   0.00000  Uiso   1.00
Zn325  Zn    0.46131   0.53868   0.28277   0.00000  Uiso   1.00
C326   C     0.71952   0.49349   0.25855   0.00000  Uiso   1.00
C327   C     0.87454   0.47469   0.45961   0.00000  Uiso   1.00
C328   C     0.89581   0.45600   0.47967   0.00000  Uiso   1.00
C329   C     0.94768   0.50682   0.24126   0.00000  Uiso   1.00
C330   C     0.88470   0.46105   0.02039   0.00000  Uiso   1.00
C331   C     0.85157   0.48589   0.04188   0.00000  Uiso   1.00
C332   C     0.90702   0.44181   0.03983   0.00000  Uiso   1.00
C333   C     0.89707   0.44706   0.08051   0.00000  Uiso   1.00
C334   C     0.84129   0.48952   0.08316   0.00000  Uiso   1.00
C335   C     0.99372   0.50888   0.23763   0.00000  Uiso   1.00
C336   C     0.67418   0.49086   0.26284   0.00000  Uiso   1.00
C337   C     0.77422   0.55789   0.42009   0.00000  Uiso   1.00
C338   C     0.84811   0.65572   0.23778   0.00000  Uiso   1.00
C339   C     0.81863   0.34545   0.26184   0.00000  Uiso   1.00
C340   C     0.82227   0.38960   0.25920   0.00000  Uiso   1.00
C341   C     0.84364   0.61102   0.24128   0.00000  Uiso   1.00
C342   C     0.85511   0.47853   0.14421   0.00000  Uiso   1.00
C343   C     0.81216   0.52109   0.35604   0.00000  Uiso   1.00
C344   C     0.80351   0.53002   0.39881   0.00000  Uiso   1.00
C345   C     0.86416   0.47077   0.10197   0.00000  Uiso   1.00
C346   C     0.76621   0.56547   0.46062   0.00000  Uiso   1.00
C347   C     0.82496   0.51022   0.41842   0.00000  Uiso   1.00
C348   C     0.81847   0.51826   0.45923   0.00000  Uiso   1.00
C349   C     0.78782   0.54574   0.48032   0.00000  Uiso   1.00
C350   C     0.84102   0.49940   0.47964   0.00000  Uiso   1.00
C351   C     0.83027   0.50619   0.02140   0.00000  Uiso   1.00
C352   C     0.79924   0.53367   0.04116   0.00000  Uiso   1.00
C353   C     0.77884   0.55326   0.02090   0.00000  Uiso   1.00
H354   H     0.75553   0.57431   0.03724   0.00000  Uiso   1.00
H355   H     0.79038   0.54158   0.07242   0.00000  Uiso   1.00
H356   H     0.88620   0.46984   0.42816   0.00000  Uiso   1.00
H357   H     0.68656   0.51616   0.17999   0.00000  Uiso   1.00
H358   H     0.68416   0.56119   0.21005   0.00000  Uiso   1.00
H359   H     0.98438   0.48475   0.32097   0.00000  Uiso   1.00
H360   H     0.98640   0.43917   0.29177   0.00000  Uiso   1.00
H361   H     0.91219   0.33547   0.21393   0.00000  Uiso   1.00
H362   H     0.88294   0.65964   0.18125   0.00000  Uiso   1.00
H363   H     0.93255   0.42313   0.02350   0.00000  Uiso   1.00
H364   H     0.79122   0.66522   0.28377   0.00000  Uiso   1.00
H365   H     0.81601   0.50691   0.10177   0.00000  Uiso   1.00
H366   H     0.91504   0.43279   0.09525   0.00000  Uiso   1.00
H367   H     0.92141   0.43750   0.46306   0.00000  Uiso   1.00
H368   H     0.74301   0.58675   0.47661   0.00000  Uiso   1.00
H369   H     0.75720   0.57354   0.40551   0.00000  Uiso   1.00
H370   H     0.84598   0.48799   0.40108   0.00000  Uiso   1.00
N371   N     0.69102   0.53029   0.20674   0.00000  Uiso   1.00
N372   N     0.97874   0.46979   0.29490   0.00000  Uiso   1.00
N373   N     0.88382   0.34123   0.20882   0.00000  Uiso   1.00
O374   O     0.83333   0.50000   0.25000   0.00000  Uiso   1.00
O375   O     0.82360   0.45726   0.16625   0.00000  Uiso   1.00
O376   O     0.79354   0.53979   0.33749   0.00000  Uiso   1.00
O377   O     0.87755   0.50826   0.15877   0.00000  Uiso   1.00
O378   O     0.83865   0.49468   0.33749   0.00000  Uiso   1.00
O379   O     0.84515   0.41434   0.27820   0.00000  Uiso   1.00
O380   O     0.81247   0.59469   0.26767   0.00000  Uiso   1.00
O381   O     0.74119   0.46584   0.23607   0.00000  Uiso   1.00
O382   O     0.93452   0.52512   0.21805   0.00000  Uiso   1.00
O383   O     0.73656   0.52293   0.27820   0.00000  Uiso   1.00
O384   O     0.92106   0.48610   0.26767   0.00000  Uiso   1.00
O385   O     0.80467   0.40236   0.23607   0.00000  Uiso   1.00
O386   O     0.87104   0.58860   0.21805   0.00000  Uiso   1.00
Zn387  Zn    0.85910   0.47423   0.28277   0.00000  Uiso   1.00
Zn388  Zn    0.80125   0.45711   0.22257   0.00000  Uiso   1.00
Zn389  Zn    0.87833   0.52997   0.21188   0.00000  Uiso   1.00
Zn390  Zn    0.79465   0.53868   0.28277   0.00000  Uiso   1.00
C391   C     0.05285   0.82682   0.25855   0.00000  Uiso   1.00
C392   C     0.20787   0.80802   0.45961   0.00000  Uiso   1.00
C393   C     0.22914   0.78933   0.47967   0.00000  Uiso   1.00
C394   C     0.28101   0.84015   0.24126   0.00000  Uiso   1.00
C395   C     0.21804   0.79438   0.02039   0.00000  Uiso   1.00
C396   C     0.18490   0.81922   0.04188   0.00000  Uiso   1.00
C397   C     0.24035   0.77515   0.03983   0.00000  Uiso   1.00
C398   C     0.23040   0.78039   0.08051   0.00000  Uiso   1.00
C399   C     0.17462   0.82286   0.08316   0.00000  Uiso   1.00
C400   C     0.32705   0.84221   0.23763   0.00000  Uiso   1.00
C401   C     0.00752   0.82419   0.26284   0.00000  Uiso   1.00
C402   C     0.10755   0.89123   0.42009   0.00000  Uiso   1.00
C403   C     0.18144   0.98905   0.23778   0.00000  Uiso   1.00
C404   C     0.15196   0.67878   0.26184   0.00000  Uiso   1.00
C405   C     0.15560   0.72293   0.25920   0.00000  Uiso   1.00
C406   C     0.17698   0.94435   0.24128   0.00000  Uiso   1.00
C407   C     0.18845   0.81186   0.14421   0.00000  Uiso   1.00
C408   C     0.14550   0.85442   0.35604   0.00000  Uiso   1.00
C409   C     0.13684   0.86335   0.39881   0.00000  Uiso   1.00
C410   C     0.19749   0.80410   0.10197   0.00000  Uiso   1.00
C411   C     0.09955   0.89880   0.46062   0.00000  Uiso   1.00
C412   C     0.15830   0.84355   0.41842   0.00000  Uiso   1.00
C413   C     0.15180   0.85159   0.45923   0.00000  Uiso   1.00
C414   C     0.12116   0.87908   0.48032   0.00000  Uiso   1.00
C415   C     0.17435   0.83274   0.47964   0.00000  Uiso   1.00
C416   C     0.16360   0.83952   0.02140   0.00000  Uiso   1.00
C417   C     0.13257   0.86700   0.04116   0.00000  Uiso   1.00
C418   C     0.11217   0.88659   0.02090   0.00000  Uiso   1.00
H419   H     0.08886   0.90765   0.03724   0.00000  Uiso   1.00
H420   H     0.12371   0.87492   0.07242   0.00000  Uiso   1.00
H421   H     0.21954   0.80317   0.42816   0.00000  Uiso   1.00
H422   H     0.01989   0.84949   0.17999   0.00000  Uiso   1.00
H423   H     0.01749   0.89452   0.21005   0.00000  Uiso   1.00
H424   H     0.31771   0.81808   0.32097   0.00000  Uiso   1.00
H425   H     0.31974   0.77251   0.29177   0.00000  Uiso   1.00
H426   H     0.24552   0.66880   0.21393   0.00000  Uiso   1.00
H427   H     0.21627   0.99297   0.18125   0.00000  Uiso   1.00
H428   H     0.26588   0.75646   0.02350   0.00000  Uiso   1.00
H429   H     0.12455   0.99855   0.28377   0.00000  Uiso   1.00
H430   H     0.14934   0.84024   0.10177   0.00000  Uiso   1.00
H431   H     0.24837   0.76612   0.09525   0.00000  Uiso   1.00
H432   H     0.25475   0.77083   0.46306   0.00000  Uiso   1.00
H433   H     0.07634   0.92008   0.47661   0.00000  Uiso   1.00
H434   H     0.09054   0.90687   0.40551   0.00000  Uiso   1.00
H435   H     0.17931   0.82133   0.40108   0.00000  Uiso   1.00
N436   N     0.02436   0.86362   0.20674   0.00000  Uiso   1.00
N437   N     0.31208   0.80312   0.29490   0.00000  Uiso   1.00
N438   N     0.21715   0.67456   0.20882   0.00000  Uiso   1.00
O439   O     0.16667   0.83333   0.25000   0.00000  Uiso   1.00
O440   O     0.15693   0.79060   0.16625   0.00000  Uiso   1.00
O441   O     0.12687   0.87313   0.33749   0.00000  Uiso   1.00
O442   O     0.21088   0.84159   0.15877   0.00000  Uiso   1.00
O443   O     0.17198   0.82802   0.33749   0.00000  Uiso   1.00
O444   O     0.17849   0.74768   0.27820   0.00000  Uiso   1.00
O445   O     0.14581   0.92803   0.26767   0.00000  Uiso   1.00
O446   O     0.07452   0.79917   0.23607   0.00000  Uiso   1.00
O447   O     0.26785   0.85845   0.21805   0.00000  Uiso   1.00
O448   O     0.06990   0.85627   0.27820   0.00000  Uiso   1.00
O449   O     0.25440   0.81944   0.26767   0.00000  Uiso   1.00
O450   O     0.13800   0.73570   0.23607   0.00000  Uiso   1.00
O451   O     0.20437   0.92193   0.21805   0.00000  Uiso   1.00
Zn452  Zn    0.19244   0.80756   0.28277   0.00000  Uiso   1.00
Zn453  Zn    0.13459   0.79044   0.22257   0.00000  Uiso   1.00
Zn454  Zn    0.21166   0.86331   0.21188   0.00000  Uiso   1.00
Zn455  Zn    0.12798   0.87202   0.28277   0.00000  Uiso   1.00
C456   C     0.38618   0.82682   0.25855   0.00000  Uiso   1.00
C457   C     0.54121   0.80802   0.45961   0.00000  Uiso   1.00
C458   C     0.56248   0.78933   0.47967   0.00000  Uiso   1.00
C459   C     0.61435   0.84015   0.24126   0.00000  Uiso   1.00
C460   C     0.55137   0.79438   0.02039   0.00000  Uiso   1.00
C461   C     0.51823   0.81922   0.04188   0.00000  Uiso   1.00
C462   C     0.57369   0.77515   0.03983   0.00000  Uiso   1.00
C463   C     0.56373   0.78039   0.08051   0.00000  Uiso   1.00
C464   C     0.50796   0.82286   0.08316   0.00000  Uiso   1.00
C465   C     0.66038   0.84221   0.23763   0.00000  Uiso   1.00
C466   C     0.34085   0.82419   0.26284   0.00000  Uiso   1.00
C467   C     0.44089   0.89123   0.42009   0.00000  Uiso   1.00
C468   C     0.51478   0.98905   0.23778   0.00000  Uiso   1.00
C469   C     0.48530   0.67878   0.26184   0.00000  Uiso   1.00
C470   C     0.48893   0.72293   0.25920   0.00000  Uiso   1.00
C471   C     0.51031   0.94435   0.24128   0.00000  Uiso   1.00
C472   C     0.52178   0.81186   0.14421   0.00000  Uiso   1.00
C473   C     0.47883   0.85442   0.35604   0.00000  Uiso   1.00
C474   C     0.47017   0.86335   0.39881   0.00000  Uiso   1.00
C475   C     0.53082   0.80410   0.10197   0.00000  Uiso   1.00
C476   C     0.43288   0.89880   0.46062   0.00000  Uiso   1.00
C477   C     0.49163   0.84355   0.41842   0.00000  Uiso   1.00
C478   C     0.48514   0.85159   0.45923   0.00000  Uiso   1.00
C479   C     0.45449   0.87908   0.48032   0.00000  Uiso   1.00
C480   C     0.50769   0.83274   0.47964   0.00000  Uiso   1.00
C481   C     0.49693   0.83952   0.02140   0.00000  Uiso   1.00
C482   C     0.46591   0.86700   0.04116   0.00000  Uiso   1.00
C483   C     0.44550   0.88659   0.02090   0.00000  Uiso   1.00
H484   H     0.42220   0.90765   0.03724   0.00000  Uiso   1.00
H485   H     0.45705   0.87492   0.07242   0.00000  Uiso   1.00
H486   H     0.55287   0.80317   0.42816   0.00000  Uiso   1.00
H487   H     0.35322   0.84949   0.17999   0.00000  Uiso   1.00
H488   H     0.35082   0.89452   0.21005   0.00000  Uiso   1.00
H489   H     0.65105   0.81808   0.32097   0.00000  Uiso   1.00
H490   H     0.65307   0.77251   0.29177   0.00000  Uiso   1.00
H491   H     0.57885   0.66880   0.21393   0.00000  Uiso   1.00
H492   H     0.54961   0.99297   0.18125   0.00000  Uiso   1.00
H493   H     0.59921   0.75646   0.02350   0.00000  Uiso   1.00
H494   H     0.45789   0.99855   0.28377   0.00000  Uiso   1.00
H495   H     0.48268   0.84024   0.10177   0.00000  Uiso   1.00
H496   H     0.58170   0.76612   0.09525   0.00000  Uiso   1.00
H497   H     0.58808   0.77083   0.46306   0.00000  Uiso   1.00
H498   H     0.40968   0.92008   0.47661   0.00000  Uiso   1.00
H499   H     0.42387   0.90687   0.40551   0.00000  Uiso   1.00
H500   H     0.51264   0.82133   0.40108   0.00000  Uiso   1.00
N501   N     0.35769   0.86362   0.20674   0.00000  Uiso   1.00
N502   N     0.64541   0.80312   0.29490   0.00000  Uiso   1.00
N503   N     0.55049   0.67456   0.20882   0.00000  Uiso   1.00
O504   O     0.50000   0.83333   0.25000   0.00000  Uiso   1.00
O505   O     0.49027   0.79060   0.16625   0.00000  Uiso   1.00
O506   O     0.46020   0.87313   0.33749   0.00000  Uiso   1.00
O507   O     0.54421   0.84159   0.15877   0.00000  Uiso   1.00
O508   O     0.50532   0.82802   0.33749   0.00000  Uiso   1.00
O509   O     0.51182   0.74768   0.27820   0.00000  Uiso   1.00
O510   O     0.47914   0.92803   0.26767   0.00000  Uiso   1.00
O511   O     0.40785   0.79917   0.23607   0.00000  Uiso   1.00
O512   O     0.60119   0.85845   0.21805   0.00000  Uiso   1.00
O513   O     0.40323   0.85627   0.27820   0.00000  Uiso   1.00
O514   O     0.58773   0.81944   0.26767   0.00000  Uiso   1.00
O515   O     0.47133   0.73570   0.23607   0.00000  Uiso   1.00
O516   O     0.53771   0.92193   0.21805   0.00000  Uiso   1.00
Zn517  Zn    0.52577   0.80756   0.28277   0.00000  Uiso   1.00
Zn518  Zn    0.46792   0.79044   0.22257   0.00000  Uiso   1.00
Zn519  Zn    0.54500   0.86331   0.21188   0.00000  Uiso   1.00
Zn520  Zn    0.46131   0.87202   0.28277   0.00000  Uiso   1.00
C521   C     0.71952   0.82682   0.25855   0.00000  Uiso   1.00
C522   C     0.87454   0.80802   0.45961   0.00000  Uiso   1.00
C523   C     0.89581   0.78933   0.47967   0.00000  Uiso   1.00
C524   C     0.94768   0.84015   0.24126   0.00000  Uiso   1.00
C525   C     0.88470   0.79438   0.02039   0.00000  Uiso   1.00
C526   C     0.85157   0.81922   0.04188   0.00000  Uiso   1.00
C527   C     0.90702   0.77515   0.03983   0.00000  Uiso   1.00
C528   C     0.89707   0.78039   0.08051   0.00000  Uiso   1.00
C529   C     0.84129   0.82286   0.08316   0.00000  Uiso   1.00
C530   C     0.99372   0.84221   0.23763   0.00000  Uiso   1.00
C531   C     0.67418   0.82419   0.26284   0.00000  Uiso   1.00
C532   C     0.77422   0.89123   0.42009   0.00000  Uiso   1.00
C533   C     0.84811   0.98905   0.23778   0.00000  Uiso   1.00
C534   C     0.81863   0.67878   0.26184   0.00000  Uiso   1.00
C535   C     0.82227   0.72293   0.25920   0.00000  Uiso   1.00
C536   C     0.84364   0.94435   0.24128   0.00000  Uiso   1.00
C537   C     0.85511   0.81186   0.14421   0.00000  Uiso   1.00
C538   C     0.81216   0.85442   0.35604   0.00000  Uiso   1.00
C539   C     0.80351   0.86335   0.39881   0.00000  Uiso   1.00
C540   C     0.86416   0.80410   0.10197   0.00000  Uiso   1.00
C541   C     0.76621   0.89880   0.46062   0.00000  Uiso   1.00
C542   C     0.82496   0.84355   0.41842   0.00000  Uiso   1.00
C543   C     0.81847   0.85159   0.45923   0.00000  Uiso   1.00
C544   C     0.78782   0.87908   0.48032   0.00000  Uiso   1.00
C545   C     0.84102   0.83274   0.47964   0.00000  Uiso   1.00
C546   C     0.83027   0.83952   0.02140   0.00000  Uiso   1.00
C547   C     0.79924   0.86700   0.04116   0.00000  Uiso   1.00
C548   C     0.77884   0.88659   0.02090   0.00000  Uiso   1.00
H549   H     0.75553   0.90765   0.03724   0.00000  Uiso   1.00
H550   H     0.79038   0.87492   0.07242   0.00000  Uiso   1.00
H551   H     0.88620   0.80317   0.42816   0.00000  Uiso   1.00
H552   H     0.68656   0.84949   0.17999   0.00000  Uiso   1.00
H553   H     0.68416   0.89452   0.21005   0.00000  Uiso   1.00
H554   H     0.98438   0.81808   0.32097   0.00000  Uiso   1.00
H555   H     0.98640   0.77251   0.29177   0.00000  Uiso   1.00
H556   H     0.91219   0.66880   0.21393   0.00000  Uiso   1.00
H557   H     0.88294   0.99297   0.18125   0.00000  Uiso   1.00
H558   H     0.93255   0.75646   0.02350   0.00000  Uiso   1.00
H559   H     0.79122   0.99855   0.28377   0.00000  Uiso   1.00
H560   H     0.81601   0.84024   0.10177   0.00000  Uiso   1.00
H561   H     0.91504   0.76612   0.09525   0.00000  Uiso   1.00
H562   H     0.92141   0.77083   0.46306   0.00000  Uiso   1.00
H563   H     0.74301   0.92008   0.47661   0.00000  Uiso   1.00
H564   H     0.75720   0.90687   0.40551   0.00000  Uiso   1.00
H565   H     0.84598   0.82133   0.40108   0.00000  Uiso   1.00
N566   N     0.69102   0.86362   0.20674   0.00000  Uiso   1.00
N567   N     0.97874   0.80312   0.29490   0.00000  Uiso   1.00
N568   N     0.88382   0.67456   0.20882   0.00000  Uiso   1.00
O569   O     0.83333   0.83333   0.25000   0.00000  Uiso   1.00
O570   O     0.82360   0.79060   0.16625   0.00000  Uiso   1.00
O571   O     0.79354   0.87313   0.33749   0.00000  Uiso   1.00
O572   O     0.87755   0.84159   0.15877   0.00000  Uiso   1.00
O573   O     0.83865   0.82802   0.33749   0.00000  Uiso   1.00
O574   O     0.84515   0.74768   0.27820   0.00000  Uiso   1.00
O575   O     0.81247   0.92803   0.26767   0.00000  Uiso   1.00
O576   O     0.74119   0.79917   0.23607   0.00000  Uiso   1.00
O577   O     0.93452   0.85845   0.21805   0.00000  Uiso   1.00
O578   O     0.73656   0.85627   0.27820   0.00000  Uiso   1.00
O579   O     0.92106   0.81944   0.26767   0.00000  Uiso   1.00
O580   O     0.80467   0.73570   0.23607   0.00000  Uiso   1.00
O581   O     0.87104   0.92193   0.21805   0.00000  Uiso   1.00
Zn582  Zn    0.85910   0.80756   0.28277   0.00000  Uiso   1.00
Zn583  Zn    0.80125   0.79044   0.22257   0.00000  Uiso   1.00
Zn584  Zn    0.87833   0.86331   0.21188   0.00000  Uiso   1.00
Zn585  Zn    0.79465   0.87202   0.28277   0.00000  Uiso   1.00
C586   C     0.05285   0.16016   0.75855   0.00000  Uiso   1.00
C587   C     0.20787   0.14136   0.95961   0.00000  Uiso   1.00
C588   C     0.22914   0.12266   0.97967   0.00000  Uiso   1.00
C589   C     0.28101   0.17349   0.74126   0.00000  Uiso   1.00
C590   C     0.21804   0.12771   0.52039   0.00000  Uiso   1.00
C591   C     0.18490   0.15255   0.54188   0.00000  Uiso   1.00
C592   C     0.24035   0.10848   0.53983   0.00000  Uiso   1.00
C593   C     0.23040   0.11372   0.58051   0.00000  Uiso   1.00
C594   C     0.17462   0.15619   0.58316   0.00000  Uiso   1.00
C595   C     0.32705   0.17554   0.73763   0.00000  Uiso   1.00
C596   C     0.00752   0.15753   0.76284   0.00000  Uiso   1.00
C597   C     0.10755   0.22456   0.92009   0.00000  Uiso   1.00
C598   C     0.18144   0.32239   0.73778   0.00000  Uiso   1.00
C599   C     0.15196   0.01211   0.76184   0.00000  Uiso   1.00
C600   C     0.15560   0.05626   0.75920   0.00000  Uiso   1.00
C601   C     0.17698   0.27768   0.74128   0.00000  Uiso   1.00
C602   C     0.18845   0.14520   0.64421   0.00000  Uiso   1.00
C603   C     0.14550   0.18775   0.85604   0.00000  Uiso   1.00
C604   C     0.13684   0.19668   0.89881   0.00000  Uiso   1.00
C605   C     0.19749   0.13743   0.60197   0.00000  Uiso   1.00
C606   C     0.09955   0.23214   0.96062   0.00000  Uiso   1.00
C607   C     0.15830   0.17688   0.91842   0.00000  Uiso   1.00
C608   C     0.15180   0.18493   0.95923   0.00000  Uiso   1.00
C609   C     0.12116   0.21241   0.98032   0.00000  Uiso   1.00
C610   C     0.17435   0.16607   0.97964   0.00000  Uiso   1.00
C611   C     0.16360   0.17285   0.52140   0.00000  Uiso   1.00
C612   C     0.13257   0.20033   0.54116   0.00000  Uiso   1.00
C613   C     0.11217   0.21992   0.52090   0.00000  Uiso   1.00
H614   H     0.08886   0.24098   0.53724   0.00000  Uiso   1.00
H615   H     0.12371   0.20825   0.57242   0.00000  Uiso   1.00
H616   H     0.21954   0.13650   0.92816   0.00000  Uiso   1.00
H617   H     0.01989   0.18282   0.67999   0.00000  Uiso   1.00
H618   H     0.01749   0.22785   0.71005   0.00000  Uiso   1.00
H619   H     0.31771   0.15142   0.82097   0.00000  Uiso   1.00
H620   H     0.31974   0.10584   0.79177   0.00000  Uiso   1.00
H621   H     0.24552   0.00213   0.71393   0.00000  Uiso   1.00
H622   H     0.21627   0.32631   0.68125   0.00000  Uiso   1.00
H623   H     0.26588   0.08980   0.52350   0.00000  Uiso   1.00
H624   H     0.12455   0.33188   0.78377   0.00000  Uiso   1.00
H625   H     0.14934   0.17358   0.60177   0.00000  Uiso   1.00
H626   H     0.24837   0.09946   0.59525   0.00000  Uiso   1.00
H627   H     0.25475   0.10417   0.96306   0.00000  Uiso   1.00
H628   H     0.07634   0.25341   0.97661   0.00000  Uiso   1.00
H629   H     0.09054   0.24020   0.90551   0.00000  Uiso   1.00
H630   H     0.17931   0.15466   0.90108   0.00000  Uiso   1.00
N631   N     0.02436   0.19695   0.70674   0.00000  Uiso   1.00
N632   N     0.31208   0.13645   0.79490   0.00000  Uiso   1.00
N633   N     0.21715   0.00790   0.70882   0.00000  Uiso   1.00
O634   O     0.16667   0.16667   0.75000   0.00000  Uiso   1.00
O635   O     0.15693   0.12393   0.66625   0.00000  Uiso   1.00
O636   O     0.12687   0.20646   0.83749   0.00000  Uiso   1.00
O637   O     0.21088   0.17493   0.65877   0.00000  Uiso   1.00
O638   O     0.17198   0.16135   0.83749   0.00000  Uiso   1.00
O639   O     0.17849   0.08101   0.77820   0.00000  Uiso   1.00
O640   O     0.14581   0.26136   0.76767   0.00000  Uiso   1.00
O641   O     0.07452   0.13251   0.73607   0.00000  Uiso   1.00
O642   O     0.26785   0.19179   0.71805   0.00000  Uiso   1.00
O643   O     0.06990   0.18960   0.77820   0.00000  Uiso   1.00
O644   O     0.25440   0.15277   0.76767   0.00000  Uiso   1.00
O645   O     0.13800   0.06903   0.73607   0.00000  Uiso   1.00
O646   O     0.20437   0.25527   0.71805   0.00000  Uiso   1.00
Zn647  Zn    0.19244   0.14090   0.78277   0.00000  Uiso   1.00
Zn648  Zn    0.13459   0.12378   0.72257   0.00000  Uiso   1.00
Zn649  Zn    0.21166   0.19664   0.71188   0.00000  Uiso   1.00
Zn650  Zn    0.12798   0.20535   0.78277   0.00000  Uiso   1.00
C651   C     0.38618   0.16016   0.75855   0.00000  Uiso   1.00
C652   C     0.54121   0.14136   0.95961   0.00000  Uiso   1.00
C653   C     0.56248   0.12266   0.97967   0.00000  Uiso   1.00
C654   C     0.61435   0.17349   0.74126   0.00000  Uiso   1.00
C655   C     0.55137   0.12771   0.52039   0.00000  Uiso   1.00
C656   C     0.51823   0.15255   0.54188   0.00000  Uiso   1.00
C657   C     0.57369   0.10848   0.53983   0.00000  Uiso   1.00
C658   C     0.56373   0.11372   0.58051   0.00000  Uiso   1.00
C659   C     0.50796   0.15619   0.58316   0.00000  Uiso   1.00
C660   C     0.66038   0.17554   0.73763   0.00000  Uiso   1.00
C661   C     0.34085   0.15753   0.76284   0.00000  Uiso   1.00
C662   C     0.44089   0.22456   0.92009   0.00000  Uiso   1.00
C663   C     0.51478   0.32239   0.73778   0.00000  Uiso   1.00
C664   C     0.48530   0.01211   0.76184   0.00000  Uiso   1.00
C665   C     0.48893   0.05626   0.75920   0.00000  Uiso   1.00
C666   C     0.51031   0.27768   0.74128   0.00000  Uiso   1.00
C667   C     0.52178   0.14520   0.64421   0.00000  Uiso   1.00
C668   C     0.47883   0.18775   0.85604   0.00000  Uiso   1.00
C669   C     0.47017   0.19668   0.89881   0.00000  Uiso   1.00
C670   C     0.53082   0.13743   0.60197   0.00000  Uiso   1.00
C671   C     0.43288   0.23214   0.96062   0.00000  Uiso   1.00
C672   C     0.49163   0.17688   0.91842   0.00000  Uiso   1.00
C673   C     0.48514   0.18493   0.95923   0.00000  Uiso   1.00
C674   C     0.45449   0.21241   0.98032   0.00000  Uiso   1.00
C675   C     0.50769   0.16607   0.97964   0.00000  Uiso   1.00
C676   C     0.49693   0.17285   0.52140   0.00000  Uiso   1.00
C677   C     0.46591   0.20033   0.54116   0.00000  Uiso   1.00
C678   C     0.44550   0.21992   0.52090   0.00000  Uiso   1.00
H679   H     0.42220   0.24098   0.53724   0.00000  Uiso   1.00
H680   H     0.45705   0.20825   0.57242   0.00000  Uiso   1.00
H681   H     0.55287   0.13650   0.92816   0.00000  Uiso   1.00
H682   H     0.35322   0.18282   0.67999   0.00000  Uiso   1.00
H683   H     0.35082   0.22785   0.71005   0.00000  Uiso   1.00
H684   H     0.65105   0.15142   0.82097   0.00000  Uiso   1.00
H685   H     0.65307   0.10584   0.79177   0.00000  Uiso   1.00
H686   H     0.57885   0.00213   0.71393   0.00000  Uiso   1.00
H687   H     0.54961   0.32631   0.68125   0.00000  Uiso   1.00
H688   H     0.59921   0.08980   0.52350   0.00000  Uiso   1.00
H689   H     0.45789   0.33188   0.78377   0.00000  Uiso   1.00
H690   H     0.48268   0.17358   0.60177   0.00000  Uiso   1.00
H691   H     0.58170   0.09946   0.59525   0.00000  Uiso   1.00
H692   H     0.58808   0.10417   0.96306   0.00000  Uiso   1.00
H693   H     0.40968   0.25341   0.97661   0.00000  Uiso   1.00
H694   H     0.42387   0.24020   0.90551   0.00000  Uiso   1.00
H695   H     0.51264   0.15466   0.90108   0.00000  Uiso   1.00
N696   N     0.35769   0.19695   0.70674   0.00000  Uiso   1.00
N697   N     0.64541   0.13645   0.79490   0.00000  Uiso   1.00
N698   N     0.55049   0.00790   0.70882   0.00000  Uiso   1.00
O699   O     0.50000   0.16667   0.75000   0.00000  Uiso   1.00
O700   O     0.49027   0.12393   0.66625   0.00000  Uiso   1.00
O701   O     0.46020   0.20646   0.83749   0.00000  Uiso   1.00
O702   O     0.54421   0.17493   0.65877   0.00000  Uiso   1.00
O703   O     0.50532   0.16135   0.83749   0.00000  Uiso   1.00
O704   O     0.51182   0.08101   0.77820   0.00000  Uiso   1.00
O705   O     0.47914   0.26136   0.76767   0.00000  Uiso   1.00
O706   O     0.40785   0.13251   0.73607   0.00000  Uiso   1.00
O707   O     0.60119   0.19179   0.71805   0.00000  Uiso   1.00
O708   O     0.40323   0.18960   0.77820   0.00000  Uiso   1.00
O709   O     0.58773   0.15277   0.76767   0.00000  Uiso   1.00
O710   O     0.47133   0.06903   0.73607   0.00000  Uiso   1.00
O711   O     0.53771   0.25527   0.71805   0.00000  Uiso   1.00
Zn712  Zn    0.52577   0.14090   0.78277   0.00000  Uiso   1.00
Zn713  Zn    0.46792   0.12378   0.72257   0.00000  Uiso   1.00
Zn714  Zn    0.54500   0.19664   0.71188   0.00000  Uiso   1.00
Zn715  Zn    0.46131   0.20535   0.78277   0.00000  Uiso   1.00
C716   C     0.71952   0.16016   0.75855   0.00000  Uiso   1.00
C717   C     0.87454   0.14136   0.95961   0.00000  Uiso   1.00
C718   C     0.89581   0.12266   0.97967   0.00000  Uiso   1.00
C719   C     0.94768   0.17349   0.74126   0.00000  Uiso   1.00
C720   C     0.88470   0.12771   0.52039   0.00000  Uiso   1.00
C721   C     0.85157   0.15255   0.54188   0.00000  Uiso   1.00
C722   C     0.90702   0.10848   0.53983   0.00000  Uiso   1.00
C723   C     0.89707   0.11372   0.58051   0.00000  Uiso   1.00
C724   C     0.84129   0.15619   0.58316   0.00000  Uiso   1.00
C725   C     0.99372   0.17554   0.73763   0.00000  Uiso   1.00
C726   C     0.67418   0.15753   0.76284   0.00000  Uiso   1.00
C727   C     0.77422   0.22456   0.92009   0.00000  Uiso   1.00
C728   C     0.84811   0.32239   0.73778   0.00000  Uiso   1.00
C729   C     0.81863   0.01211   0.76184   0.00000  Uiso   1.00
C730   C     0.82227   0.05626   0.75920   0.00000  Uiso   1.00
C731   C     0.84364   0.27768   0.74128   0.00000  Uiso   1.00
C732   C     0.85511   0.14520   0.64421   0.00000  Uiso   1.00
C733   C     0.81216   0.18775   0.85604   0.00000  Uiso   1.00
C734   C     0.80351   0.19668   0.89881   0.00000  Uiso   1.00
C735   C     0.86416   0.13743   0.60197   0.00000  Uiso   1.00
C736   C     0.76621   0.23214   0.96062   0.00000  Uiso   1.00
C737   C     0.82496   0.17688   0.91842   0.00000  Uiso   1.00
C738   C     0.81847   0.18493   0.95923   0.00000  Uiso   1.00
C739   C     0.78782   0.21241   0.98032   0.00000  Uiso   1.00
C740   C     0.84102   0.16607   0.97964   0.00000  Uiso   1.00
C741   C     0.83027   0.17285   0.52140   0.00000  Uiso   1.00
C742   C     0.79924   0.20033   0.54116   0.00000  Uiso   1.00
C743   C     0.77884   0.21992   0.52090   0.00000  Uiso   1.00
H744   H     0.75553   0.24098   0.53724   0.00000  Uiso   1.00
H745   H     0.79038   0.20825   0.57242   0.00000  Uiso   1.00
H746   H     0.88620   0.13650   0.92816   0.00000  Uiso   1.00
H747   H     0.68656   0.18282   0.67999   0.00000  Uiso   1.00
H748   H     0.68416   0.22785   0.71005   0.00000  Uiso   1.00
H749   H     0.98438   0.15142   0.82097   0.00000  Uiso   1.00
H750   H     0.98640   0.10584   0.79177   0.00000  Uiso   1.00
H751   H     0.91219   0.00213   0.71393   0.00000  Uiso   1.00
H752   H     0.88294   0.32631   0.68125   0.00000  Uiso   1.00
H753   H     0.93255   0.08980   0.52350   0.00000  Uiso   1.00
H754   H     0.79122   0.33188   0.78377   0.00000  Uiso   1.00
H755   H     0.81601   0.17358   0.60177   0.00000  Uiso   1.00
H756   H     0.91504   0.09946   0.59525   0.00000  Uiso   1.00
H757   H     0.92141   0.10417   0.96306   0.00000  Uiso   1.00
H758   H     0.74301   0.25341   0.97661   0.00000  Uiso   1.00
H759   H     0.75720   0.24020   0.90551   0.00000  Uiso   1.00
H760   H     0.84598   0.15466   0.90108   0.00000  Uiso   1.00
N761   N     0.69102   0.19695   0.70674   0.00000  Uiso   1.00
N762   N     0.97874   0.13645   0.79490   0.00000  Uiso   1.00
N763   N     0.88382   0.00790   0.70882   0.00000  Uiso   1.00
O764   O     0.83333   0.16667   0.75000   0.00000  Uiso   1.00
O765   O     0.82360   0.12393   0.66625   0.00000  Uiso   1.00
O766   O     0.79354   0.20646   0.83749   0.00000  Uiso   1.00
O767   O     0.87755   0.17493   0.65877   0.00000  Uiso   1.00
O768   O     0.83865   0.16135   0.83749   0.00000  Uiso   1.00
O769   O     0.84515   0.08101   0.77820   0.00000  Uiso   1.00
O770   O     0.81247   0.26136   0.76767   0.00000  Uiso   1.00
O771   O     0.74119   0.13251   0.73607   0.00000  Uiso   1.00
O772   O     0.93452   0.19179   0.71805   0.00000  Uiso   1.00
O773   O     0.73656   0.18960   0.77820   0.00000  Uiso   1.00
O774   O     0.92106   0.15277   0.76767   0.00000  Uiso   1.00
O775   O     0.80467   0.06903   0.73607   0.00000  Uiso   1.00
O776   O     0.87104   0.25527   0.71805   0.00000  Uiso   1.00
Zn777  Zn    0.85910   0.14090   0.78277   0.00000  Uiso   1.00
Zn778  Zn    0.80125   0.12378   0.72257   0.00000  Uiso   1.00
Zn779  Zn    0.87833   0.19664   0.71188   0.00000  Uiso   1.00
Zn780  Zn    0.79465   0.20535   0.78277   0.00000  Uiso   1.00
C781   C     0.05285   0.49349   0.75855   0.00000  Uiso   1.00
C782   C     0.20787   0.47469   0.95961   0.00000  Uiso   1.00
C783   C     0.22914   0.45600   0.97967   0.00000  Uiso   1.00
C784   C     0.28101   0.50682   0.74126   0.00000  Uiso   1.00
C785   C     0.21804   0.46105   0.52039   0.00000  Uiso   1.00
C786   C     0.18490   0.48589   0.54188   0.00000  Uiso   1.00
C787   C     0.24035   0.44181   0.53983   0.00000  Uiso   1.00
C788   C     0.23040   0.44706   0.58051   0.00000  Uiso   1.00
C789   C     0.17462   0.48952   0.58316   0.00000  Uiso   1.00
C790   C     0.32705   0.50888   0.73763   0.00000  Uiso   1.00
C791   C     0.00752   0.49086   0.76284   0.00000  Uiso   1.00
C792   C     0.10755   0.55789   0.92009   0.00000  Uiso   1.00
C793   C     0.18144   0.65572   0.73778   0.00000  Uiso   1.00
C794   C     0.15196   0.34545   0.76184   0.00000  Uiso   1.00
C795   C     0.15560   0.38960   0.75920   0.00000  Uiso   1.00
C796   C     0.17698   0.61102   0.74128   0.00000  Uiso   1.00
C797   C     0.18845   0.47853   0.64421   0.00000  Uiso   1.00
C798   C     0.14550   0.52109   0.85604   0.00000  Uiso   1.00
C799   C     0.13684   0.53002   0.89881   0.00000  Uiso   1.00
C800   C     0.19749   0.47077   0.60197   0.00000  Uiso   1.00
C801   C     0.09955   0.56547   0.96062   0.00000  Uiso   1.00
C802   C     0.15830   0.51022   0.91842   0.00000  Uiso   1.00
C803   C     0.15180   0.51826   0.95923   0.00000  Uiso   1.00
C804   C     0.12116   0.54574   0.98032   0.00000  Uiso   1.00
C805   C     0.17435   0.49940   0.97964   0.00000  Uiso   1.00
C806   C     0.16360   0.50619   0.52140   0.00000  Uiso   1.00
C807   C     0.13257   0.53367   0.54116   0.00000  Uiso   1.00
C808   C     0.11217   0.55326   0.52090   0.00000  Uiso   1.00
H809   H     0.08886   0.57431   0.53724   0.00000  Uiso   1.00
H810   H     0.12371   0.54158   0.57242   0.00000  Uiso   1.00
H811   H     0.21954   0.46984   0.92816   0.00000  Uiso   1.00
H812   H     0.01989   0.51616   0.67999   0.00000  Uiso   1.00
H813   H     0.01749   0.56119   0.71005   0.00000  Uiso   1.00
H814   H     0.31771   0.48475   0.82097   0.00000  Uiso   1.00
H815   H     0.31974   0.43917   0.79177   0.00000  Uiso   1.00
H816   H     0.24552   0.33547   0.71393   0.00000  Uiso   1.00
H817   H     0.21627   0.65964   0.68125   0.00000  Uiso   1.00
H818   H     0.26588   0.42313   0.52350   0.00000  Uiso   1.00
H819   H     0.12455   0.66522   0.78377   0.00000  Uiso   1.00
H820   H     0.14934   0.50691   0.60177   0.00000  Uiso   1.00
H821   H     0.24837   0.43279   0.59525   0.00000  Uiso   1.00
H822   H     0.25475   0.43750   0.96306   0.00000  Uiso   1.00
H823   H     0.07634   0.58675   0.97661   0.00000  Uiso   1.00
H824   H     0.09054   0.57354   0.90551   0.00000  Uiso   1.00
H825   H     0.17931   0.48799   0.90108   0.00000  Uiso   1.00
N826   N     0.02436   0.53029   0.70674   0.00000  Uiso   1.00
N827   N     0.31208   0.46979   0.79490   0.00000  Uiso   1.00
N828   N     0.21715   0.34123   0.70882   0.00000  Uiso   1.00
O829   O     0.16667   0.50000   0.75000   0.00000  Uiso   1.00
O830   O     0.15693   0.45726   0.66625   0.00000  Uiso   1.00
O831   O     0.12687   0.53979   0.83749   0.00000  Uiso   1.00
O832   O     0.21088   0.50826   0.65877   0.00000  Uiso   1.00
O833   O     0.17198   0.49468   0.83749   0.00000  Uiso   1.00
O834   O     0.17849   0.41434   0.77820   0.00000  Uiso   1.00
O835   O     0.14581   0.59469   0.76767   0.00000  Uiso   1.00
O836   O     0.07452   0.46584   0.73607   0.00000  Uiso   1.00
O837   O     0.26785   0.52512   0.71805   0.00000  Uiso   1.00
O838   O     0.06990   0.52293   0.77820   0.00000  Uiso   1.00
O839   O     0.25440   0.48610   0.76767   0.00000  Uiso   1.00
O840   O     0.13800   0.40236   0.73607   0.00000  Uiso   1.00
O841   O     0.20437   0.58860   0.71805   0.00000  Uiso   1.00
Zn842  Zn    0.19244   0.47423   0.78277   0.00000  Uiso   1.00
Zn843  Zn    0.13459   0.45711   0.72257   0.00000  Uiso   1.00
Zn844  Zn    0.21166   0.52997   0.71188   0.00000  Uiso   1.00
Zn845  Zn    0.12798   0.53868   0.78277   0.00000  Uiso   1.00
C846   C     0.38618   0.49349   0.75855   0.00000  Uiso   1.00
C847   C     0.54121   0.47469   0.95961   0.00000  Uiso   1.00
C848   C     0.56248   0.45600   0.97967   0.00000  Uiso   1.00
C849   C     0.61435   0.50682   0.74126   0.00000  Uiso   1.00
C850   C     0.55137   0.46105   0.52039   0.00000  Uiso   1.00
C851   C     0.51823   0.48589   0.54188   0.00000  Uiso   1.00
C852   C     0.57369   0.44181   0.53983   0.00000  Uiso   1.00
C853   C     0.56373   0.44706   0.58051   0.00000  Uiso   1.00
C854   C     0.50796   0.48952   0.58316   0.00000  Uiso   1.00
C855   C     0.66038   0.50888   0.73763   0.00000  Uiso   1.00
C856   C     0.34085   0.49086   0.76284   0.00000  Uiso   1.00
C857   C     0.44089   0.55789   0.92009   0.00000  Uiso   1.00
C858   C     0.51478   0.65572   0.73778   0.00000  Uiso   1.00
C859   C     0.48530   0.34545   0.76184   0.00000  Uiso   1.00
C860   C     0.48893   0.38960   0.75920   0.00000  Uiso   1.00
C861   C     0.51031   0.61102   0.74128   0.00000  Uiso   1.00
C862   C     0.52178   0.47853   0.64421   0.00000  Uiso   1.00
C863   C     0.47883   0.52109   0.85604   0.00000  Uiso   1.00
C864   C     0.47017   0.53002   0.89881   0.00000  Uiso   1.00
C865   C     0.53082   0.47077   0.60197   0.00000  Uiso   1.00
C866   C     0.43288   0.56547   0.96062   0.00000  Uiso   1.00
C867   C     0.49163   0.51022   0.91842   0.00000  Uiso   1.00
C868   C     0.48514   0.51826   0.95923   0.00000  Uiso   1.00
C869   C     0.45449   0.54574   0.98032   0.00000  Uiso   1.00
C870   C     0.50769   0.49940   0.97964   0.00000  Uiso   1.00
C871   C     0.49693   0.50619   0.52140   0.00000  Uiso   1.00
C872   C     0.46591   0.53367   0.54116   0.00000  Uiso   1.00
C873   C     0.44550   0.55326   0.52090   0.00000  Uiso   1.00
H874   H     0.42220   0.57431   0.53724   0.00000  Uiso   1.00
H875   H     0.45705   0.54158   0.57242   0.00000  Uiso   1.00
H876   H     0.55287   0.46984   0.92816   0.00000  Uiso   1.00
H877   H     0.35322   0.51616   0.67999   0.00000  Uiso   1.00
H878   H     0.35082   0.56119   0.71005   0.00000  Uiso   1.00
H879   H     0.65105   0.48475   0.82097   0.00000  Uiso   1.00
H880   H     0.65307   0.43917   0.79177   0.00000  Uiso   1.00
H881   H     0.57885   0.33547   0.71393   0.00000  Uiso   1.00
H882   H     0.54961   0.65964   0.68125   0.00000  Uiso   1.00
H883   H     0.59921   0.42313   0.52350   0.00000  Uiso   1.00
H884   H     0.45789   0.66522   0.78377   0.00000  Uiso   1.00
H885   H     0.48268   0.50691   0.60177   0.00000  Uiso   1.00
H886   H     0.58170   0.43279   0.59525   0.00000  Uiso   1.00
H887   H     0.58808   0.43750   0.96306   0.00000  Uiso   1.00
H888   H     0.40968   0.58675   0.97661   0.00000  Uiso   1.00
H889   H     0.42387   0.57354   0.90551   0.00000  Uiso   1.00
H890   H     0.51264   0.48799   0.90108   0.00000  Uiso   1.00
N891   N     0.35769   0.53029   0.70674   0.00000  Uiso   1.00
N892   N     0.64541   0.46979   0.79490   0.00000  Uiso   1.00
N893   N     0.55049   0.34123   0.70882   0.00000  Uiso   1.00
O894   O     0.50000   0.50000   0.75000   0.00000  Uiso   1.00
O895   O     0.49027   0.45726   0.66625   0.00000  Uiso   1.00
O896   O     0.46020   0.53979   0.83749   0.00000  Uiso   1.00
O897   O     0.54421   0.50826   0.65877   0.00000  Uiso   1.00
O898   O     0.50532   0.49468   0.83749   0.00000  Uiso   1.00
O899   O     0.51182   0.41434   0.77820   0.00000  Uiso   1.00
O900   O     0.47914   0.59469   0.76767   0.00000  Uiso   1.00
O901   O     0.40785   0.46584   0.73607   0.00000  Uiso   1.00
O902   O     0.60119   0.52512   0.71805   0.00000  Uiso   1.00
O903   O     0.40323   0.52293   0.77820   0.00000  Uiso   1.00
O904   O     0.58773   0.48610   0.76767   0.00000  Uiso   1.00
O905   O     0.47133   0.40236   0.73607   0.00000  Uiso   1.00
O906   O     0.53771   0.58860   0.71805   0.00000  Uiso   1.00
Zn907  Zn    0.52577   0.47423   0.78277   0.00000  Uiso   1.00
Zn908  Zn    0.46792   0.45711   0.72257   0.00000  Uiso   1.00
Zn909  Zn    0.54500   0.52997   0.71188   0.00000  Uiso   1.00
Zn910  Zn    0.46131   0.53868   0.78277   0.00000  Uiso   1.00
C911   C     0.71952   0.49349   0.75855   0.00000  Uiso   1.00
C912   C     0.87454   0.47469   0.95961   0.00000  Uiso   1.00
C913   C     0.89581   0.45600   0.97967   0.00000  Uiso   1.00
C914   C     0.94768   0.50682   0.74126   0.00000  Uiso   1.00
C915   C     0.88470   0.46105   0.52039   0.00000  Uiso   1.00
C916   C     0.85157   0.48589   0.54188   0.00000  Uiso   1.00
C917   C     0.90702   0.44181   0.53983   0.00000  Uiso   1.00
C918   C     0.89707   0.44706   0.58051   0.00000  Uiso   1.00
C919   C     0.84129   0.48952   0.58316   0.00000  Uiso   1.00
C920   C     0.99372   0.50888   0.73763   0.00000  Uiso   1.00
C921   C     0.67418   0.49086   0.76284   0.00000  Uiso   1.00
C922   C     0.77422   0.55789   0.92009   0.00000  Uiso   1.00
C923   C     0.84811   0.65572   0.73778   0.00000  Uiso   1.00
C924   C     0.81863   0.34545   0.76184   0.00000  Uiso   1.00
C925   C     0.82227   0.38960   0.75920   0.00000  Uiso   1.00
C926   C     0.84364   0.61102   0.74128   0.00000  Uiso   1.00
C927   C     0.85511   0.47853   0.64421   0.00000  Uiso   1.00
C928   C     0.81216   0.52109   0.85604   0.00000  Uiso   1.00
C929   C     0.80351   0.53002   0.89881   0.00000  Uiso   1.00
C930   C     0.86416   0.47077   0.60197   0.00000  Uiso   1.00
C931   C     0.76621   0.56547   0.96062   0.00000  Uiso   1.00
C932   C     0.82496   0.51022   0.91842   0.00000  Uiso   1.00
C933   C     0.81847   0.51826   0.95923   0.00000  Uiso   1.00
C934   C     0.78782   0.54574   0.98032   0.00000  Uiso   1.00
C935   C     0.84102   0.49940   0.97964   0.00000  Uiso   1.00
C936   C     0.83027   0.50619   0.52140   0.00000  Uiso   1.00
C937   C     0.79924   0.53367   0.54116   0.00000  Uiso   1.00
C938   C     0.77884   0.55326   0.52090   0.00000  Uiso   1.00
H939   H     0.75553   0.57431   0.53724   0.00000  Uiso   1.00
H940   H     0.79038   0.54158   0.57242   0.00000  Uiso   1.00
H941   H     0.88620   0.46984   0.92816   0.00000  Uiso   1.00
H942   H     0.68656   0.51616   0.67999   0.00000  Uiso   1.00
H943   H     0.68416   0.56119   0.71005   0.00000  Uiso   1.00
H944   H     0.98438   0.48475   0.82097   0.00000  Uiso   1.00
H945   H     0.98640   0.43917   0.79177   0.00000  Uiso   1.00
H946   H     0.91219   0.33547   0.71393   0.00000  Uiso   1.00
H947   H     0.88294   0.65964   0.68125   0.00000  Uiso   1.00
H948   H     0.93255   0.42313   0.52350   0.00000  Uiso   1.00
H949   H     0.79122   0.66522   0.78377   0.00000  Uiso   1.00
H950   H     0.81601   0.50691   0.60177   0.00000  Uiso   1.00
H951   H     0.91504   0.43279   0.59525   0.00000  Uiso   1.00
H952   H     0.92141   0.43750   0.96306   0.00000  Uiso   1.00
H953   H     0.74301   0.58675   0.97661   0.00000  Uiso   1.00
H954   H     0.75720   0.57354   0.90551   0.00000  Uiso   1.00
H955   H     0.84598   0.48799   0.90108   0.00000  Uiso   1.00
N956   N     0.69102   0.53029   0.70674   0.00000  Uiso   1.00
N957   N     0.97874   0.46979   0.79490   0.00000  Uiso   1.00
N958   N     0.88382   0.34123   0.70882   0.00000  Uiso   1.00
O959   O     0.83333   0.50000   0.75000   0.00000  Uiso   1.00
O960   O     0.82360   0.45726   0.66625   0.00000  Uiso   1.00
O961   O     0.79354   0.53979   0.83749   0.00000  Uiso   1.00
O962   O     0.87755   0.50826   0.65877   0.00000  Uiso   1.00
O963   O     0.83865   0.49468   0.83749   0.00000  Uiso   1.00
O964   O     0.84515   0.41434   0.77820   0.00000  Uiso   1.00
O965   O     0.81247   0.59469   0.76767   0.00000  Uiso   1.00
O966   O     0.74119   0.46584   0.73607   0.00000  Uiso   1.00
O967   O     0.93452   0.52512   0.71805   0.00000  Uiso   1.00
O968   O     0.73656   0.52293   0.77820   0.00000  Uiso   1.00
O969   O     0.92106   0.48610   0.76767   0.00000  Uiso   1.00
O970   O     0.80467   0.40236   0.73607   0.00000  Uiso   1.00
O971   O     0.87104   0.58860   0.71805   0.00000  Uiso   1.00
Zn972  Zn    0.85910   0.47423   0.78277   0.00000  Uiso   1.00
Zn973  Zn    0.80125   0.45711   0.72257   0.00000  Uiso   1.00
Zn974  Zn    0.87833   0.52997   0.71188   0.00000  Uiso   1.00
Zn975  Zn    0.79465   0.53868   0.78277   0.00000  Uiso   1.00
C976   C     0.05285   0.82682   0.75855   0.00000  Uiso   1.00
C977   C     0.20787   0.80802   0.95961   0.00000  Uiso   1.00
C978   C     0.22914   0.78933   0.97967   0.00000  Uiso   1.00
C979   C     0.28101   0.84015   0.74126   0.00000  Uiso   1.00
C980   C     0.21804   0.79438   0.52039   0.00000  Uiso   1.00
C981   C     0.18490   0.81922   0.54188   0.00000  Uiso   1.00
C982   C     0.24035   0.77515   0.53983   0.00000  Uiso   1.00
C983   C     0.23040   0.78039   0.58051   0.00000  Uiso   1.00
C984   C     0.17462   0.82286   0.58316   0.00000  Uiso   1.00
C985   C     0.32705   0.84221   0.73763   0.00000  Uiso   1.00
C986   C     0.00752   0.82419   0.76284   0.00000  Uiso   1.00
C987   C     0.10755   0.89123   0.92009   0.00000  Uiso   1.00
C988   C     0.18144   0.98905   0.73778   0.00000  Uiso   1.00
C989   C     0.15196   0.67878   0.76184   0.00000  Uiso   1.00
C990   C     0.15560   0.72293   0.75920   0.00000  Uiso   1.00
C991   C     0.17698   0.94435   0.74128   0.00000  Uiso   1.00
C992   C     0.18845   0.81186   0.64421   0.00000  Uiso   1.00
C993   C     0.14550   0.85442   0.85604   0.00000  Uiso   1.00
C994   C     0.13684   0.86335   0.89881   0.00000  Uiso   1.00
C995   C     0.19749   0.80410   0.60197   0.00000  Uiso   1.00
C996   C     0.09955   0.89880   0.96062   0.00000  Uiso   1.00
C997   C     0.15830   0.84355   0.91842   0.00000  Uiso   1.00
C998   C     0.15180   0.85159   0.95923   0.00000  Uiso   1.00
C999   C     0.12116   0.87908   0.98032   0.00000  Uiso   1.00
C1000  C     0.17435   0.83274   0.97964   0.00000  Uiso   1.00
C1001  C     0.16360   0.83952   0.52140   0.00000  Uiso   1.00
C1002  C     0.13257   0.86700   0.54116   0.00000  Uiso   1.00
C1003  C     0.11217   0.88659   0.52090   0.00000  Uiso   1.00
H1004  H     0.08886   0.90765   0.53724   0.00000  Uiso   1.00
H1005  H     0.12371   0.87492   0.57242   0.00000  Uiso   1.00
H1006  H     0.21954   0.80317   0.92816   0.00000  Uiso   1.00
H1007  H     0.01989   0.84949   0.67999   0.00000  Uiso   1.00
H1008  H     0.01749   0.89452   0.71005   0.00000  Uiso   1.00
H1009  H     0.31771   0.81808   0.82097   0.00000  Uiso   1.00
H1010  H     0.31974   0.77251   0.79177   0.00000  Uiso   1.00
H1011  H     0.24552   0.66880   0.71393   0.00000  Uiso   1.00
H1012  H     0.21627   0.99297   0.68125   0.00000  Uiso   1.00
H1013  H     0.26588   0.75646   0.52350   0.00000  Uiso   1.00
H1014  H     0.12455   0.99855   0.78377   0.00000  Uiso   1.00
H1015  H     0.14934   0.84024   0.60177   0.00000  Uiso   1.00
H1016  H     0.24837   0.76612   0.59525   0.00000  Uiso   1.00
H1017  H     0.25475   0.77083   0.96306   0.00000  Uiso   1.00
H1018  H     0.07634   0.92008   0.97661   0.00000  Uiso   1.00
H1019  H     0.09054   0.90687   0.90551   0.00000  Uiso   1.00
H1020  H     0.17931   0.82133   0.90108   0.00000  Uiso   1.00
N1021  N     0.02436   0.86362   0.70674   0.00000  Uiso   1.00
N1022  N     0.31208   0.80312   0.79490   0.00000  Uiso   1.00
N1023  N     0.21715   0.67456   0.70882   0.00000  Uiso   1.00
O1024  O     0.16667   0.83333   0.75000   0.00000  Uiso   1.00
O1025  O     0.15693   0.79060   0.66625   0.00000  Uiso   1.00
O1026  O     0.12687   0.87313   0.83749   0.00000  Uiso   1.00
O1027  O     0.21088   0.84159   0.65877   0.00000  Uiso   1.00
O1028  O     0.17198   0.82802   0.83749   0.00000  Uiso   1.00
O1029  O     0.17849   0.74768   0.77820   0.00000  Uiso   1.00
O1030  O     0.14581   0.92803   0.76767   0.00000  Uiso   1.00
O1031  O     0.07452   0.79917   0.73607   0.00000  Uiso   1.00
O1032  O     0.26785   0.85845   0.71805   0.00000  Uiso   1.00
O1033  O     0.06990   0.85627   0.77820   0.00000  Uiso   1.00
O1034  O     0.25440   0.81944   0.76767   0.00000  Uiso   1.00
O1035  O     0.13800   0.73570   0.73607   0.00000  Uiso   1.00
O1036  O     0.20437   0.92193   0.71805   0.00000  Uiso   1.00
Zn1037 Zn    0.19244   0.80756   0.78277   0.00000  Uiso   1.00
Zn1038 Zn    0.13459   0.79044   0.72257   0.00000  Uiso   1.00
Zn1039 Zn    0.21166   0.86331   0.71188   0.00000  Uiso   1.00
Zn1040 Zn    0.12798   0.87202   0.78277   0.00000  Uiso   1.00
C1041  C     0.38618   0.82682   0.75855   0.00000  Uiso   1.00
C1042  C     0.54121   0.80802   0.95961   0.00000  Uiso   1.00
C1043  C     0.56248   0.78933   0.97967   0.00000  Uiso   1.00
C1044  C     0.61435   0.84015   0.74126   0.00000  Uiso   1.00
C1045  C     0.55137   0.79438   0.52039   0.00000  Uiso   1.00
C1046  C     0.51823   0.81922   0.54188   0.00000  Uiso   1.00
C1047  C     0.57369   0.77515   0.53983   0.00000  Uiso   1.00
C1048  C     0.56373   0.78039   0.58051   0.00000  Uiso   1.00
C1049  C     0.50796   0.82286   0.58316   0.00000  Uiso   1.00
C1050  C     0.66038   0.84221   0.73763   0.00000  Uiso   1.00
C1051  C     0.34085   0.82419   0.76284   0.00000  Uiso   1.00
C1052  C     0.44089   0.89123   0.92009   0.00000  Uiso   1.00
C1053  C     0.51478   0.98905   0.73778   0.00000  Uiso   1.00
C1054  C     0.48530   0.67878   0.76184   0.00000  Uiso   1.00
C1055  C     0.48893   0.72293   0.75920   0.00000  Uiso   1.00
C1056  C     0.51031   0.94435   0.74128   0.00000  Uiso   1.00
C1057  C     0.52178   0.81186   0.64421   0.00000  Uiso   1.00
C1058  C     0.47883   0.85442   0.85604   0.00000  Uiso   1.00
C1059  C     0.47017   0.86335   0.89881   0.00000  Uiso   1.00
C1060  C     0.53082   0.80410   0.60197   0.00000  Uiso   1.00
C1061  C     0.43288   0.89880   0.96062   0.00000  Uiso   1.00
C1062  C     0.49163   0.84355   0.91842   0.00000  Uiso   1.00
C1063  C     0.48514   0.85159   0.95923   0.00000  Uiso   1.00
C1064  C     0.45449   0.87908   0.98032   0.00000  Uiso   1.00
C1065  C     0.50769   0.83274   0.97964   0.00000  Uiso   1.00
C1066  C     0.49693   0.83952   0.52140   0.00000  Uiso   1.00
C1067  C     0.46591   0.86700   0.54116   0.00000  Uiso   1.00
C1068  C     0.44550   0.88659   0.52090   0.00000  Uiso   1.00
H1069  H     0.42220   0.90765   0.53724   0.00000  Uiso   1.00
H1070  H     0.45705   0.87492   0.57242   0.00000  Uiso   1.00
H1071  H     0.55287   0.80317   0.92816   0.00000  Uiso   1.00
H1072  H     0.35322   0.84949   0.67999   0.00000  Uiso   1.00
H1073  H     0.35082   0.89452   0.71005   0.00000  Uiso   1.00
H1074  H     0.65105   0.81808   0.82097   0.00000  Uiso   1.00
H1075  H     0.65307   0.77251   0.79177   0.00000  Uiso   1.00
H1076  H     0.57885   0.66880   0.71393   0.00000  Uiso   1.00
H1077  H     0.54961   0.99297   0.68125   0.00000  Uiso   1.00
H1078  H     0.59921   0.75646   0.52350   0.00000  Uiso   1.00
H1079  H     0.45789   0.99855   0.78377   0.00000  Uiso   1.00
H1080  H     0.48268   0.84024   0.60177   0.00000  Uiso   1.00
H1081  H     0.58170   0.76612   0.59525   0.00000  Uiso   1.00
H1082  H     0.58808   0.77083   0.96306   0.00000  Uiso   1.00
H1083  H     0.40968   0.92008   0.97661   0.00000  Uiso   1.00
H1084  H     0.42387   0.90687   0.90551   0.00000  Uiso   1.00
H1085  H     0.51264   0.82133   0.90108   0.00000  Uiso   1.00
N1086  N     0.35769   0.86362   0.70674   0.00000  Uiso   1.00
N1087  N     0.64541   0.80312   0.79490   0.00000  Uiso   1.00
N1088  N     0.55049   0.67456   0.70882   0.00000  Uiso   1.00
O1089  O     0.50000   0.83333   0.75000   0.00000  Uiso   1.00
O1090  O     0.49027   0.79060   0.66625   0.00000  Uiso   1.00
O1091  O     0.46020   0.87313   0.83749   0.00000  Uiso   1.00
O1092  O     0.54421   0.84159   0.65877   0.00000  Uiso   1.00
O1093  O     0.50532   0.82802   0.83749   0.00000  Uiso   1.00
O1094  O     0.51182   0.74768   0.77820   0.00000  Uiso   1.00
O1095  O     0.47914   0.92803   0.76767   0.00000  Uiso   1.00
O1096  O     0.40785   0.79917   0.73607   0.00000  Uiso   1.00
O1097  O     0.60119   0.85845   0.71805   0.00000  Uiso   1.00
O1098  O     0.40323   0.85627   0.77820   0.00000  Uiso   1.00
O1099  O     0.58773   0.81944   0.76767   0.00000  Uiso   1.00
O1100  O     0.47133   0.73570   0.73607   0.00000  Uiso   1.00
O1101  O     0.53771   0.92193   0.71805   0.00000  Uiso   1.00
Zn1102 Zn    0.52577   0.80756   0.78277   0.00000  Uiso   1.00
Zn1103 Zn    0.46792   0.79044   0.72257   0.00000  Uiso   1.00
Zn1104 Zn    0.54500   0.86331   0.71188   0.00000  Uiso   1.00
Zn1105 Zn    0.46131   0.87202   0.78277   0.00000  Uiso   1.00
C1106  C     0.71952   0.82682   0.75855   0.00000  Uiso   1.00
C1107  C     0.87454   0.80802   0.95961   0.00000  Uiso   1.00
C1108  C     0.89581   0.78933   0.97967   0.00000  Uiso   1.00
C1109  C     0.94768   0.84015   0.74126   0.00000  Uiso   1.00
C1110  C     0.88470   0.79438   0.52039   0.00000  Uiso   1.00
C1111  C     0.85157   0.81922   0.54188   0.00000  Uiso   1.00
C1112  C     0.90702   0.77515   0.53983   0.00000  Uiso   1.00
C1113  C     0.89707   0.78039   0.58051   0.00000  Uiso   1.00
C1114  C     0.84129   0.82286   0.58316   0.00000  Uiso   1.00
C1115  C     0.99372   0.84221   0.73763   0.00000  Uiso   1.00
C1116  C     0.67418   0.82419   0.76284   0.00000  Uiso   1.00
C1117  C     0.77422   0.89123   0.92009   0.00000  Uiso   1.00
C1118  C     0.84811   0.98905   0.73778   0.00000  Uiso   1.00
C1119  C     0.81863   0.67878   0.76184   0.00000  Uiso   1.00
C1120  C     0.82227   0.72293   0.75920   0.00000  Uiso   1.00
C1121  C     0.84364   0.94435   0.74128   0.00000  Uiso   1.00
C1122  C     0.85511   0.81186   0.64421   0.00000  Uiso   1.00
C1123  C     0.81216   0.85442   0.85604   0.00000  Uiso   1.00
C1124  C     0.80351   0.86335   0.89881   0.00000  Uiso   1.00
C1125  C     0.86416   0.80410   0.60197   0.00000  Uiso   1.00
C1126  C     0.76621   0.89880   0.96062   0.00000  Uiso   1.00
C1127  C     0.82496   0.84355   0.91842   0.00000  Uiso   1.00
C1128  C     0.81847   0.85159   0.95923   0.00000  Uiso   1.00
C1129  C     0.78782   0.87908   0.98032   0.00000  Uiso   1.00
C1130  C     0.84102   0.83274   0.97964   0.00000  Uiso   1.00
C1131  C     0.83027   0.83952   0.52140   0.00000  Uiso   1.00
C1132  C     0.79924   0.86700   0.54116   0.00000  Uiso   1.00
C1133  C     0.77884   0.88659   0.52090   0.00000  Uiso   1.00
H1134  H     0.75553   0.90765   0.53724   0.00000  Uiso   1.00
H1135  H     0.79038   0.87492   0.57242   0.00000  Uiso   1.00
H1136  H     0.88620   0.80317   0.92816   0.00000  Uiso   1.00
H1137  H     0.68656   0.84949   0.67999   0.00000  Uiso   1.00
H1138  H     0.68416   0.89452   0.71005   0.00000  Uiso   1.00
H1139  H     0.98438   0.81808   0.82097   0.00000  Uiso   1.00
H1140  H     0.98640   0.77251   0.79177   0.00000  Uiso   1.00
H1141  H     0.91219   0.66880   0.71393   0.00000  Uiso   1.00
H1142  H     0.88294   0.99297   0.68125   0.00000  Uiso   1.00
H1143  H     0.93255   0.75646   0.52350   0.00000  Uiso   1.00
H1144  H     0.79122   0.99855   0.78377   0.00000  Uiso   1.00
H1145  H     0.81601   0.84024   0.60177   0.00000  Uiso   1.00
H1146  H     0.91504   0.76612   0.59525   0.00000  Uiso   1.00
H1147  H     0.92141   0.77083   0.96306   0.00000  Uiso   1.00
H1148  H     0.74301   0.92008   0.97661   0.00000  Uiso   1.00
H1149  H     0.75720   0.90687   0.90551   0.00000  Uiso   1.00
H1150  H     0.84598   0.82133   0.90108   0.00000  Uiso   1.00
N1151  N     0.69102   0.86362   0.70674   0.00000  Uiso   1.00
N1152  N     0.97874   0.80312   0.79490   0.00000  Uiso   1.00
N1153  N     0.88382   0.67456   0.70882   0.00000  Uiso   1.00
O1154  O     0.83333   0.83333   0.75000   0.00000  Uiso   1.00
O1155  O     0.82360   0.79060   0.66625   0.00000  Uiso   1.00
O1156  O     0.79354   0.87313   0.83749   0.00000  Uiso   1.00
O1157  O     0.87755   0.84159   0.65877   0.00000  Uiso   1.00
O1158  O     0.83865   0.82802   0.83749   0.00000  Uiso   1.00
O1159  O     0.84515   0.74768   0.77820   0.00000  Uiso   1.00
O1160  O     0.81247   0.92803   0.76767   0.00000  Uiso   1.00
O1161  O     0.74119   0.79917   0.73607   0.00000  Uiso   1.00
O1162  O     0.93452   0.85845   0.71805   0.00000  Uiso   1.00
O1163  O     0.73656   0.85627   0.77820   0.00000  Uiso   1.00
O1164  O     0.92106   0.81944   0.76767   0.00000  Uiso   1.00
O1165  O     0.80467   0.73570   0.73607   0.00000  Uiso   1.00
O1166  O     0.87104   0.92193   0.71805   0.00000  Uiso   1.00
Zn1167 Zn    0.85910   0.80756   0.78277   0.00000  Uiso   1.00
Zn1168 Zn    0.80125   0.79044   0.72257   0.00000  Uiso   1.00
Zn1169 Zn    0.87833   0.86331   0.71188   0.00000  Uiso   1.00
Zn1170 Zn    0.79465   0.87202   0.78277   0.00000  Uiso   1.00
loop_
_geom_bond_atom_site_label_1
_geom_bond_atom_site_label_2
_geom_bond_distance
_geom_bond_site_symmetry_2
_ccdc_geom_bond_type
C1     C11     1.437   .     S
C1     O56     1.270   .     A
C1     O58     1.269   .     A
C2     C3      1.384   .     A
C2     C25     1.416   .     A
C2     H31     1.076   .     S
C3     H42     1.084   .     S
C3     C590    1.389   .     S
C4     O57     1.287   .     A
C4     O59     1.275   .     A
C4     C10     1.466   .     S
C5     C6      1.421   .     A
C5     C7      1.403   .     A
C5     C588    1.389   1_554 S
C6     C9      1.410   .     A
C6     C26     1.427   .     A
C7     C8      1.389   .     A
C7     H38     1.084   .     S
C8     C20     1.394   .     A
C8     H41     1.083   .     S
C9     H40     1.077   .     S
C9     C20     1.391   .     A
C10    C76     1.353   .     S
C10    N111    1.438   .     S
C11    C140    1.353   1_455 S
C11    N177    1.437   1_455 S
C12    H44     1.083   .     S
C12    C19     1.400   .     A
C12    C21     1.391   .     A
C13    C16     1.458   .     S
C13    C209    1.336   .     S
C13    N243    1.438   .     S
C14    C15     1.437   .     S
C14    C403    1.336   1_545 S
C14    H429    1.086   1_545 S
C15    O60     1.281   .     A
C15    O54     1.281   .     A
C16    O55     1.275   .     A
C16    O61     1.271   .     A
C17    O50     1.275   .     A
C17    O52     1.273   .     A
C17    C20     1.448   .     S
C18    O51     1.283   .     A
C18    C19     1.470   .     S
C18    O53     1.287   .     A
C19    C22     1.398   .     A
C21    C24     1.403   .     A
C21    H43     1.084   .     S
C22    H45     1.074   .     S
C22    C23     1.408   .     A
C23    C24     1.418   .     A
C23    C25     1.426   .     A
C24    C613    1.390   .     S
C25    C611    1.427   .     S
C26    C27     1.416   .     A
C26    C610    1.427   1_554 S
C27    C28     1.386   .     A
C27    H30     1.076   .     S
C28    H29     1.084   .     S
C28    C609    1.390   1_554 S
H32    N46     1.045   .     S
H33    N46     1.045   .     S
H34    N47     1.046   .     S
H35    N47     1.046   .     S
H36    N48     1.045   .     S
H37    N243    1.045   .     S
H39    C209    1.086   .     S
N46    C140    1.438   1_455 S
N47    C76     1.437   .     S
N48    C403    1.438   1_545 S
N48    H427    1.045   1_545 S
O49    Zn63    1.951   .     S
O49    Zn64    1.934   .     S
O49    Zn65    1.938   .     S
O49    Zn62    1.966   .     S
O50    Zn63    1.935   .     S
O51    Zn65    1.947   .     S
O52    Zn64    1.943   .     S
O53    Zn62    1.933   .     S
O54    Zn62    1.928   .     S
O55    Zn65    1.929   .     S
O56    Zn63    1.937   .     S
O57    Zn64    1.948   .     S
O58    Zn65    1.943   .     S
O59    Zn62    1.932   .     S
O60    Zn63    1.935   .     S
O61    Zn64    1.931   .     S
C66    C76     1.437   .     S
C66    O121    1.270   .     A
C66    O123    1.269   .     A
C67    C68     1.384   .     A
C67    C90     1.416   .     A
C67    H96     1.076   .     S
C68    H107    1.084   .     S
C68    C655    1.389   .     S
C69    O122    1.287   .     A
C69    O124    1.275   .     A
C69    C75     1.466   .     S
C70    C71     1.421   .     A
C70    C72     1.403   .     A
C70    C653    1.389   1_554 S
C71    C74     1.410   .     A
C71    C91     1.427   .     A
C72    C73     1.389   .     A
C72    H103    1.084   .     S
C73    C85     1.394   .     A
C73    H106    1.083   .     S
C74    H105    1.077   .     S
C74    C85     1.391   .     A
C75    C141    1.353   .     S
C75    N176    1.438   .     S
C77    H109    1.083   .     S
C77    C84     1.400   .     A
C77    C86     1.391   .     A
C78    C81     1.458   .     S
C78    C274    1.336   .     S
C78    N308    1.438   .     S
C79    C80     1.437   .     S
C79    C468    1.336   1_545 S
C79    H494    1.086   1_545 S
C80    O125    1.281   .     A
C80    O119    1.281   .     A
C81    O120    1.275   .     A
C81    O126    1.271   .     A
C82    O115    1.275   .     A
C82    O117    1.273   .     A
C82    C85     1.448   .     S
C83    O116    1.283   .     A
C83    C84     1.470   .     S
C83    O118    1.287   .     A
C84    C87     1.398   .     A
C86    C89     1.403   .     A
C86    H108    1.084   .     S
C87    H110    1.074   .     S
C87    C88     1.408   .     A
C88    C89     1.418   .     A
C88    C90     1.426   .     A
C89    C678    1.390   .     S
C90    C676    1.427   .     S
C91    C92     1.416   .     A
C91    C675    1.427   1_554 S
C92    C93     1.386   .     A
C92    H95     1.076   .     S
C93    H94     1.084   .     S
C93    C674    1.390   1_554 S
H97    N111    1.045   .     S
H98    N111    1.045   .     S
H99    N112    1.046   .     S
H100   N112    1.046   .     S
H101   N113    1.045   .     S
H102   N308    1.045   .     S
H104   C274    1.086   .     S
N112   C141    1.437   .     S
N113   C468    1.438   1_545 S
N113   H492    1.045   1_545 S
O114   Zn128   1.951   .     S
O114   Zn129   1.934   .     S
O114   Zn130   1.938   .     S
O114   Zn127   1.966   .     S
O115   Zn128   1.935   .     S
O116   Zn130   1.947   .     S
O117   Zn129   1.943   .     S
O118   Zn127   1.933   .     S
O119   Zn127   1.928   .     S
O120   Zn130   1.929   .     S
O121   Zn128   1.937   .     S
O122   Zn129   1.948   .     S
O123   Zn130   1.943   .     S
O124   Zn127   1.932   .     S
O125   Zn128   1.935   .     S
O126   Zn129   1.931   .     S
C131   C141    1.437   .     S
C131   O186    1.270   .     A
C131   O188    1.269   .     A
C132   C133    1.384   .     A
C132   C155    1.416   .     A
C132   H161    1.076   .     S
C133   H172    1.084   .     S
C133   C720    1.389   .     S
C134   O187    1.287   .     A
C134   O189    1.275   .     A
C134   C140    1.466   .     S
C135   C136    1.421   .     A
C135   C137    1.403   .     A
C135   C718    1.389   1_554 S
C136   C139    1.410   .     A
C136   C156    1.427   .     A
C137   C138    1.389   .     A
C137   H168    1.084   .     S
C138   C150    1.394   .     A
C138   H171    1.083   .     S
C139   H170    1.077   .     S
C139   C150    1.391   .     A
C140   C11     1.353   1_655 S
C140   N46     1.438   1_655 S
C142   H174    1.083   .     S
C142   C149    1.400   .     A
C142   C151    1.391   .     A
C143   C146    1.458   .     S
C143   C339    1.336   .     S
C143   N373    1.438   .     S
C144   C145    1.437   .     S
C144   C533    1.336   1_545 S
C144   H559    1.086   1_545 S
C145   O190    1.281   .     A
C145   O184    1.281   .     A
C146   O185    1.275   .     A
C146   O191    1.271   .     A
C147   O180    1.275   .     A
C147   O182    1.273   .     A
C147   C150    1.448   .     S
C148   O181    1.283   .     A
C148   C149    1.470   .     S
C148   O183    1.287   .     A
C149   C152    1.398   .     A
C151   C154    1.403   .     A
C151   H173    1.084   .     S
C152   H175    1.074   .     S
C152   C153    1.408   .     A
C153   C154    1.418   .     A
C153   C155    1.426   .     A
C154   C743    1.390   .     S
C155   C741    1.427   .     S
C156   C157    1.416   .     A
C156   C740    1.427   1_554 S
C157   C158    1.386   .     A
C157   H160    1.076   .     S
C158   H159    1.084   .     S
C158   C739    1.390   1_554 S
H162   N176    1.045   .     S
H163   N176    1.045   .     S
H164   N177    1.046   .     S
H165   N177    1.046   .     S
H166   N178    1.045   .     S
H167   N373    1.045   .     S
H169   C339    1.086   .     S
N177   C11     1.437   1_655 S
N178   C533    1.438   1_545 S
N178   H557    1.045   1_545 S
O179   Zn193   1.951   .     S
O179   Zn194   1.934   .     S
O179   Zn195   1.938   .     S
O179   Zn192   1.966   .     S
O180   Zn193   1.935   .     S
O181   Zn195   1.947   .     S
O182   Zn194   1.943   .     S
O183   Zn192   1.933   .     S
O184   Zn192   1.928   .     S
O185   Zn195   1.929   .     S
O186   Zn193   1.937   .     S
O187   Zn194   1.948   .     S
O188   Zn195   1.943   .     S
O189   Zn192   1.932   .     S
O190   Zn193   1.935   .     S
O191   Zn194   1.931   .     S
C196   C206    1.437   .     S
C196   O251    1.270   .     A
C196   O253    1.269   .     A
C197   C198    1.384   .     A
C197   C220    1.416   .     A
C197   H226    1.076   .     S
C198   H237    1.084   .     S
C198   C785    1.389   .     S
C199   O252    1.287   .     A
C199   O254    1.275   .     A
C199   C205    1.466   .     S
C200   C201    1.421   .     A
C200   C202    1.403   .     A
C200   C783    1.389   1_554 S
C201   C204    1.410   .     A
C201   C221    1.427   .     A
C202   C203    1.389   .     A
C202   H233    1.084   .     S
C203   C215    1.394   .     A
C203   H236    1.083   .     S
C204   H235    1.077   .     S
C204   C215    1.391   .     A
C205   C271    1.353   .     S
C205   N306    1.438   .     S
C206   C335    1.353   1_455 S
C206   N372    1.437   1_455 S
C207   H239    1.083   .     S
C207   C214    1.400   .     A
C207   C216    1.391   .     A
C208   C211    1.458   .     S
C208   C404    1.336   .     S
C208   N438    1.438   .     S
C209   C210    1.437   .     S
C210   O255    1.281   .     A
C210   O249    1.281   .     A
C211   O250    1.275   .     A
C211   O256    1.271   .     A
C212   O245    1.275   .     A
C212   O247    1.273   .     A
C212   C215    1.448   .     S
C213   O246    1.283   .     A
C213   C214    1.470   .     S
C213   O248    1.287   .     A
C214   C217    1.398   .     A
C216   C219    1.403   .     A
C216   H238    1.084   .     S
C217   H240    1.074   .     S
C217   C218    1.408   .     A
C218   C219    1.418   .     A
C218   C220    1.426   .     A
C219   C808    1.390   .     S
C220   C806    1.427   .     S
C221   C222    1.416   .     A
C221   C805    1.427   1_554 S
C222   C223    1.386   .     A
C222   H225    1.076   .     S
C223   H224    1.084   .     S
C223   C804    1.390   1_554 S
H227   N241    1.045   .     S
H228   N241    1.045   .     S
H229   N242    1.046   .     S
H230   N242    1.046   .     S
H231   N243    1.045   .     S
H232   N438    1.045   .     S
H234   C404    1.086   .     S
N241   C335    1.438   1_455 S
N242   C271    1.437   .     S
O244   Zn258   1.951   .     S
O244   Zn259   1.934   .     S
O244   Zn260   1.938   .     S
O244   Zn257   1.966   .     S
O245   Zn258   1.935   .     S
O246   Zn260   1.947   .     S
O247   Zn259   1.943   .     S
O248   Zn257   1.933   .     S
O249   Zn257   1.928   .     S
O250   Zn260   1.929   .     S
O251   Zn258   1.937   .     S
O252   Zn259   1.948   .     S
O253   Zn260   1.943   .     S
O254   Zn257   1.932   .     S
O255   Zn258   1.935   .     S
O256   Zn259   1.931   .     S
C261   C271    1.437   .     S
C261   O316    1.270   .     A
C261   O318    1.269   .     A
C262   C263    1.384   .     A
C262   C285    1.416   .     A
C262   H291    1.076   .     S
C263   H302    1.084   .     S
C263   C850    1.389   .     S
C264   O317    1.287   .     A
C264   O319    1.275   .     A
C264   C270    1.466   .     S
C265   C266    1.421   .     A
C265   C267    1.403   .     A
C265   C848    1.389   1_554 S
C266   C269    1.410   .     A
C266   C286    1.427   .     A
C267   C268    1.389   .     A
C267   H298    1.084   .     S
C268   C280    1.394   .     A
C268   H301    1.083   .     S
C269   H300    1.077   .     S
C269   C280    1.391   .     A
C270   C336    1.353   .     S
C270   N371    1.438   .     S
C272   H304    1.083   .     S
C272   C279    1.400   .     A
C272   C281    1.391   .     A
C273   C276    1.458   .     S
C273   C469    1.336   .     S
C273   N503    1.438   .     S
C274   C275    1.437   .     S
C275   O320    1.281   .     A
C275   O314    1.281   .     A
C276   O315    1.275   .     A
C276   O321    1.271   .     A
C277   O310    1.275   .     A
C277   O312    1.273   .     A
C277   C280    1.448   .     S
C278   O311    1.283   .     A
C278   C279    1.470   .     S
C278   O313    1.287   .     A
C279   C282    1.398   .     A
C281   C284    1.403   .     A
C281   H303    1.084   .     S
C282   H305    1.074   .     S
C282   C283    1.408   .     A
C283   C284    1.418   .     A
C283   C285    1.426   .     A
C284   C873    1.390   .     S
C285   C871    1.427   .     S
C286   C287    1.416   .     A
C286   C870    1.427   1_554 S
C287   C288    1.386   .     A
C287   H290    1.076   .     S
C288   H289    1.084   .     S
C288   C869    1.390   1_554 S
H292   N306    1.045   .     S
H293   N306    1.045   .     S
H294   N307    1.046   .     S
H295   N307    1.046   .     S
H296   N308    1.045   .     S
H297   N503    1.045   .     S
H299   C469    1.086   .     S
N307   C336    1.437   .     S
O309   Zn323   1.951   .     S
O309   Zn324   1.934   .     S
O309   Zn325   1.938   .     S
O309   Zn322   1.966   .     S
O310   Zn323   1.935   .     S
O311   Zn325   1.947   .     S
O312   Zn324   1.943   .     S
O313   Zn322   1.933   .     S
O314   Zn322   1.928   .     S
O315   Zn325   1.929   .     S
O316   Zn323   1.937   .     S
O317   Zn324   1.948   .     S
O318   Zn325   1.943   .     S
O319   Zn322   1.932   .     S
O320   Zn323   1.935   .     S
O321   Zn324   1.931   .     S
C326   C336    1.437   .     S
C326   O381    1.270   .     A
C326   O383    1.269   .     A
C327   C328    1.384   .     A
C327   C350    1.416   .     A
C327   H356    1.076   .     S
C328   H367    1.084   .     S
C328   C915    1.389   .     S
C329   O382    1.287   .     A
C329   O384    1.275   .     A
C329   C335    1.466   .     S
C330   C331    1.421   .     A
C330   C332    1.403   .     A
C330   C913    1.389   1_554 S
C331   C334    1.410   .     A
C331   C351    1.427   .     A
C332   C333    1.389   .     A
C332   H363    1.084   .     S
C333   C345    1.394   .     A
C333   H366    1.083   .     S
C334   H365    1.077   .     S
C334   C345    1.391   .     A
C335   C206    1.353   1_655 S
C335   N241    1.438   1_655 S
C337   H369    1.083   .     S
C337   C344    1.400   .     A
C337   C346    1.391   .     A
C338   C341    1.458   .     S
C338   C534    1.336   .     S
C338   N568    1.438   .     S
C339   C340    1.437   .     S
C340   O385    1.281   .     A
C340   O379    1.281   .     A
C341   O380    1.275   .     A
C341   O386    1.271   .     A
C342   O375    1.275   .     A
C342   O377    1.273   .     A
C342   C345    1.448   .     S
C343   O376    1.283   .     A
C343   C344    1.470   .     S
C343   O378    1.287   .     A
C344   C347    1.398   .     A
C346   C349    1.403   .     A
C346   H368    1.084   .     S
C347   H370    1.074   .     S
C347   C348    1.408   .     A
C348   C349    1.418   .     A
C348   C350    1.426   .     A
C349   C938    1.390   .     S
C350   C936    1.427   .     S
C351   C352    1.416   .     A
C351   C935    1.427   1_554 S
C352   C353    1.386   .     A
C352   H355    1.076   .     S
C353   H354    1.084   .     S
C353   C934    1.390   1_554 S
H357   N371    1.045   .     S
H358   N371    1.045   .     S
H359   N372    1.046   .     S
H360   N372    1.046   .     S
H361   N373    1.045   .     S
H362   N568    1.045   .     S
H364   C534    1.086   .     S
N372   C206    1.437   1_655 S
O374   Zn388   1.951   .     S
O374   Zn389   1.934   .     S
O374   Zn390   1.938   .     S
O374   Zn387   1.966   .     S
O375   Zn388   1.935   .     S
O376   Zn390   1.947   .     S
O377   Zn389   1.943   .     S
O378   Zn387   1.933   .     S
O379   Zn387   1.928   .     S
O380   Zn390   1.929   .     S
O381   Zn388   1.937   .     S
O382   Zn389   1.948   .     S
O383   Zn390   1.943   .     S
O384   Zn387   1.932   .     S
O385   Zn388   1.935   .     S
O386   Zn389   1.931   .     S
C391   C401    1.437   .     S
C391   O446    1.270   .     A
C391   O448    1.269   .     A
C392   C393    1.384   .     A
C392   C415    1.416   .     A
C392   H421    1.076   .     S
C393   H432    1.084   .     S
C393   C980    1.389   .     S
C394   O447    1.287   .     A
C394   O449    1.275   .     A
C394   C400    1.466   .     S
C395   C396    1.421   .     A
C395   C397    1.403   .     A
C395   C978    1.389   1_554 S
C396   C399    1.410   .     A
C396   C416    1.427   .     A
C397   C398    1.389   .     A
C397   H428    1.084   .     S
C398   C410    1.394   .     A
C398   H431    1.083   .     S
C399   H430    1.077   .     S
C399   C410    1.391   .     A
C400   C466    1.353   .     S
C400   N501    1.438   .     S
C401   C530    1.353   1_455 S
C401   N567    1.437   1_455 S
C402   H434    1.083   .     S
C402   C409    1.400   .     A
C402   C411    1.391   .     A
C403   C406    1.458   .     S
C403   C14     1.336   1_565 S
C403   N48     1.438   1_565 S
C404   C405    1.437   .     S
C405   O450    1.281   .     A
C405   O444    1.281   .     A
C406   O445    1.275   .     A
C406   O451    1.271   .     A
C407   O440    1.275   .     A
C407   O442    1.273   .     A
C407   C410    1.448   .     S
C408   O441    1.283   .     A
C408   C409    1.470   .     S
C408   O443    1.287   .     A
C409   C412    1.398   .     A
C411   C414    1.403   .     A
C411   H433    1.084   .     S
C412   H435    1.074   .     S
C412   C413    1.408   .     A
C413   C414    1.418   .     A
C413   C415    1.426   .     A
C414   C1003   1.390   .     S
C415   C1001   1.427   .     S
C416   C417    1.416   .     A
C416   C1000   1.427   1_554 S
C417   C418    1.386   .     A
C417   H420    1.076   .     S
C418   H419    1.084   .     S
C418   C999    1.390   1_554 S
H422   N436    1.045   .     S
H423   N436    1.045   .     S
H424   N437    1.046   .     S
H425   N437    1.046   .     S
H426   N438    1.045   .     S
H427   N48     1.045   1_565 S
H429   C14     1.086   1_565 S
N436   C530    1.438   1_455 S
N437   C466    1.437   .     S
O439   Zn453   1.951   .     S
O439   Zn454   1.934   .     S
O439   Zn455   1.938   .     S
O439   Zn452   1.966   .     S
O440   Zn453   1.935   .     S
O441   Zn455   1.947   .     S
O442   Zn454   1.943   .     S
O443   Zn452   1.933   .     S
O444   Zn452   1.928   .     S
O445   Zn455   1.929   .     S
O446   Zn453   1.937   .     S
O447   Zn454   1.948   .     S
O448   Zn455   1.943   .     S
O449   Zn452   1.932   .     S
O450   Zn453   1.935   .     S
O451   Zn454   1.931   .     S
C456   C466    1.437   .     S
C456   O511    1.270   .     A
C456   O513    1.269   .     A
C457   C458    1.384   .     A
C457   C480    1.416   .     A
C457   H486    1.076   .     S
C458   H497    1.084   .     S
C458   C1045   1.389   .     S
C459   O512    1.287   .     A
C459   O514    1.275   .     A
C459   C465    1.466   .     S
C460   C461    1.421   .     A
C460   C462    1.403   .     A
C460   C1043   1.389   1_554 S
C461   C464    1.410   .     A
C461   C481    1.427   .     A
C462   C463    1.389   .     A
C462   H493    1.084   .     S
C463   C475    1.394   .     A
C463   H496    1.083   .     S
C464   H495    1.077   .     S
C464   C475    1.391   .     A
C465   C531    1.353   .     S
C465   N566    1.438   .     S
C467   H499    1.083   .     S
C467   C474    1.400   .     A
C467   C476    1.391   .     A
C468   C471    1.458   .     S
C468   C79     1.336   1_565 S
C468   N113    1.438   1_565 S
C469   C470    1.437   .     S
C470   O515    1.281   .     A
C470   O509    1.281   .     A
C471   O510    1.275   .     A
C471   O516    1.271   .     A
C472   O505    1.275   .     A
C472   O507    1.273   .     A
C472   C475    1.448   .     S
C473   O506    1.283   .     A
C473   C474    1.470   .     S
C473   O508    1.287   .     A
C474   C477    1.398   .     A
C476   C479    1.403   .     A
C476   H498    1.084   .     S
C477   H500    1.074   .     S
C477   C478    1.408   .     A
C478   C479    1.418   .     A
C478   C480    1.426   .     A
C479   C1068   1.390   .     S
C480   C1066   1.427   .     S
C481   C482    1.416   .     A
C481   C1065   1.427   1_554 S
C482   C483    1.386   .     A
C482   H485    1.076   .     S
C483   H484    1.084   .     S
C483   C1064   1.390   1_554 S
H487   N501    1.045   .     S
H488   N501    1.045   .     S
H489   N502    1.046   .     S
H490   N502    1.046   .     S
H491   N503    1.045   .     S
H492   N113    1.045   1_565 S
H494   C79     1.086   1_565 S
N502   C531    1.437   .     S
O504   Zn518   1.951   .     S
O504   Zn519   1.934   .     S
O504   Zn520   1.938   .     S
O504   Zn517   1.966   .     S
O505   Zn518   1.935   .     S
O506   Zn520   1.947   .     S
O507   Zn519   1.943   .     S
O508   Zn517   1.933   .     S
O509   Zn517   1.928   .     S
O510   Zn520   1.929   .     S
O511   Zn518   1.937   .     S
O512   Zn519   1.948   .     S
O513   Zn520   1.943   .     S
O514   Zn517   1.932   .     S
O515   Zn518   1.935   .     S
O516   Zn519   1.931   .     S
C521   C531    1.437   .     S
C521   O576    1.270   .     A
C521   O578    1.269   .     A
C522   C523    1.384   .     A
C522   C545    1.416   .     A
C522   H551    1.076   .     S
C523   H562    1.084   .     S
C523   C1110   1.389   .     S
C524   O577    1.287   .     A
C524   O579    1.275   .     A
C524   C530    1.466   .     S
C525   C526    1.421   .     A
C525   C527    1.403   .     A
C525   C1108   1.389   1_554 S
C526   C529    1.410   .     A
C526   C546    1.427   .     A
C527   C528    1.389   .     A
C527   H558    1.084   .     S
C528   C540    1.394   .     A
C528   H561    1.083   .     S
C529   H560    1.077   .     S
C529   C540    1.391   .     A
C530   C401    1.353   1_655 S
C530   N436    1.438   1_655 S
C532   H564    1.083   .     S
C532   C539    1.400   .     A
C532   C541    1.391   .     A
C533   C536    1.458   .     S
C533   C144    1.336   1_565 S
C533   N178    1.438   1_565 S
C534   C535    1.437   .     S
C535   O580    1.281   .     A
C535   O574    1.281   .     A
C536   O575    1.275   .     A
C536   O581    1.271   .     A
C537   O570    1.275   .     A
C537   O572    1.273   .     A
C537   C540    1.448   .     S
C538   O571    1.283   .     A
C538   C539    1.470   .     S
C538   O573    1.287   .     A
C539   C542    1.398   .     A
C541   C544    1.403   .     A
C541   H563    1.084   .     S
C542   H565    1.074   .     S
C542   C543    1.408   .     A
C543   C544    1.418   .     A
C543   C545    1.426   .     A
C544   C1133   1.390   .     S
C545   C1131   1.427   .     S
C546   C547    1.416   .     A
C546   C1130   1.427   1_554 S
C547   C548    1.386   .     A
C547   H550    1.076   .     S
C548   H549    1.084   .     S
C548   C1129   1.390   1_554 S
H552   N566    1.045   .     S
H553   N566    1.045   .     S
H554   N567    1.046   .     S
H555   N567    1.046   .     S
H556   N568    1.045   .     S
H557   N178    1.045   1_565 S
H559   C144    1.086   1_565 S
N567   C401    1.437   1_655 S
O569   Zn583   1.951   .     S
O569   Zn584   1.934   .     S
O569   Zn585   1.938   .     S
O569   Zn582   1.966   .     S
O570   Zn583   1.935   .     S
O571   Zn585   1.947   .     S
O572   Zn584   1.943   .     S
O573   Zn582   1.933   .     S
O574   Zn582   1.928   .     S
O575   Zn585   1.929   .     S
O576   Zn583   1.937   .     S
O577   Zn584   1.948   .     S
O578   Zn585   1.943   .     S
O579   Zn582   1.932   .     S
O580   Zn583   1.935   .     S
O581   Zn584   1.931   .     S
C586   C596    1.437   .     S
C586   O641    1.270   .     A
C586   O643    1.269   .     A
C587   C588    1.384   .     A
C587   C610    1.416   .     A
C587   H616    1.076   .     S
C588   H627    1.084   .     S
C588   C5      1.389   1_556 S
C589   O642    1.287   .     A
C589   O644    1.275   .     A
C589   C595    1.466   .     S
C590   C591    1.421   .     A
C590   C592    1.403   .     A
C591   C594    1.410   .     A
C591   C611    1.427   .     A
C592   C593    1.389   .     A
C592   H623    1.084   .     S
C593   C605    1.394   .     A
C593   H626    1.083   .     S
C594   H625    1.077   .     S
C594   C605    1.391   .     A
C595   C661    1.353   .     S
C595   N696    1.438   .     S
C596   C725    1.353   1_455 S
C596   N762    1.437   1_455 S
C597   H629    1.083   .     S
C597   C604    1.400   .     A
C597   C606    1.391   .     A
C598   C601    1.458   .     S
C598   C794    1.336   .     S
C598   N828    1.438   .     S
C599   C600    1.437   .     S
C599   C988    1.336   1_545 S
C599   H1014   1.086   1_545 S
C600   O645    1.281   .     A
C600   O639    1.281   .     A
C601   O640    1.275   .     A
C601   O646    1.271   .     A
C602   O635    1.275   .     A
C602   O637    1.273   .     A
C602   C605    1.448   .     S
C603   O636    1.283   .     A
C603   C604    1.470   .     S
C603   O638    1.287   .     A
C604   C607    1.398   .     A
C606   C609    1.403   .     A
C606   H628    1.084   .     S
C607   H630    1.074   .     S
C607   C608    1.408   .     A
C608   C609    1.418   .     A
C608   C610    1.426   .     A
C609   C28     1.390   1_556 S
C610   C26     1.427   1_556 S
C611   C612    1.416   .     A
C612   C613    1.386   .     A
C612   H615    1.076   .     S
C613   H614    1.084   .     S
H617   N631    1.045   .     S
H618   N631    1.045   .     S
H619   N632    1.046   .     S
H620   N632    1.046   .     S
H621   N633    1.045   .     S
H622   N828    1.045   .     S
H624   C794    1.086   .     S
N631   C725    1.438   1_455 S
N632   C661    1.437   .     S
N633   C988    1.438   1_545 S
N633   H1012   1.045   1_545 S
O634   Zn648   1.951   .     S
O634   Zn649   1.934   .     S
O634   Zn650   1.938   .     S
O634   Zn647   1.966   .     S
O635   Zn648   1.935   .     S
O636   Zn650   1.947   .     S
O637   Zn649   1.943   .     S
O638   Zn647   1.933   .     S
O639   Zn647   1.928   .     S
O640   Zn650   1.929   .     S
O641   Zn648   1.937   .     S
O642   Zn649   1.948   .     S
O643   Zn650   1.943   .     S
O644   Zn647   1.932   .     S
O645   Zn648   1.935   .     S
O646   Zn649   1.931   .     S
C651   C661    1.437   .     S
C651   O706    1.270   .     A
C651   O708    1.269   .     A
C652   C653    1.384   .     A
C652   C675    1.416   .     A
C652   H681    1.076   .     S
C653   H692    1.084   .     S
C653   C70     1.389   1_556 S
C654   O707    1.287   .     A
C654   O709    1.275   .     A
C654   C660    1.466   .     S
C655   C656    1.421   .     A
C655   C657    1.403   .     A
C656   C659    1.410   .     A
C656   C676    1.427   .     A
C657   C658    1.389   .     A
C657   H688    1.084   .     S
C658   C670    1.394   .     A
C658   H691    1.083   .     S
C659   H690    1.077   .     S
C659   C670    1.391   .     A
C660   C726    1.353   .     S
C660   N761    1.438   .     S
C662   H694    1.083   .     S
C662   C669    1.400   .     A
C662   C671    1.391   .     A
C663   C666    1.458   .     S
C663   C859    1.336   .     S
C663   N893    1.438   .     S
C664   C665    1.437   .     S
C664   C1053   1.336   1_545 S
C664   H1079   1.086   1_545 S
C665   O710    1.281   .     A
C665   O704    1.281   .     A
C666   O705    1.275   .     A
C666   O711    1.271   .     A
C667   O700    1.275   .     A
C667   O702    1.273   .     A
C667   C670    1.448   .     S
C668   O701    1.283   .     A
C668   C669    1.470   .     S
C668   O703    1.287   .     A
C669   C672    1.398   .     A
C671   C674    1.403   .     A
C671   H693    1.084   .     S
C672   H695    1.074   .     S
C672   C673    1.408   .     A
C673   C674    1.418   .     A
C673   C675    1.426   .     A
C674   C93     1.390   1_556 S
C675   C91     1.427   1_556 S
C676   C677    1.416   .     A
C677   C678    1.386   .     A
C677   H680    1.076   .     S
C678   H679    1.084   .     S
H682   N696    1.045   .     S
H683   N696    1.045   .     S
H684   N697    1.046   .     S
H685   N697    1.046   .     S
H686   N698    1.045   .     S
H687   N893    1.045   .     S
H689   C859    1.086   .     S
N697   C726    1.437   .     S
N698   C1053   1.438   1_545 S
N698   H1077   1.045   1_545 S
O699   Zn713   1.951   .     S
O699   Zn714   1.934   .     S
O699   Zn715   1.938   .     S
O699   Zn712   1.966   .     S
O700   Zn713   1.935   .     S
O701   Zn715   1.947   .     S
O702   Zn714   1.943   .     S
O703   Zn712   1.933   .     S
O704   Zn712   1.928   .     S
O705   Zn715   1.929   .     S
O706   Zn713   1.937   .     S
O707   Zn714   1.948   .     S
O708   Zn715   1.943   .     S
O709   Zn712   1.932   .     S
O710   Zn713   1.935   .     S
O711   Zn714   1.931   .     S
C716   C726    1.437   .     S
C716   O771    1.270   .     A
C716   O773    1.269   .     A
C717   C718    1.384   .     A
C717   C740    1.416   .     A
C717   H746    1.076   .     S
C718   H757    1.084   .     S
C718   C135    1.389   1_556 S
C719   O772    1.287   .     A
C719   O774    1.275   .     A
C719   C725    1.466   .     S
C720   C721    1.421   .     A
C720   C722    1.403   .     A
C721   C724    1.410   .     A
C721   C741    1.427   .     A
C722   C723    1.389   .     A
C722   H753    1.084   .     S
C723   C735    1.394   .     A
C723   H756    1.083   .     S
C724   H755    1.077   .     S
C724   C735    1.391   .     A
C725   C596    1.353   1_655 S
C725   N631    1.438   1_655 S
C727   H759    1.083   .     S
C727   C734    1.400   .     A
C727   C736    1.391   .     A
C728   C731    1.458   .     S
C728   C924    1.336   .     S
C728   N958    1.438   .     S
C729   C730    1.437   .     S
C729   C1118   1.336   1_545 S
C729   H1144   1.086   1_545 S
C730   O775    1.281   .     A
C730   O769    1.281   .     A
C731   O770    1.275   .     A
C731   O776    1.271   .     A
C732   O765    1.275   .     A
C732   O767    1.273   .     A
C732   C735    1.448   .     S
C733   O766    1.283   .     A
C733   C734    1.470   .     S
C733   O768    1.287   .     A
C734   C737    1.398   .     A
C736   C739    1.403   .     A
C736   H758    1.084   .     S
C737   H760    1.074   .     S
C737   C738    1.408   .     A
C738   C739    1.418   .     A
C738   C740    1.426   .     A
C739   C158    1.390   1_556 S
C740   C156    1.427   1_556 S
C741   C742    1.416   .     A
C742   C743    1.386   .     A
C742   H745    1.076   .     S
C743   H744    1.084   .     S
H747   N761    1.045   .     S
H748   N761    1.045   .     S
H749   N762    1.046   .     S
H750   N762    1.046   .     S
H751   N763    1.045   .     S
H752   N958    1.045   .     S
H754   C924    1.086   .     S
N762   C596    1.437   1_655 S
N763   C1118   1.438   1_545 S
N763   H1142   1.045   1_545 S
O764   Zn778   1.951   .     S
O764   Zn779   1.934   .     S
O764   Zn780   1.938   .     S
O764   Zn777   1.966   .     S
O765   Zn778   1.935   .     S
O766   Zn780   1.947   .     S
O767   Zn779   1.943   .     S
O768   Zn777   1.933   .     S
O769   Zn777   1.928   .     S
O770   Zn780   1.929   .     S
O771   Zn778   1.937   .     S
O772   Zn779   1.948   .     S
O773   Zn780   1.943   .     S
O774   Zn777   1.932   .     S
O775   Zn778   1.935   .     S
O776   Zn779   1.931   .     S
C781   C791    1.437   .     S
C781   O836    1.270   .     A
C781   O838    1.269   .     A
C782   C783    1.384   .     A
C782   C805    1.416   .     A
C782   H811    1.076   .     S
C783   H822    1.084   .     S
C783   C200    1.389   1_556 S
C784   O837    1.287   .     A
C784   O839    1.275   .     A
C784   C790    1.466   .     S
C785   C786    1.421   .     A
C785   C787    1.403   .     A
C786   C789    1.410   .     A
C786   C806    1.427   .     A
C787   C788    1.389   .     A
C787   H818    1.084   .     S
C788   C800    1.394   .     A
C788   H821    1.083   .     S
C789   H820    1.077   .     S
C789   C800    1.391   .     A
C790   C856    1.353   .     S
C790   N891    1.438   .     S
C791   C920    1.353   1_455 S
C791   N957    1.437   1_455 S
C792   H824    1.083   .     S
C792   C799    1.400   .     A
C792   C801    1.391   .     A
C793   C796    1.458   .     S
C793   C989    1.336   .     S
C793   N1023   1.438   .     S
C794   C795    1.437   .     S
C795   O840    1.281   .     A
C795   O834    1.281   .     A
C796   O835    1.275   .     A
C796   O841    1.271   .     A
C797   O830    1.275   .     A
C797   O832    1.273   .     A
C797   C800    1.448   .     S
C798   O831    1.283   .     A
C798   C799    1.470   .     S
C798   O833    1.287   .     A
C799   C802    1.398   .     A
C801   C804    1.403   .     A
C801   H823    1.084   .     S
C802   H825    1.074   .     S
C802   C803    1.408   .     A
C803   C804    1.418   .     A
C803   C805    1.426   .     A
C804   C223    1.390   1_556 S
C805   C221    1.427   1_556 S
C806   C807    1.416   .     A
C807   C808    1.386   .     A
C807   H810    1.076   .     S
C808   H809    1.084   .     S
H812   N826    1.045   .     S
H813   N826    1.045   .     S
H814   N827    1.046   .     S
H815   N827    1.046   .     S
H816   N828    1.045   .     S
H817   N1023   1.045   .     S
H819   C989    1.086   .     S
N826   C920    1.438   1_455 S
N827   C856    1.437   .     S
O829   Zn843   1.951   .     S
O829   Zn844   1.934   .     S
O829   Zn845   1.938   .     S
O829   Zn842   1.966   .     S
O830   Zn843   1.935   .     S
O831   Zn845   1.947   .     S
O832   Zn844   1.943   .     S
O833   Zn842   1.933   .     S
O834   Zn842   1.928   .     S
O835   Zn845   1.929   .     S
O836   Zn843   1.937   .     S
O837   Zn844   1.948   .     S
O838   Zn845   1.943   .     S
O839   Zn842   1.932   .     S
O840   Zn843   1.935   .     S
O841   Zn844   1.931   .     S
C846   C856    1.437   .     S
C846   O901    1.270   .     A
C846   O903    1.269   .     A
C847   C848    1.384   .     A
C847   C870    1.416   .     A
C847   H876    1.076   .     S
C848   H887    1.084   .     S
C848   C265    1.389   1_556 S
C849   O902    1.287   .     A
C849   O904    1.275   .     A
C849   C855    1.466   .     S
C850   C851    1.421   .     A
C850   C852    1.403   .     A
C851   C854    1.410   .     A
C851   C871    1.427   .     A
C852   C853    1.389   .     A
C852   H883    1.084   .     S
C853   C865    1.394   .     A
C853   H886    1.083   .     S
C854   H885    1.077   .     S
C854   C865    1.391   .     A
C855   C921    1.353   .     S
C855   N956    1.438   .     S
C857   H889    1.083   .     S
C857   C864    1.400   .     A
C857   C866    1.391   .     A
C858   C861    1.458   .     S
C858   C1054   1.336   .     S
C858   N1088   1.438   .     S
C859   C860    1.437   .     S
C860   O905    1.281   .     A
C860   O899    1.281   .     A
C861   O900    1.275   .     A
C861   O906    1.271   .     A
C862   O895    1.275   .     A
C862   O897    1.273   .     A
C862   C865    1.448   .     S
C863   O896    1.283   .     A
C863   C864    1.470   .     S
C863   O898    1.287   .     A
C864   C867    1.398   .     A
C866   C869    1.403   .     A
C866   H888    1.084   .     S
C867   H890    1.074   .     S
C867   C868    1.408   .     A
C868   C869    1.418   .     A
C868   C870    1.426   .     A
C869   C288    1.390   1_556 S
C870   C286    1.427   1_556 S
C871   C872    1.416   .     A
C872   C873    1.386   .     A
C872   H875    1.076   .     S
C873   H874    1.084   .     S
H877   N891    1.045   .     S
H878   N891    1.045   .     S
H879   N892    1.046   .     S
H880   N892    1.046   .     S
H881   N893    1.045   .     S
H882   N1088   1.045   .     S
H884   C1054   1.086   .     S
N892   C921    1.437   .     S
O894   Zn908   1.951   .     S
O894   Zn909   1.934   .     S
O894   Zn910   1.938   .     S
O894   Zn907   1.966   .     S
O895   Zn908   1.935   .     S
O896   Zn910   1.947   .     S
O897   Zn909   1.943   .     S
O898   Zn907   1.933   .     S
O899   Zn907   1.928   .     S
O900   Zn910   1.929   .     S
O901   Zn908   1.937   .     S
O902   Zn909   1.948   .     S
O903   Zn910   1.943   .     S
O904   Zn907   1.932   .     S
O905   Zn908   1.935   .     S
O906   Zn909   1.931   .     S
C911   C921    1.437   .     S
C911   O966    1.270   .     A
C911   O968    1.269   .     A
C912   C913    1.384   .     A
C912   C935    1.416   .     A
C912   H941    1.076   .     S
C913   H952    1.084   .     S
C913   C330    1.389   1_556 S
C914   O967    1.287   .     A
C914   O969    1.275   .     A
C914   C920    1.466   .     S
C915   C916    1.421   .     A
C915   C917    1.403   .     A
C916   C919    1.410   .     A
C916   C936    1.427   .     A
C917   C918    1.389   .     A
C917   H948    1.084   .     S
C918   C930    1.394   .     A
C918   H951    1.083   .     S
C919   H950    1.077   .     S
C919   C930    1.391   .     A
C920   C791    1.353   1_655 S
C920   N826    1.438   1_655 S
C922   H954    1.083   .     S
C922   C929    1.400   .     A
C922   C931    1.391   .     A
C923   C926    1.458   .     S
C923   C1119   1.336   .     S
C923   N1153   1.438   .     S
C924   C925    1.437   .     S
C925   O970    1.281   .     A
C925   O964    1.281   .     A
C926   O965    1.275   .     A
C926   O971    1.271   .     A
C927   O960    1.275   .     A
C927   O962    1.273   .     A
C927   C930    1.448   .     S
C928   O961    1.283   .     A
C928   C929    1.470   .     S
C928   O963    1.287   .     A
C929   C932    1.398   .     A
C931   C934    1.403   .     A
C931   H953    1.084   .     S
C932   H955    1.074   .     S
C932   C933    1.408   .     A
C933   C934    1.418   .     A
C933   C935    1.426   .     A
C934   C353    1.390   1_556 S
C935   C351    1.427   1_556 S
C936   C937    1.416   .     A
C937   C938    1.386   .     A
C937   H940    1.076   .     S
C938   H939    1.084   .     S
H942   N956    1.045   .     S
H943   N956    1.045   .     S
H944   N957    1.046   .     S
H945   N957    1.046   .     S
H946   N958    1.045   .     S
H947   N1153   1.045   .     S
H949   C1119   1.086   .     S
N957   C791    1.437   1_655 S
O959   Zn973   1.951   .     S
O959   Zn974   1.934   .     S
O959   Zn975   1.938   .     S
O959   Zn972   1.966   .     S
O960   Zn973   1.935   .     S
O961   Zn975   1.947   .     S
O962   Zn974   1.943   .     S
O963   Zn972   1.933   .     S
O964   Zn972   1.928   .     S
O965   Zn975   1.929   .     S
O966   Zn973   1.937   .     S
O967   Zn974   1.948   .     S
O968   Zn975   1.943   .     S
O969   Zn972   1.932   .     S
O970   Zn973   1.935   .     S
O971   Zn974   1.931   .     S
C976   C986    1.437   .     S
C976   O1031   1.270   .     A
C976   O1033   1.269   .     A
C977   C978    1.384   .     A
C977   C1000   1.416   .     A
C977   H1006   1.076   .     S
C978   H1017   1.084   .     S
C978   C395    1.389   1_556 S
C979   O1032   1.287   .     A
C979   O1034   1.275   .     A
C979   C985    1.466   .     S
C980   C981    1.421   .     A
C980   C982    1.403   .     A
C981   C984    1.410   .     A
C981   C1001   1.427   .     A
C982   C983    1.389   .     A
C982   H1013   1.084   .     S
C983   C995    1.394   .     A
C983   H1016   1.083   .     S
C984   H1015   1.077   .     S
C984   C995    1.391   .     A
C985   C1051   1.353   .     S
C985   N1086   1.438   .     S
C986   C1115   1.353   1_455 S
C986   N1152   1.437   1_455 S
C987   H1019   1.083   .     S
C987   C994    1.400   .     A
C987   C996    1.391   .     A
C988   C991    1.458   .     S
C988   C599    1.336   1_565 S
C988   N633    1.438   1_565 S
C989   C990    1.437   .     S
C990   O1035   1.281   .     A
C990   O1029   1.281   .     A
C991   O1030   1.275   .     A
C991   O1036   1.271   .     A
C992   O1025   1.275   .     A
C992   O1027   1.273   .     A
C992   C995    1.448   .     S
C993   O1026   1.283   .     A
C993   C994    1.470   .     S
C993   O1028   1.287   .     A
C994   C997    1.398   .     A
C996   C999    1.403   .     A
C996   H1018   1.084   .     S
C997   H1020   1.074   .     S
C997   C998    1.408   .     A
C998   C999    1.418   .     A
C998   C1000   1.426   .     A
C999   C418    1.390   1_556 S
C1000  C416    1.427   1_556 S
C1001  C1002   1.416   .     A
C1002  C1003   1.386   .     A
C1002  H1005   1.076   .     S
C1003  H1004   1.084   .     S
H1007  N1021   1.045   .     S
H1008  N1021   1.045   .     S
H1009  N1022   1.046   .     S
H1010  N1022   1.046   .     S
H1011  N1023   1.045   .     S
H1012  N633    1.045   1_565 S
H1014  C599    1.086   1_565 S
N1021  C1115   1.438   1_455 S
N1022  C1051   1.437   .     S
O1024  Zn1038  1.951   .     S
O1024  Zn1039  1.934   .     S
O1024  Zn1040  1.938   .     S
O1024  Zn1037  1.966   .     S
O1025  Zn1038  1.935   .     S
O1026  Zn1040  1.947   .     S
O1027  Zn1039  1.943   .     S
O1028  Zn1037  1.933   .     S
O1029  Zn1037  1.928   .     S
O1030  Zn1040  1.929   .     S
O1031  Zn1038  1.937   .     S
O1032  Zn1039  1.948   .     S
O1033  Zn1040  1.943   .     S
O1034  Zn1037  1.932   .     S
O1035  Zn1038  1.935   .     S
O1036  Zn1039  1.931   .     S
C1041  C1051   1.437   .     S
C1041  O1096   1.270   .     A
C1041  O1098   1.269   .     A
C1042  C1043   1.384   .     A
C1042  C1065   1.416   .     A
C1042  H1071   1.076   .     S
C1043  H1082   1.084   .     S
C1043  C460    1.389   1_556 S
C1044  O1097   1.287   .     A
C1044  O1099   1.275   .     A
C1044  C1050   1.466   .     S
C1045  C1046   1.421   .     A
C1045  C1047   1.403   .     A
C1046  C1049   1.410   .     A
C1046  C1066   1.427   .     A
C1047  C1048   1.389   .     A
C1047  H1078   1.084   .     S
C1048  C1060   1.394   .     A
C1048  H1081   1.083   .     S
C1049  H1080   1.077   .     S
C1049  C1060   1.391   .     A
C1050  C1116   1.353   .     S
C1050  N1151   1.438   .     S
C1052  H1084   1.083   .     S
C1052  C1059   1.400   .     A
C1052  C1061   1.391   .     A
C1053  C1056   1.458   .     S
C1053  C664    1.336   1_565 S
C1053  N698    1.438   1_565 S
C1054  C1055   1.437   .     S
C1055  O1100   1.281   .     A
C1055  O1094   1.281   .     A
C1056  O1095   1.275   .     A
C1056  O1101   1.271   .     A
C1057  O1090   1.275   .     A
C1057  O1092   1.273   .     A
C1057  C1060   1.448   .     S
C1058  O1091   1.283   .     A
C1058  C1059   1.470   .     S
C1058  O1093   1.287   .     A
C1059  C1062   1.398   .     A
C1061  C1064   1.403   .     A
C1061  H1083   1.084   .     S
C1062  H1085   1.074   .     S
C1062  C1063   1.408   .     A
C1063  C1064   1.418   .     A
C1063  C1065   1.426   .     A
C1064  C483    1.390   1_556 S
C1065  C481    1.427   1_556 S
C1066  C1067   1.416   .     A
C1067  C1068   1.386   .     A
C1067  H1070   1.076   .     S
C1068  H1069   1.084   .     S
H1072  N1086   1.045   .     S
H1073  N1086   1.045   .     S
H1074  N1087   1.046   .     S
H1075  N1087   1.046   .     S
H1076  N1088   1.045   .     S
H1077  N698    1.045   1_565 S
H1079  C664    1.086   1_565 S
N1087  C1116   1.437   .     S
O1089  Zn1103  1.951   .     S
O1089  Zn1104  1.934   .     S
O1089  Zn1105  1.938   .     S
O1089  Zn1102  1.966   .     S
O1090  Zn1103  1.935   .     S
O1091  Zn1105  1.947   .     S
O1092  Zn1104  1.943   .     S
O1093  Zn1102  1.933   .     S
O1094  Zn1102  1.928   .     S
O1095  Zn1105  1.929   .     S
O1096  Zn1103  1.937   .     S
O1097  Zn1104  1.948   .     S
O1098  Zn1105  1.943   .     S
O1099  Zn1102  1.932   .     S
O1100  Zn1103  1.935   .     S
O1101  Zn1104  1.931   .     S
C1106  C1116   1.437   .     S
C1106  O1161   1.270   .     A
C1106  O1163   1.269   .     A
C1107  C1108   1.384   .     A
C1107  C1130   1.416   .     A
C1107  H1136   1.076   .     S
C1108  H1147   1.084   .     S
C1108  C525    1.389   1_556 S
C1109  O1162   1.287   .     A
C1109  O1164   1.275   .     A
C1109  C1115   1.466   .     S
C1110  C1111   1.421   .     A
C1110  C1112   1.403   .     A
C1111  C1114   1.410   .     A
C1111  C1131   1.427   .     A
C1112  C1113   1.389   .     A
C1112  H1143   1.084   .     S
C1113  C1125   1.394   .     A
C1113  H1146   1.083   .     S
C1114  H1145   1.077   .     S
C1114  C1125   1.391   .     A
C1115  C986    1.353   1_655 S
C1115  N1021   1.438   1_655 S
C1117  H1149   1.083   .     S
C1117  C1124   1.400   .     A
C1117  C1126   1.391   .     A
C1118  C1121   1.458   .     S
C1118  C729    1.336   1_565 S
C1118  N763    1.438   1_565 S
C1119  C1120   1.437   .     S
C1120  O1165   1.281   .     A
C1120  O1159   1.281   .     A
C1121  O1160   1.275   .     A
C1121  O1166   1.271   .     A
C1122  O1155   1.275   .     A
C1122  O1157   1.273   .     A
C1122  C1125   1.448   .     S
C1123  O1156   1.283   .     A
C1123  C1124   1.470   .     S
C1123  O1158   1.287   .     A
C1124  C1127   1.398   .     A
C1126  C1129   1.403   .     A
C1126  H1148   1.084   .     S
C1127  H1150   1.074   .     S
C1127  C1128   1.408   .     A
C1128  C1129   1.418   .     A
C1128  C1130   1.426   .     A
C1129  C548    1.390   1_556 S
C1130  C546    1.427   1_556 S
C1131  C1132   1.416   .     A
C1132  C1133   1.386   .     A
C1132  H1135   1.076   .     S
C1133  H1134   1.084   .     S
H1137  N1151   1.045   .     S
H1138  N1151   1.045   .     S
H1139  N1152   1.046   .     S
H1140  N1152   1.046   .     S
H1141  N1153   1.045   .     S
H1142  N763    1.045   1_565 S
H1144  C729    1.086   1_565 S
N1152  C986    1.437   1_655 S
O1154  Zn1168  1.951   .     S
O1154  Zn1169  1.934   .     S
O1154  Zn1170  1.938   .     S
O1154  Zn1167  1.966   .     S
O1155  Zn1168  1.935   .     S
O1156  Zn1170  1.947   .     S
O1157  Zn1169  1.943   .     S
O1158  Zn1167  1.933   .     S
O1159  Zn1167  1.928   .     S
O1160  Zn1170  1.929   .     S
O1161  Zn1168  1.937   .     S
O1162  Zn1169  1.948   .     S
O1163  Zn1170  1.943   .     S
O1164  Zn1167  1.932   .     S
O1165  Zn1168  1.935   .     S
O1166  Zn1169  1.931   .     S
