data_str_m3_o1_o17_pcu_sym.141
_audit_creation_date              2020-01-03
_audit_creation_method            'Materials Studio'
_symmetry_space_group_name_H-M    'P1'
_symmetry_Int_Tables_number       1
_symmetry_cell_setting            triclinic
loop_
_symmetry_equiv_pos_as_xyz
  x,y,z
_cell_length_a                    32.1582
_cell_length_b                    29.5106
_cell_length_c                    29.8899
_cell_angle_alpha                 89.8665
_cell_angle_beta                  90.1661
_cell_angle_gamma                 89.9476
loop_
_atom_site_label
_atom_site_type_symbol
_atom_site_fract_x
_atom_site_fract_y
_atom_site_fract_z
_atom_site_U_iso_or_equiv
_atom_site_adp_type
_atom_site_occupancy
C1     C     0.08662   0.16668   0.24991   0.00000  Uiso   1.00
C2     C     0.24672   0.16665   0.25009   0.00000  Uiso   1.00
C3     C     0.10745   0.11628   0.02539   0.00000  Uiso   1.00
C4     C     0.22588   0.21705   0.47461   0.00000  Uiso   1.00
C5     C     0.02131   0.12572   0.24456   0.00000  Uiso   1.00
C6     C     0.31202   0.20762   0.25544   0.00000  Uiso   1.00
C7     C     0.31206   0.12570   0.24464   0.00000  Uiso   1.00
C8     C     0.02127   0.20764   0.25536   0.00000  Uiso   1.00
C9     C     0.29086   0.16665   0.25008   0.00000  Uiso   1.00
C10    C     0.04247   0.16669   0.24992   0.00000  Uiso   1.00
C11    C     0.19349   0.02390   0.27678   0.00000  Uiso   1.00
C12    C     0.13985   0.30944   0.22322   0.00000  Uiso   1.00
C13    C     0.13984   0.02408   0.22322   0.00000  Uiso   1.00
C14    C     0.19349   0.30925   0.27678   0.00000  Uiso   1.00
C15    C     0.16792   0.16674   0.16350   0.00000  Uiso   1.00
C16    C     0.16542   0.16660   0.33650   0.00000  Uiso   1.00
C17    C     0.19414   0.19180   0.40637   0.00000  Uiso   1.00
C18    C     0.13919   0.14153   0.09363   0.00000  Uiso   1.00
C19    C     0.16409   0.16649   0.38419   0.00000  Uiso   1.00
C20    C     0.16925   0.16684   0.11581   0.00000  Uiso   1.00
C21    C     0.13368   0.14154   0.40720   0.00000  Uiso   1.00
C22    C     0.19966   0.19179   0.09280   0.00000  Uiso   1.00
C23    C     0.13478   0.14118   0.45407   0.00000  Uiso   1.00
C24    C     0.19855   0.19215   0.04593   0.00000  Uiso   1.00
C25    C     0.16587   0.16659   0.47662   0.00000  Uiso   1.00
C26    C     0.16746   0.16674   0.02338   0.00000  Uiso   1.00
C27    C     0.19536   0.19200   0.45248   0.00000  Uiso   1.00
C28    C     0.13798   0.14133   0.04752   0.00000  Uiso   1.00
C29    C     0.10580   0.11618   0.47905   0.00000  Uiso   1.00
C30    C     0.22753   0.21715   0.02095   0.00000  Uiso   1.00
H31    H     0.21706   0.21083   0.38745   0.00000  Uiso   1.00
H32    H     0.11628   0.12251   0.11255   0.00000  Uiso   1.00
H33    H     0.08177   0.09614   0.46344   0.00000  Uiso   1.00
H34    H     0.25156   0.23720   0.03656   0.00000  Uiso   1.00
H35    H     0.08476   0.09672   0.04396   0.00000  Uiso   1.00
H36    H     0.24857   0.23662   0.45604   0.00000  Uiso   1.00
H37    H     0.03751   0.09383   0.24015   0.00000  Uiso   1.00
H38    H     0.29582   0.23951   0.25985   0.00000  Uiso   1.00
H39    H     0.29590   0.09380   0.24027   0.00000  Uiso   1.00
H40    H     0.03743   0.23953   0.25973   0.00000  Uiso   1.00
H41    H     0.21492   0.04202   0.29819   0.00000  Uiso   1.00
H42    H     0.11841   0.29131   0.20181   0.00000  Uiso   1.00
H43    H     0.11840   0.04235   0.20182   0.00000  Uiso   1.00
H44    H     0.21493   0.29099   0.29818   0.00000  Uiso   1.00
N45    N     0.16667   0.28573   0.25000   0.00000  Uiso   1.00
N46    N     0.16667   0.04760   0.25000   0.00000  Uiso   1.00
O47    O     0.10559   0.20487   0.25000   0.00000  Uiso   1.00
O48    O     0.22774   0.12846   0.25000   0.00000  Uiso   1.00
O49    O     0.22774   0.20487   0.25000   0.00000  Uiso   1.00
O50    O     0.10559   0.12846   0.25000   0.00000  Uiso   1.00
O51    O     0.16666   0.20489   0.18393   0.00000  Uiso   1.00
O52    O     0.16667   0.12844   0.31607   0.00000  Uiso   1.00
O53    O     0.16667   0.20489   0.31608   0.00000  Uiso   1.00
O54    O     0.16666   0.12844   0.18392   0.00000  Uiso   1.00
Zn55   Zn    0.16667   0.21771   0.25000   0.00000  Uiso   1.00
Zn56   Zn    0.16667   0.11563   0.25000   0.00000  Uiso   1.00
I57    I     0.08501   0.10781   0.37067   0.00000  Uiso   1.00
I58    I     0.24833   0.22553   0.12933   0.00000  Uiso   1.00
C59    C     0.41995   0.16668   0.24991   0.00000  Uiso   1.00
C60    C     0.58005   0.16665   0.25009   0.00000  Uiso   1.00
C61    C     0.44078   0.11628   0.02539   0.00000  Uiso   1.00
C62    C     0.55922   0.21705   0.47461   0.00000  Uiso   1.00
C63    C     0.35465   0.12572   0.24456   0.00000  Uiso   1.00
C64    C     0.64535   0.20762   0.25544   0.00000  Uiso   1.00
C65    C     0.64540   0.12570   0.24464   0.00000  Uiso   1.00
C66    C     0.35460   0.20764   0.25536   0.00000  Uiso   1.00
C67    C     0.62420   0.16665   0.25008   0.00000  Uiso   1.00
C68    C     0.37580   0.16669   0.24992   0.00000  Uiso   1.00
C69    C     0.52682   0.02390   0.27678   0.00000  Uiso   1.00
C70    C     0.47318   0.30944   0.22322   0.00000  Uiso   1.00
C71    C     0.47317   0.02408   0.22322   0.00000  Uiso   1.00
C72    C     0.52682   0.30925   0.27678   0.00000  Uiso   1.00
C73    C     0.50125   0.16674   0.16350   0.00000  Uiso   1.00
C74    C     0.49875   0.16660   0.33650   0.00000  Uiso   1.00
C75    C     0.52747   0.19180   0.40637   0.00000  Uiso   1.00
C76    C     0.47253   0.14153   0.09363   0.00000  Uiso   1.00
C77    C     0.49742   0.16649   0.38419   0.00000  Uiso   1.00
C78    C     0.50258   0.16684   0.11581   0.00000  Uiso   1.00
C79    C     0.46701   0.14154   0.40720   0.00000  Uiso   1.00
C80    C     0.53299   0.19179   0.09280   0.00000  Uiso   1.00
C81    C     0.46811   0.14118   0.45407   0.00000  Uiso   1.00
C82    C     0.53189   0.19215   0.04593   0.00000  Uiso   1.00
C83    C     0.49920   0.16659   0.47662   0.00000  Uiso   1.00
C84    C     0.50080   0.16674   0.02338   0.00000  Uiso   1.00
C85    C     0.52869   0.19200   0.45248   0.00000  Uiso   1.00
C86    C     0.47131   0.14133   0.04752   0.00000  Uiso   1.00
C87    C     0.43914   0.11618   0.47905   0.00000  Uiso   1.00
C88    C     0.56086   0.21715   0.02095   0.00000  Uiso   1.00
H89    H     0.55039   0.21083   0.38745   0.00000  Uiso   1.00
H90    H     0.44961   0.12251   0.11255   0.00000  Uiso   1.00
H91    H     0.41510   0.09614   0.46344   0.00000  Uiso   1.00
H92    H     0.58490   0.23720   0.03656   0.00000  Uiso   1.00
H93    H     0.41810   0.09672   0.04396   0.00000  Uiso   1.00
H94    H     0.58190   0.23662   0.45604   0.00000  Uiso   1.00
H95    H     0.37084   0.09383   0.24015   0.00000  Uiso   1.00
H96    H     0.62916   0.23951   0.25985   0.00000  Uiso   1.00
H97    H     0.62923   0.09380   0.24027   0.00000  Uiso   1.00
H98    H     0.37077   0.23953   0.25973   0.00000  Uiso   1.00
H99    H     0.54825   0.04202   0.29819   0.00000  Uiso   1.00
H100   H     0.45175   0.29131   0.20181   0.00000  Uiso   1.00
H101   H     0.45174   0.04235   0.20182   0.00000  Uiso   1.00
H102   H     0.54826   0.29099   0.29818   0.00000  Uiso   1.00
N103   N     0.50000   0.28573   0.25000   0.00000  Uiso   1.00
N104   N     0.50000   0.04760   0.25000   0.00000  Uiso   1.00
O105   O     0.43892   0.20487   0.25000   0.00000  Uiso   1.00
O106   O     0.56108   0.12846   0.25000   0.00000  Uiso   1.00
O107   O     0.56108   0.20487   0.25000   0.00000  Uiso   1.00
O108   O     0.43892   0.12846   0.25000   0.00000  Uiso   1.00
O109   O     0.49999   0.20489   0.18393   0.00000  Uiso   1.00
O110   O     0.50001   0.12844   0.31607   0.00000  Uiso   1.00
O111   O     0.50001   0.20489   0.31608   0.00000  Uiso   1.00
O112   O     0.49999   0.12844   0.18392   0.00000  Uiso   1.00
Zn113  Zn    0.50000   0.21771   0.25000   0.00000  Uiso   1.00
Zn114  Zn    0.50000   0.11563   0.25000   0.00000  Uiso   1.00
I115   I     0.41834   0.10781   0.37067   0.00000  Uiso   1.00
I116   I     0.58166   0.22553   0.12933   0.00000  Uiso   1.00
C117   C     0.75328   0.16668   0.24991   0.00000  Uiso   1.00
C118   C     0.91338   0.16665   0.25009   0.00000  Uiso   1.00
C119   C     0.77412   0.11628   0.02539   0.00000  Uiso   1.00
C120   C     0.89255   0.21705   0.47461   0.00000  Uiso   1.00
C121   C     0.68798   0.12572   0.24456   0.00000  Uiso   1.00
C122   C     0.97869   0.20762   0.25544   0.00000  Uiso   1.00
C123   C     0.97873   0.12570   0.24464   0.00000  Uiso   1.00
C124   C     0.68794   0.20764   0.25536   0.00000  Uiso   1.00
C125   C     0.95753   0.16665   0.25008   0.00000  Uiso   1.00
C126   C     0.70914   0.16669   0.24992   0.00000  Uiso   1.00
C127   C     0.86015   0.02390   0.27678   0.00000  Uiso   1.00
C128   C     0.80651   0.30944   0.22322   0.00000  Uiso   1.00
C129   C     0.80651   0.02408   0.22322   0.00000  Uiso   1.00
C130   C     0.86016   0.30925   0.27678   0.00000  Uiso   1.00
C131   C     0.83458   0.16674   0.16350   0.00000  Uiso   1.00
C132   C     0.83208   0.16660   0.33650   0.00000  Uiso   1.00
C133   C     0.86081   0.19180   0.40637   0.00000  Uiso   1.00
C134   C     0.80586   0.14153   0.09363   0.00000  Uiso   1.00
C135   C     0.83075   0.16649   0.38419   0.00000  Uiso   1.00
C136   C     0.83591   0.16684   0.11581   0.00000  Uiso   1.00
C137   C     0.80034   0.14154   0.40720   0.00000  Uiso   1.00
C138   C     0.86632   0.19179   0.09280   0.00000  Uiso   1.00
C139   C     0.80145   0.14118   0.45407   0.00000  Uiso   1.00
C140   C     0.86522   0.19215   0.04593   0.00000  Uiso   1.00
C141   C     0.83254   0.16659   0.47662   0.00000  Uiso   1.00
C142   C     0.83413   0.16674   0.02338   0.00000  Uiso   1.00
C143   C     0.86202   0.19200   0.45248   0.00000  Uiso   1.00
C144   C     0.80464   0.14133   0.04752   0.00000  Uiso   1.00
C145   C     0.77247   0.11618   0.47905   0.00000  Uiso   1.00
C146   C     0.89420   0.21715   0.02095   0.00000  Uiso   1.00
H147   H     0.88372   0.21083   0.38745   0.00000  Uiso   1.00
H148   H     0.78294   0.12251   0.11255   0.00000  Uiso   1.00
H149   H     0.74843   0.09614   0.46344   0.00000  Uiso   1.00
H150   H     0.91823   0.23720   0.03656   0.00000  Uiso   1.00
H151   H     0.75143   0.09672   0.04396   0.00000  Uiso   1.00
H152   H     0.91524   0.23662   0.45604   0.00000  Uiso   1.00
H153   H     0.70418   0.09383   0.24015   0.00000  Uiso   1.00
H154   H     0.96249   0.23951   0.25985   0.00000  Uiso   1.00
H155   H     0.96257   0.09380   0.24027   0.00000  Uiso   1.00
H156   H     0.70410   0.23953   0.25973   0.00000  Uiso   1.00
H157   H     0.88158   0.04202   0.29819   0.00000  Uiso   1.00
H158   H     0.78508   0.29131   0.20181   0.00000  Uiso   1.00
H159   H     0.78507   0.04235   0.20182   0.00000  Uiso   1.00
H160   H     0.88160   0.29099   0.29818   0.00000  Uiso   1.00
N161   N     0.83333   0.28573   0.25000   0.00000  Uiso   1.00
N162   N     0.83333   0.04760   0.25000   0.00000  Uiso   1.00
O163   O     0.77226   0.20487   0.25000   0.00000  Uiso   1.00
O164   O     0.89441   0.12846   0.25000   0.00000  Uiso   1.00
O165   O     0.89441   0.20487   0.25000   0.00000  Uiso   1.00
O166   O     0.77226   0.12846   0.25000   0.00000  Uiso   1.00
O167   O     0.83333   0.20489   0.18393   0.00000  Uiso   1.00
O168   O     0.83334   0.12844   0.31607   0.00000  Uiso   1.00
O169   O     0.83334   0.20489   0.31608   0.00000  Uiso   1.00
O170   O     0.83333   0.12844   0.18392   0.00000  Uiso   1.00
Zn171  Zn    0.83333   0.21771   0.25000   0.00000  Uiso   1.00
Zn172  Zn    0.83333   0.11563   0.25000   0.00000  Uiso   1.00
I173   I     0.75167   0.10781   0.37067   0.00000  Uiso   1.00
I174   I     0.91499   0.22553   0.12933   0.00000  Uiso   1.00
C175   C     0.08662   0.50001   0.24991   0.00000  Uiso   1.00
C176   C     0.24672   0.49999   0.25009   0.00000  Uiso   1.00
C177   C     0.10745   0.44961   0.02539   0.00000  Uiso   1.00
C178   C     0.22588   0.55039   0.47461   0.00000  Uiso   1.00
C179   C     0.02131   0.45905   0.24456   0.00000  Uiso   1.00
C180   C     0.31202   0.54095   0.25544   0.00000  Uiso   1.00
C181   C     0.31206   0.45903   0.24464   0.00000  Uiso   1.00
C182   C     0.02127   0.54097   0.25536   0.00000  Uiso   1.00
C183   C     0.29086   0.49998   0.25008   0.00000  Uiso   1.00
C184   C     0.04247   0.50002   0.24992   0.00000  Uiso   1.00
C185   C     0.19349   0.35723   0.27678   0.00000  Uiso   1.00
C186   C     0.13985   0.64277   0.22322   0.00000  Uiso   1.00
C187   C     0.13984   0.35741   0.22322   0.00000  Uiso   1.00
C188   C     0.19349   0.64259   0.27678   0.00000  Uiso   1.00
C189   C     0.16792   0.50007   0.16350   0.00000  Uiso   1.00
C190   C     0.16542   0.49993   0.33650   0.00000  Uiso   1.00
C191   C     0.19414   0.52513   0.40637   0.00000  Uiso   1.00
C192   C     0.13919   0.47487   0.09363   0.00000  Uiso   1.00
C193   C     0.16409   0.49982   0.38419   0.00000  Uiso   1.00
C194   C     0.16925   0.50018   0.11581   0.00000  Uiso   1.00
C195   C     0.13368   0.47488   0.40720   0.00000  Uiso   1.00
C196   C     0.19966   0.52512   0.09280   0.00000  Uiso   1.00
C197   C     0.13478   0.47452   0.45407   0.00000  Uiso   1.00
C198   C     0.19855   0.52548   0.04593   0.00000  Uiso   1.00
C199   C     0.16587   0.49992   0.47662   0.00000  Uiso   1.00
C200   C     0.16746   0.50008   0.02338   0.00000  Uiso   1.00
C201   C     0.19536   0.52534   0.45248   0.00000  Uiso   1.00
C202   C     0.13798   0.47466   0.04752   0.00000  Uiso   1.00
C203   C     0.10580   0.44952   0.47905   0.00000  Uiso   1.00
C204   C     0.22753   0.55049   0.02095   0.00000  Uiso   1.00
H205   H     0.21706   0.54416   0.38745   0.00000  Uiso   1.00
H206   H     0.11628   0.45584   0.11255   0.00000  Uiso   1.00
H207   H     0.08177   0.42947   0.46344   0.00000  Uiso   1.00
H208   H     0.25156   0.57053   0.03656   0.00000  Uiso   1.00
H209   H     0.08476   0.43005   0.04396   0.00000  Uiso   1.00
H210   H     0.24857   0.56995   0.45604   0.00000  Uiso   1.00
H211   H     0.03751   0.42716   0.24015   0.00000  Uiso   1.00
H212   H     0.29582   0.57284   0.25985   0.00000  Uiso   1.00
H213   H     0.29590   0.42713   0.24027   0.00000  Uiso   1.00
H214   H     0.03743   0.57287   0.25973   0.00000  Uiso   1.00
H215   H     0.21492   0.37535   0.29819   0.00000  Uiso   1.00
H216   H     0.11841   0.62465   0.20181   0.00000  Uiso   1.00
H217   H     0.11840   0.37568   0.20182   0.00000  Uiso   1.00
H218   H     0.21493   0.62432   0.29818   0.00000  Uiso   1.00
N219   N     0.16667   0.61907   0.25000   0.00000  Uiso   1.00
N220   N     0.16667   0.38093   0.25000   0.00000  Uiso   1.00
O221   O     0.10559   0.53821   0.25000   0.00000  Uiso   1.00
O222   O     0.22774   0.46179   0.25000   0.00000  Uiso   1.00
O223   O     0.22774   0.53821   0.25000   0.00000  Uiso   1.00
O224   O     0.10559   0.46179   0.25000   0.00000  Uiso   1.00
O225   O     0.16666   0.53823   0.18393   0.00000  Uiso   1.00
O226   O     0.16667   0.46177   0.31607   0.00000  Uiso   1.00
O227   O     0.16667   0.53823   0.31608   0.00000  Uiso   1.00
O228   O     0.16666   0.46177   0.18392   0.00000  Uiso   1.00
Zn229  Zn    0.16667   0.55104   0.25000   0.00000  Uiso   1.00
Zn230  Zn    0.16667   0.44896   0.25000   0.00000  Uiso   1.00
I231   I     0.08501   0.44114   0.37067   0.00000  Uiso   1.00
I232   I     0.24833   0.55886   0.12933   0.00000  Uiso   1.00
C233   C     0.41995   0.50001   0.24991   0.00000  Uiso   1.00
C234   C     0.58005   0.49999   0.25009   0.00000  Uiso   1.00
C235   C     0.44078   0.44961   0.02539   0.00000  Uiso   1.00
C236   C     0.55922   0.55039   0.47461   0.00000  Uiso   1.00
C237   C     0.35465   0.45905   0.24456   0.00000  Uiso   1.00
C238   C     0.64535   0.54095   0.25544   0.00000  Uiso   1.00
C239   C     0.64540   0.45903   0.24464   0.00000  Uiso   1.00
C240   C     0.35460   0.54097   0.25536   0.00000  Uiso   1.00
C241   C     0.62420   0.49998   0.25008   0.00000  Uiso   1.00
C242   C     0.37580   0.50002   0.24992   0.00000  Uiso   1.00
C243   C     0.52682   0.35723   0.27678   0.00000  Uiso   1.00
C244   C     0.47318   0.64277   0.22322   0.00000  Uiso   1.00
C245   C     0.47317   0.35741   0.22322   0.00000  Uiso   1.00
C246   C     0.52682   0.64259   0.27678   0.00000  Uiso   1.00
C247   C     0.50125   0.50007   0.16350   0.00000  Uiso   1.00
C248   C     0.49875   0.49993   0.33650   0.00000  Uiso   1.00
C249   C     0.52747   0.52513   0.40637   0.00000  Uiso   1.00
C250   C     0.47253   0.47487   0.09363   0.00000  Uiso   1.00
C251   C     0.49742   0.49982   0.38419   0.00000  Uiso   1.00
C252   C     0.50258   0.50018   0.11581   0.00000  Uiso   1.00
C253   C     0.46701   0.47488   0.40720   0.00000  Uiso   1.00
C254   C     0.53299   0.52512   0.09280   0.00000  Uiso   1.00
C255   C     0.46811   0.47452   0.45407   0.00000  Uiso   1.00
C256   C     0.53189   0.52548   0.04593   0.00000  Uiso   1.00
C257   C     0.49920   0.49992   0.47662   0.00000  Uiso   1.00
C258   C     0.50080   0.50008   0.02338   0.00000  Uiso   1.00
C259   C     0.52869   0.52534   0.45248   0.00000  Uiso   1.00
C260   C     0.47131   0.47466   0.04752   0.00000  Uiso   1.00
C261   C     0.43914   0.44952   0.47905   0.00000  Uiso   1.00
C262   C     0.56086   0.55049   0.02095   0.00000  Uiso   1.00
H263   H     0.55039   0.54416   0.38745   0.00000  Uiso   1.00
H264   H     0.44961   0.45584   0.11255   0.00000  Uiso   1.00
H265   H     0.41510   0.42947   0.46344   0.00000  Uiso   1.00
H266   H     0.58490   0.57053   0.03656   0.00000  Uiso   1.00
H267   H     0.41810   0.43005   0.04396   0.00000  Uiso   1.00
H268   H     0.58190   0.56995   0.45604   0.00000  Uiso   1.00
H269   H     0.37084   0.42716   0.24015   0.00000  Uiso   1.00
H270   H     0.62916   0.57284   0.25985   0.00000  Uiso   1.00
H271   H     0.62923   0.42713   0.24027   0.00000  Uiso   1.00
H272   H     0.37077   0.57287   0.25973   0.00000  Uiso   1.00
H273   H     0.54825   0.37535   0.29819   0.00000  Uiso   1.00
H274   H     0.45175   0.62465   0.20181   0.00000  Uiso   1.00
H275   H     0.45174   0.37568   0.20182   0.00000  Uiso   1.00
H276   H     0.54826   0.62432   0.29818   0.00000  Uiso   1.00
N277   N     0.50000   0.61907   0.25000   0.00000  Uiso   1.00
N278   N     0.50000   0.38093   0.25000   0.00000  Uiso   1.00
O279   O     0.43892   0.53821   0.25000   0.00000  Uiso   1.00
O280   O     0.56108   0.46179   0.25000   0.00000  Uiso   1.00
O281   O     0.56108   0.53821   0.25000   0.00000  Uiso   1.00
O282   O     0.43892   0.46179   0.25000   0.00000  Uiso   1.00
O283   O     0.49999   0.53823   0.18393   0.00000  Uiso   1.00
O284   O     0.50001   0.46177   0.31607   0.00000  Uiso   1.00
O285   O     0.50001   0.53823   0.31608   0.00000  Uiso   1.00
O286   O     0.49999   0.46177   0.18392   0.00000  Uiso   1.00
Zn287  Zn    0.50000   0.55104   0.25000   0.00000  Uiso   1.00
Zn288  Zn    0.50000   0.44896   0.25000   0.00000  Uiso   1.00
I289   I     0.41834   0.44114   0.37067   0.00000  Uiso   1.00
I290   I     0.58166   0.55886   0.12933   0.00000  Uiso   1.00
C291   C     0.75328   0.50001   0.24991   0.00000  Uiso   1.00
C292   C     0.91338   0.49999   0.25009   0.00000  Uiso   1.00
C293   C     0.77412   0.44961   0.02539   0.00000  Uiso   1.00
C294   C     0.89255   0.55039   0.47461   0.00000  Uiso   1.00
C295   C     0.68798   0.45905   0.24456   0.00000  Uiso   1.00
C296   C     0.97869   0.54095   0.25544   0.00000  Uiso   1.00
C297   C     0.97873   0.45903   0.24464   0.00000  Uiso   1.00
C298   C     0.68794   0.54097   0.25536   0.00000  Uiso   1.00
C299   C     0.95753   0.49998   0.25008   0.00000  Uiso   1.00
C300   C     0.70914   0.50002   0.24992   0.00000  Uiso   1.00
C301   C     0.86015   0.35723   0.27678   0.00000  Uiso   1.00
C302   C     0.80651   0.64277   0.22322   0.00000  Uiso   1.00
C303   C     0.80651   0.35741   0.22322   0.00000  Uiso   1.00
C304   C     0.86016   0.64259   0.27678   0.00000  Uiso   1.00
C305   C     0.83458   0.50007   0.16350   0.00000  Uiso   1.00
C306   C     0.83208   0.49993   0.33650   0.00000  Uiso   1.00
C307   C     0.86081   0.52513   0.40637   0.00000  Uiso   1.00
C308   C     0.80586   0.47487   0.09363   0.00000  Uiso   1.00
C309   C     0.83075   0.49982   0.38419   0.00000  Uiso   1.00
C310   C     0.83591   0.50018   0.11581   0.00000  Uiso   1.00
C311   C     0.80034   0.47488   0.40720   0.00000  Uiso   1.00
C312   C     0.86632   0.52512   0.09280   0.00000  Uiso   1.00
C313   C     0.80145   0.47452   0.45407   0.00000  Uiso   1.00
C314   C     0.86522   0.52548   0.04593   0.00000  Uiso   1.00
C315   C     0.83254   0.49992   0.47662   0.00000  Uiso   1.00
C316   C     0.83413   0.50008   0.02338   0.00000  Uiso   1.00
C317   C     0.86202   0.52534   0.45248   0.00000  Uiso   1.00
C318   C     0.80464   0.47466   0.04752   0.00000  Uiso   1.00
C319   C     0.77247   0.44952   0.47905   0.00000  Uiso   1.00
C320   C     0.89420   0.55049   0.02095   0.00000  Uiso   1.00
H321   H     0.88372   0.54416   0.38745   0.00000  Uiso   1.00
H322   H     0.78294   0.45584   0.11255   0.00000  Uiso   1.00
H323   H     0.74843   0.42947   0.46344   0.00000  Uiso   1.00
H324   H     0.91823   0.57053   0.03656   0.00000  Uiso   1.00
H325   H     0.75143   0.43005   0.04396   0.00000  Uiso   1.00
H326   H     0.91524   0.56995   0.45604   0.00000  Uiso   1.00
H327   H     0.70418   0.42716   0.24015   0.00000  Uiso   1.00
H328   H     0.96249   0.57284   0.25985   0.00000  Uiso   1.00
H329   H     0.96257   0.42713   0.24027   0.00000  Uiso   1.00
H330   H     0.70410   0.57287   0.25973   0.00000  Uiso   1.00
H331   H     0.88158   0.37535   0.29819   0.00000  Uiso   1.00
H332   H     0.78508   0.62465   0.20181   0.00000  Uiso   1.00
H333   H     0.78507   0.37568   0.20182   0.00000  Uiso   1.00
H334   H     0.88160   0.62432   0.29818   0.00000  Uiso   1.00
N335   N     0.83333   0.61907   0.25000   0.00000  Uiso   1.00
N336   N     0.83333   0.38093   0.25000   0.00000  Uiso   1.00
O337   O     0.77226   0.53821   0.25000   0.00000  Uiso   1.00
O338   O     0.89441   0.46179   0.25000   0.00000  Uiso   1.00
O339   O     0.89441   0.53821   0.25000   0.00000  Uiso   1.00
O340   O     0.77226   0.46179   0.25000   0.00000  Uiso   1.00
O341   O     0.83333   0.53823   0.18393   0.00000  Uiso   1.00
O342   O     0.83334   0.46177   0.31607   0.00000  Uiso   1.00
O343   O     0.83334   0.53823   0.31608   0.00000  Uiso   1.00
O344   O     0.83333   0.46177   0.18392   0.00000  Uiso   1.00
Zn345  Zn    0.83333   0.55104   0.25000   0.00000  Uiso   1.00
Zn346  Zn    0.83333   0.44896   0.25000   0.00000  Uiso   1.00
I347   I     0.75167   0.44114   0.37067   0.00000  Uiso   1.00
I348   I     0.91499   0.55886   0.12933   0.00000  Uiso   1.00
C349   C     0.08662   0.83335   0.24991   0.00000  Uiso   1.00
C350   C     0.24672   0.83332   0.25009   0.00000  Uiso   1.00
C351   C     0.10745   0.78295   0.02539   0.00000  Uiso   1.00
C352   C     0.22588   0.88372   0.47461   0.00000  Uiso   1.00
C353   C     0.02131   0.79238   0.24456   0.00000  Uiso   1.00
C354   C     0.31202   0.87428   0.25544   0.00000  Uiso   1.00
C355   C     0.31206   0.79236   0.24464   0.00000  Uiso   1.00
C356   C     0.02127   0.87430   0.25536   0.00000  Uiso   1.00
C357   C     0.29086   0.83331   0.25008   0.00000  Uiso   1.00
C358   C     0.04247   0.83335   0.24992   0.00000  Uiso   1.00
C359   C     0.19349   0.69056   0.27678   0.00000  Uiso   1.00
C360   C     0.13985   0.97610   0.22322   0.00000  Uiso   1.00
C361   C     0.13984   0.69075   0.22322   0.00000  Uiso   1.00
C362   C     0.19349   0.97592   0.27678   0.00000  Uiso   1.00
C363   C     0.16792   0.83340   0.16350   0.00000  Uiso   1.00
C364   C     0.16542   0.83326   0.33650   0.00000  Uiso   1.00
C365   C     0.19414   0.85847   0.40637   0.00000  Uiso   1.00
C366   C     0.13919   0.80820   0.09363   0.00000  Uiso   1.00
C367   C     0.16409   0.83316   0.38419   0.00000  Uiso   1.00
C368   C     0.16925   0.83351   0.11581   0.00000  Uiso   1.00
C369   C     0.13368   0.80821   0.40720   0.00000  Uiso   1.00
C370   C     0.19966   0.85846   0.09280   0.00000  Uiso   1.00
C371   C     0.13478   0.80785   0.45407   0.00000  Uiso   1.00
C372   C     0.19855   0.85882   0.04593   0.00000  Uiso   1.00
C373   C     0.16587   0.83326   0.47662   0.00000  Uiso   1.00
C374   C     0.16746   0.83341   0.02338   0.00000  Uiso   1.00
C375   C     0.19536   0.85867   0.45248   0.00000  Uiso   1.00
C376   C     0.13798   0.80800   0.04752   0.00000  Uiso   1.00
C377   C     0.10580   0.78285   0.47905   0.00000  Uiso   1.00
C378   C     0.22753   0.88382   0.02095   0.00000  Uiso   1.00
H379   H     0.21706   0.87749   0.38745   0.00000  Uiso   1.00
H380   H     0.11628   0.78917   0.11255   0.00000  Uiso   1.00
H381   H     0.08177   0.76280   0.46344   0.00000  Uiso   1.00
H382   H     0.25156   0.90386   0.03656   0.00000  Uiso   1.00
H383   H     0.08476   0.76338   0.04396   0.00000  Uiso   1.00
H384   H     0.24857   0.90328   0.45604   0.00000  Uiso   1.00
H385   H     0.03751   0.76049   0.24015   0.00000  Uiso   1.00
H386   H     0.29582   0.90617   0.25985   0.00000  Uiso   1.00
H387   H     0.29590   0.76047   0.24027   0.00000  Uiso   1.00
H388   H     0.03743   0.90620   0.25973   0.00000  Uiso   1.00
H389   H     0.21492   0.70869   0.29819   0.00000  Uiso   1.00
H390   H     0.11841   0.95798   0.20181   0.00000  Uiso   1.00
H391   H     0.11840   0.70901   0.20182   0.00000  Uiso   1.00
H392   H     0.21493   0.95765   0.29818   0.00000  Uiso   1.00
N393   N     0.16667   0.95240   0.25000   0.00000  Uiso   1.00
N394   N     0.16667   0.71427   0.25000   0.00000  Uiso   1.00
O395   O     0.10559   0.87154   0.25000   0.00000  Uiso   1.00
O396   O     0.22774   0.79513   0.25000   0.00000  Uiso   1.00
O397   O     0.22774   0.87154   0.25000   0.00000  Uiso   1.00
O398   O     0.10559   0.79513   0.25000   0.00000  Uiso   1.00
O399   O     0.16666   0.87156   0.18393   0.00000  Uiso   1.00
O400   O     0.16667   0.79511   0.31607   0.00000  Uiso   1.00
O401   O     0.16667   0.87156   0.31608   0.00000  Uiso   1.00
O402   O     0.16666   0.79511   0.18392   0.00000  Uiso   1.00
Zn403  Zn    0.16667   0.88437   0.25000   0.00000  Uiso   1.00
Zn404  Zn    0.16667   0.78229   0.25000   0.00000  Uiso   1.00
I405   I     0.08501   0.77447   0.37067   0.00000  Uiso   1.00
I406   I     0.24833   0.89219   0.12933   0.00000  Uiso   1.00
C407   C     0.41995   0.83335   0.24991   0.00000  Uiso   1.00
C408   C     0.58005   0.83332   0.25009   0.00000  Uiso   1.00
C409   C     0.44078   0.78295   0.02539   0.00000  Uiso   1.00
C410   C     0.55922   0.88372   0.47461   0.00000  Uiso   1.00
C411   C     0.35465   0.79238   0.24456   0.00000  Uiso   1.00
C412   C     0.64535   0.87428   0.25544   0.00000  Uiso   1.00
C413   C     0.64540   0.79236   0.24464   0.00000  Uiso   1.00
C414   C     0.35460   0.87430   0.25536   0.00000  Uiso   1.00
C415   C     0.62420   0.83331   0.25008   0.00000  Uiso   1.00
C416   C     0.37580   0.83335   0.24992   0.00000  Uiso   1.00
C417   C     0.52682   0.69056   0.27678   0.00000  Uiso   1.00
C418   C     0.47318   0.97610   0.22322   0.00000  Uiso   1.00
C419   C     0.47317   0.69075   0.22322   0.00000  Uiso   1.00
C420   C     0.52682   0.97592   0.27678   0.00000  Uiso   1.00
C421   C     0.50125   0.83340   0.16350   0.00000  Uiso   1.00
C422   C     0.49875   0.83326   0.33650   0.00000  Uiso   1.00
C423   C     0.52747   0.85847   0.40637   0.00000  Uiso   1.00
C424   C     0.47253   0.80820   0.09363   0.00000  Uiso   1.00
C425   C     0.49742   0.83316   0.38419   0.00000  Uiso   1.00
C426   C     0.50258   0.83351   0.11581   0.00000  Uiso   1.00
C427   C     0.46701   0.80821   0.40720   0.00000  Uiso   1.00
C428   C     0.53299   0.85846   0.09280   0.00000  Uiso   1.00
C429   C     0.46811   0.80785   0.45407   0.00000  Uiso   1.00
C430   C     0.53189   0.85882   0.04593   0.00000  Uiso   1.00
C431   C     0.49920   0.83326   0.47662   0.00000  Uiso   1.00
C432   C     0.50080   0.83341   0.02338   0.00000  Uiso   1.00
C433   C     0.52869   0.85867   0.45248   0.00000  Uiso   1.00
C434   C     0.47131   0.80800   0.04752   0.00000  Uiso   1.00
C435   C     0.43914   0.78285   0.47905   0.00000  Uiso   1.00
C436   C     0.56086   0.88382   0.02095   0.00000  Uiso   1.00
H437   H     0.55039   0.87749   0.38745   0.00000  Uiso   1.00
H438   H     0.44961   0.78917   0.11255   0.00000  Uiso   1.00
H439   H     0.41510   0.76280   0.46344   0.00000  Uiso   1.00
H440   H     0.58490   0.90386   0.03656   0.00000  Uiso   1.00
H441   H     0.41810   0.76338   0.04396   0.00000  Uiso   1.00
H442   H     0.58190   0.90328   0.45604   0.00000  Uiso   1.00
H443   H     0.37084   0.76049   0.24015   0.00000  Uiso   1.00
H444   H     0.62916   0.90617   0.25985   0.00000  Uiso   1.00
H445   H     0.62923   0.76047   0.24027   0.00000  Uiso   1.00
H446   H     0.37077   0.90620   0.25973   0.00000  Uiso   1.00
H447   H     0.54825   0.70869   0.29819   0.00000  Uiso   1.00
H448   H     0.45175   0.95798   0.20181   0.00000  Uiso   1.00
H449   H     0.45174   0.70901   0.20182   0.00000  Uiso   1.00
H450   H     0.54826   0.95765   0.29818   0.00000  Uiso   1.00
N451   N     0.50000   0.95240   0.25000   0.00000  Uiso   1.00
N452   N     0.50000   0.71427   0.25000   0.00000  Uiso   1.00
O453   O     0.43892   0.87154   0.25000   0.00000  Uiso   1.00
O454   O     0.56108   0.79513   0.25000   0.00000  Uiso   1.00
O455   O     0.56108   0.87154   0.25000   0.00000  Uiso   1.00
O456   O     0.43892   0.79513   0.25000   0.00000  Uiso   1.00
O457   O     0.49999   0.87156   0.18393   0.00000  Uiso   1.00
O458   O     0.50001   0.79511   0.31607   0.00000  Uiso   1.00
O459   O     0.50001   0.87156   0.31608   0.00000  Uiso   1.00
O460   O     0.49999   0.79511   0.18392   0.00000  Uiso   1.00
Zn461  Zn    0.50000   0.88437   0.25000   0.00000  Uiso   1.00
Zn462  Zn    0.50000   0.78229   0.25000   0.00000  Uiso   1.00
I463   I     0.41834   0.77447   0.37067   0.00000  Uiso   1.00
I464   I     0.58166   0.89219   0.12933   0.00000  Uiso   1.00
C465   C     0.75328   0.83335   0.24991   0.00000  Uiso   1.00
C466   C     0.91338   0.83332   0.25009   0.00000  Uiso   1.00
C467   C     0.77412   0.78295   0.02539   0.00000  Uiso   1.00
C468   C     0.89255   0.88372   0.47461   0.00000  Uiso   1.00
C469   C     0.68798   0.79238   0.24456   0.00000  Uiso   1.00
C470   C     0.97869   0.87428   0.25544   0.00000  Uiso   1.00
C471   C     0.97873   0.79236   0.24464   0.00000  Uiso   1.00
C472   C     0.68794   0.87430   0.25536   0.00000  Uiso   1.00
C473   C     0.95753   0.83331   0.25008   0.00000  Uiso   1.00
C474   C     0.70914   0.83335   0.24992   0.00000  Uiso   1.00
C475   C     0.86015   0.69056   0.27678   0.00000  Uiso   1.00
C476   C     0.80651   0.97610   0.22322   0.00000  Uiso   1.00
C477   C     0.80651   0.69075   0.22322   0.00000  Uiso   1.00
C478   C     0.86016   0.97592   0.27678   0.00000  Uiso   1.00
C479   C     0.83458   0.83340   0.16350   0.00000  Uiso   1.00
C480   C     0.83208   0.83326   0.33650   0.00000  Uiso   1.00
C481   C     0.86081   0.85847   0.40637   0.00000  Uiso   1.00
C482   C     0.80586   0.80820   0.09363   0.00000  Uiso   1.00
C483   C     0.83075   0.83316   0.38419   0.00000  Uiso   1.00
C484   C     0.83591   0.83351   0.11581   0.00000  Uiso   1.00
C485   C     0.80034   0.80821   0.40720   0.00000  Uiso   1.00
C486   C     0.86632   0.85846   0.09280   0.00000  Uiso   1.00
C487   C     0.80145   0.80785   0.45407   0.00000  Uiso   1.00
C488   C     0.86522   0.85882   0.04593   0.00000  Uiso   1.00
C489   C     0.83254   0.83326   0.47662   0.00000  Uiso   1.00
C490   C     0.83413   0.83341   0.02338   0.00000  Uiso   1.00
C491   C     0.86202   0.85867   0.45248   0.00000  Uiso   1.00
C492   C     0.80464   0.80800   0.04752   0.00000  Uiso   1.00
C493   C     0.77247   0.78285   0.47905   0.00000  Uiso   1.00
C494   C     0.89420   0.88382   0.02095   0.00000  Uiso   1.00
H495   H     0.88372   0.87749   0.38745   0.00000  Uiso   1.00
H496   H     0.78294   0.78917   0.11255   0.00000  Uiso   1.00
H497   H     0.74843   0.76280   0.46344   0.00000  Uiso   1.00
H498   H     0.91823   0.90386   0.03656   0.00000  Uiso   1.00
H499   H     0.75143   0.76338   0.04396   0.00000  Uiso   1.00
H500   H     0.91524   0.90328   0.45604   0.00000  Uiso   1.00
H501   H     0.70418   0.76049   0.24015   0.00000  Uiso   1.00
H502   H     0.96249   0.90617   0.25985   0.00000  Uiso   1.00
H503   H     0.96257   0.76047   0.24027   0.00000  Uiso   1.00
H504   H     0.70410   0.90620   0.25973   0.00000  Uiso   1.00
H505   H     0.88158   0.70869   0.29819   0.00000  Uiso   1.00
H506   H     0.78508   0.95798   0.20181   0.00000  Uiso   1.00
H507   H     0.78507   0.70901   0.20182   0.00000  Uiso   1.00
H508   H     0.88160   0.95765   0.29818   0.00000  Uiso   1.00
N509   N     0.83333   0.95240   0.25000   0.00000  Uiso   1.00
N510   N     0.83333   0.71427   0.25000   0.00000  Uiso   1.00
O511   O     0.77226   0.87154   0.25000   0.00000  Uiso   1.00
O512   O     0.89441   0.79513   0.25000   0.00000  Uiso   1.00
O513   O     0.89441   0.87154   0.25000   0.00000  Uiso   1.00
O514   O     0.77226   0.79513   0.25000   0.00000  Uiso   1.00
O515   O     0.83333   0.87156   0.18393   0.00000  Uiso   1.00
O516   O     0.83334   0.79511   0.31607   0.00000  Uiso   1.00
O517   O     0.83334   0.87156   0.31608   0.00000  Uiso   1.00
O518   O     0.83333   0.79511   0.18392   0.00000  Uiso   1.00
Zn519  Zn    0.83333   0.88437   0.25000   0.00000  Uiso   1.00
Zn520  Zn    0.83333   0.78229   0.25000   0.00000  Uiso   1.00
I521   I     0.75167   0.77447   0.37067   0.00000  Uiso   1.00
I522   I     0.91499   0.89219   0.12933   0.00000  Uiso   1.00
C523   C     0.08662   0.16668   0.74991   0.00000  Uiso   1.00
C524   C     0.24672   0.16665   0.75009   0.00000  Uiso   1.00
C525   C     0.10745   0.11628   0.52539   0.00000  Uiso   1.00
C526   C     0.22588   0.21705   0.97461   0.00000  Uiso   1.00
C527   C     0.02131   0.12572   0.74456   0.00000  Uiso   1.00
C528   C     0.31202   0.20762   0.75544   0.00000  Uiso   1.00
C529   C     0.31206   0.12570   0.74464   0.00000  Uiso   1.00
C530   C     0.02127   0.20764   0.75536   0.00000  Uiso   1.00
C531   C     0.29086   0.16665   0.75008   0.00000  Uiso   1.00
C532   C     0.04247   0.16669   0.74992   0.00000  Uiso   1.00
C533   C     0.19349   0.02390   0.77678   0.00000  Uiso   1.00
C534   C     0.13985   0.30944   0.72322   0.00000  Uiso   1.00
C535   C     0.13984   0.02408   0.72322   0.00000  Uiso   1.00
C536   C     0.19349   0.30925   0.77678   0.00000  Uiso   1.00
C537   C     0.16792   0.16674   0.66350   0.00000  Uiso   1.00
C538   C     0.16542   0.16660   0.83650   0.00000  Uiso   1.00
C539   C     0.19414   0.19180   0.90637   0.00000  Uiso   1.00
C540   C     0.13919   0.14153   0.59363   0.00000  Uiso   1.00
C541   C     0.16409   0.16649   0.88419   0.00000  Uiso   1.00
C542   C     0.16925   0.16684   0.61581   0.00000  Uiso   1.00
C543   C     0.13368   0.14154   0.90720   0.00000  Uiso   1.00
C544   C     0.19966   0.19179   0.59280   0.00000  Uiso   1.00
C545   C     0.13478   0.14118   0.95407   0.00000  Uiso   1.00
C546   C     0.19855   0.19215   0.54593   0.00000  Uiso   1.00
C547   C     0.16587   0.16659   0.97662   0.00000  Uiso   1.00
C548   C     0.16746   0.16674   0.52338   0.00000  Uiso   1.00
C549   C     0.19536   0.19200   0.95248   0.00000  Uiso   1.00
C550   C     0.13798   0.14133   0.54752   0.00000  Uiso   1.00
C551   C     0.10580   0.11618   0.97905   0.00000  Uiso   1.00
C552   C     0.22753   0.21715   0.52095   0.00000  Uiso   1.00
H553   H     0.21706   0.21083   0.88745   0.00000  Uiso   1.00
H554   H     0.11628   0.12251   0.61255   0.00000  Uiso   1.00
H555   H     0.08177   0.09614   0.96344   0.00000  Uiso   1.00
H556   H     0.25156   0.23720   0.53656   0.00000  Uiso   1.00
H557   H     0.08476   0.09672   0.54396   0.00000  Uiso   1.00
H558   H     0.24857   0.23662   0.95604   0.00000  Uiso   1.00
H559   H     0.03751   0.09383   0.74015   0.00000  Uiso   1.00
H560   H     0.29582   0.23951   0.75985   0.00000  Uiso   1.00
H561   H     0.29590   0.09380   0.74027   0.00000  Uiso   1.00
H562   H     0.03743   0.23953   0.75973   0.00000  Uiso   1.00
H563   H     0.21492   0.04202   0.79819   0.00000  Uiso   1.00
H564   H     0.11841   0.29131   0.70181   0.00000  Uiso   1.00
H565   H     0.11840   0.04235   0.70182   0.00000  Uiso   1.00
H566   H     0.21493   0.29099   0.79818   0.00000  Uiso   1.00
N567   N     0.16667   0.28573   0.75000   0.00000  Uiso   1.00
N568   N     0.16667   0.04760   0.75000   0.00000  Uiso   1.00
O569   O     0.10559   0.20487   0.75000   0.00000  Uiso   1.00
O570   O     0.22774   0.12846   0.75000   0.00000  Uiso   1.00
O571   O     0.22774   0.20487   0.75000   0.00000  Uiso   1.00
O572   O     0.10559   0.12846   0.75000   0.00000  Uiso   1.00
O573   O     0.16666   0.20489   0.68393   0.00000  Uiso   1.00
O574   O     0.16667   0.12844   0.81607   0.00000  Uiso   1.00
O575   O     0.16667   0.20489   0.81608   0.00000  Uiso   1.00
O576   O     0.16666   0.12844   0.68392   0.00000  Uiso   1.00
Zn577  Zn    0.16667   0.21771   0.75000   0.00000  Uiso   1.00
Zn578  Zn    0.16667   0.11563   0.75000   0.00000  Uiso   1.00
I579   I     0.08501   0.10781   0.87067   0.00000  Uiso   1.00
I580   I     0.24833   0.22553   0.62933   0.00000  Uiso   1.00
C581   C     0.41995   0.16668   0.74991   0.00000  Uiso   1.00
C582   C     0.58005   0.16665   0.75009   0.00000  Uiso   1.00
C583   C     0.44078   0.11628   0.52539   0.00000  Uiso   1.00
C584   C     0.55922   0.21705   0.97461   0.00000  Uiso   1.00
C585   C     0.35465   0.12572   0.74456   0.00000  Uiso   1.00
C586   C     0.64535   0.20762   0.75544   0.00000  Uiso   1.00
C587   C     0.64540   0.12570   0.74464   0.00000  Uiso   1.00
C588   C     0.35460   0.20764   0.75536   0.00000  Uiso   1.00
C589   C     0.62420   0.16665   0.75008   0.00000  Uiso   1.00
C590   C     0.37580   0.16669   0.74992   0.00000  Uiso   1.00
C591   C     0.52682   0.02390   0.77678   0.00000  Uiso   1.00
C592   C     0.47318   0.30944   0.72322   0.00000  Uiso   1.00
C593   C     0.47317   0.02408   0.72322   0.00000  Uiso   1.00
C594   C     0.52682   0.30925   0.77678   0.00000  Uiso   1.00
C595   C     0.50125   0.16674   0.66350   0.00000  Uiso   1.00
C596   C     0.49875   0.16660   0.83650   0.00000  Uiso   1.00
C597   C     0.52747   0.19180   0.90637   0.00000  Uiso   1.00
C598   C     0.47253   0.14153   0.59363   0.00000  Uiso   1.00
C599   C     0.49742   0.16649   0.88419   0.00000  Uiso   1.00
C600   C     0.50258   0.16684   0.61581   0.00000  Uiso   1.00
C601   C     0.46701   0.14154   0.90720   0.00000  Uiso   1.00
C602   C     0.53299   0.19179   0.59280   0.00000  Uiso   1.00
C603   C     0.46811   0.14118   0.95407   0.00000  Uiso   1.00
C604   C     0.53189   0.19215   0.54593   0.00000  Uiso   1.00
C605   C     0.49920   0.16659   0.97662   0.00000  Uiso   1.00
C606   C     0.50080   0.16674   0.52338   0.00000  Uiso   1.00
C607   C     0.52869   0.19200   0.95248   0.00000  Uiso   1.00
C608   C     0.47131   0.14133   0.54752   0.00000  Uiso   1.00
C609   C     0.43914   0.11618   0.97905   0.00000  Uiso   1.00
C610   C     0.56086   0.21715   0.52095   0.00000  Uiso   1.00
H611   H     0.55039   0.21083   0.88745   0.00000  Uiso   1.00
H612   H     0.44961   0.12251   0.61255   0.00000  Uiso   1.00
H613   H     0.41510   0.09614   0.96344   0.00000  Uiso   1.00
H614   H     0.58490   0.23720   0.53656   0.00000  Uiso   1.00
H615   H     0.41810   0.09672   0.54396   0.00000  Uiso   1.00
H616   H     0.58190   0.23662   0.95604   0.00000  Uiso   1.00
H617   H     0.37084   0.09383   0.74015   0.00000  Uiso   1.00
H618   H     0.62916   0.23951   0.75985   0.00000  Uiso   1.00
H619   H     0.62923   0.09380   0.74027   0.00000  Uiso   1.00
H620   H     0.37077   0.23953   0.75973   0.00000  Uiso   1.00
H621   H     0.54825   0.04202   0.79819   0.00000  Uiso   1.00
H622   H     0.45175   0.29131   0.70181   0.00000  Uiso   1.00
H623   H     0.45174   0.04235   0.70182   0.00000  Uiso   1.00
H624   H     0.54826   0.29099   0.79818   0.00000  Uiso   1.00
N625   N     0.50000   0.28573   0.75000   0.00000  Uiso   1.00
N626   N     0.50000   0.04760   0.75000   0.00000  Uiso   1.00
O627   O     0.43892   0.20487   0.75000   0.00000  Uiso   1.00
O628   O     0.56108   0.12846   0.75000   0.00000  Uiso   1.00
O629   O     0.56108   0.20487   0.75000   0.00000  Uiso   1.00
O630   O     0.43892   0.12846   0.75000   0.00000  Uiso   1.00
O631   O     0.49999   0.20489   0.68393   0.00000  Uiso   1.00
O632   O     0.50001   0.12844   0.81607   0.00000  Uiso   1.00
O633   O     0.50001   0.20489   0.81608   0.00000  Uiso   1.00
O634   O     0.49999   0.12844   0.68392   0.00000  Uiso   1.00
Zn635  Zn    0.50000   0.21771   0.75000   0.00000  Uiso   1.00
Zn636  Zn    0.50000   0.11563   0.75000   0.00000  Uiso   1.00
I637   I     0.41834   0.10781   0.87067   0.00000  Uiso   1.00
I638   I     0.58166   0.22553   0.62933   0.00000  Uiso   1.00
C639   C     0.75328   0.16668   0.74991   0.00000  Uiso   1.00
C640   C     0.91338   0.16665   0.75009   0.00000  Uiso   1.00
C641   C     0.77412   0.11628   0.52539   0.00000  Uiso   1.00
C642   C     0.89255   0.21705   0.97461   0.00000  Uiso   1.00
C643   C     0.68798   0.12572   0.74456   0.00000  Uiso   1.00
C644   C     0.97869   0.20762   0.75544   0.00000  Uiso   1.00
C645   C     0.97873   0.12570   0.74464   0.00000  Uiso   1.00
C646   C     0.68794   0.20764   0.75536   0.00000  Uiso   1.00
C647   C     0.95753   0.16665   0.75008   0.00000  Uiso   1.00
C648   C     0.70914   0.16669   0.74992   0.00000  Uiso   1.00
C649   C     0.86015   0.02390   0.77678   0.00000  Uiso   1.00
C650   C     0.80651   0.30944   0.72322   0.00000  Uiso   1.00
C651   C     0.80651   0.02408   0.72322   0.00000  Uiso   1.00
C652   C     0.86016   0.30925   0.77678   0.00000  Uiso   1.00
C653   C     0.83458   0.16674   0.66350   0.00000  Uiso   1.00
C654   C     0.83208   0.16660   0.83650   0.00000  Uiso   1.00
C655   C     0.86081   0.19180   0.90637   0.00000  Uiso   1.00
C656   C     0.80586   0.14153   0.59363   0.00000  Uiso   1.00
C657   C     0.83075   0.16649   0.88419   0.00000  Uiso   1.00
C658   C     0.83591   0.16684   0.61581   0.00000  Uiso   1.00
C659   C     0.80034   0.14154   0.90720   0.00000  Uiso   1.00
C660   C     0.86632   0.19179   0.59280   0.00000  Uiso   1.00
C661   C     0.80145   0.14118   0.95407   0.00000  Uiso   1.00
C662   C     0.86522   0.19215   0.54593   0.00000  Uiso   1.00
C663   C     0.83254   0.16659   0.97662   0.00000  Uiso   1.00
C664   C     0.83413   0.16674   0.52338   0.00000  Uiso   1.00
C665   C     0.86202   0.19200   0.95248   0.00000  Uiso   1.00
C666   C     0.80464   0.14133   0.54752   0.00000  Uiso   1.00
C667   C     0.77247   0.11618   0.97905   0.00000  Uiso   1.00
C668   C     0.89420   0.21715   0.52095   0.00000  Uiso   1.00
H669   H     0.88372   0.21083   0.88745   0.00000  Uiso   1.00
H670   H     0.78294   0.12251   0.61255   0.00000  Uiso   1.00
H671   H     0.74843   0.09614   0.96344   0.00000  Uiso   1.00
H672   H     0.91823   0.23720   0.53656   0.00000  Uiso   1.00
H673   H     0.75143   0.09672   0.54396   0.00000  Uiso   1.00
H674   H     0.91524   0.23662   0.95604   0.00000  Uiso   1.00
H675   H     0.70418   0.09383   0.74015   0.00000  Uiso   1.00
H676   H     0.96249   0.23951   0.75985   0.00000  Uiso   1.00
H677   H     0.96257   0.09380   0.74027   0.00000  Uiso   1.00
H678   H     0.70410   0.23953   0.75973   0.00000  Uiso   1.00
H679   H     0.88158   0.04202   0.79819   0.00000  Uiso   1.00
H680   H     0.78508   0.29131   0.70181   0.00000  Uiso   1.00
H681   H     0.78507   0.04235   0.70182   0.00000  Uiso   1.00
H682   H     0.88160   0.29099   0.79818   0.00000  Uiso   1.00
N683   N     0.83333   0.28573   0.75000   0.00000  Uiso   1.00
N684   N     0.83333   0.04760   0.75000   0.00000  Uiso   1.00
O685   O     0.77226   0.20487   0.75000   0.00000  Uiso   1.00
O686   O     0.89441   0.12846   0.75000   0.00000  Uiso   1.00
O687   O     0.89441   0.20487   0.75000   0.00000  Uiso   1.00
O688   O     0.77226   0.12846   0.75000   0.00000  Uiso   1.00
O689   O     0.83333   0.20489   0.68393   0.00000  Uiso   1.00
O690   O     0.83334   0.12844   0.81607   0.00000  Uiso   1.00
O691   O     0.83334   0.20489   0.81608   0.00000  Uiso   1.00
O692   O     0.83333   0.12844   0.68392   0.00000  Uiso   1.00
Zn693  Zn    0.83333   0.21771   0.75000   0.00000  Uiso   1.00
Zn694  Zn    0.83333   0.11563   0.75000   0.00000  Uiso   1.00
I695   I     0.75167   0.10781   0.87067   0.00000  Uiso   1.00
I696   I     0.91499   0.22553   0.62933   0.00000  Uiso   1.00
C697   C     0.08662   0.50001   0.74991   0.00000  Uiso   1.00
C698   C     0.24672   0.49999   0.75009   0.00000  Uiso   1.00
C699   C     0.10745   0.44961   0.52539   0.00000  Uiso   1.00
C700   C     0.22588   0.55039   0.97461   0.00000  Uiso   1.00
C701   C     0.02131   0.45905   0.74456   0.00000  Uiso   1.00
C702   C     0.31202   0.54095   0.75544   0.00000  Uiso   1.00
C703   C     0.31206   0.45903   0.74464   0.00000  Uiso   1.00
C704   C     0.02127   0.54097   0.75536   0.00000  Uiso   1.00
C705   C     0.29086   0.49998   0.75008   0.00000  Uiso   1.00
C706   C     0.04247   0.50002   0.74992   0.00000  Uiso   1.00
C707   C     0.19349   0.35723   0.77678   0.00000  Uiso   1.00
C708   C     0.13985   0.64277   0.72322   0.00000  Uiso   1.00
C709   C     0.13984   0.35741   0.72322   0.00000  Uiso   1.00
C710   C     0.19349   0.64259   0.77678   0.00000  Uiso   1.00
C711   C     0.16792   0.50007   0.66350   0.00000  Uiso   1.00
C712   C     0.16542   0.49993   0.83650   0.00000  Uiso   1.00
C713   C     0.19414   0.52513   0.90637   0.00000  Uiso   1.00
C714   C     0.13919   0.47487   0.59363   0.00000  Uiso   1.00
C715   C     0.16409   0.49982   0.88419   0.00000  Uiso   1.00
C716   C     0.16925   0.50018   0.61581   0.00000  Uiso   1.00
C717   C     0.13368   0.47488   0.90720   0.00000  Uiso   1.00
C718   C     0.19966   0.52512   0.59280   0.00000  Uiso   1.00
C719   C     0.13478   0.47452   0.95407   0.00000  Uiso   1.00
C720   C     0.19855   0.52548   0.54593   0.00000  Uiso   1.00
C721   C     0.16587   0.49992   0.97662   0.00000  Uiso   1.00
C722   C     0.16746   0.50008   0.52338   0.00000  Uiso   1.00
C723   C     0.19536   0.52534   0.95248   0.00000  Uiso   1.00
C724   C     0.13798   0.47466   0.54752   0.00000  Uiso   1.00
C725   C     0.10580   0.44952   0.97905   0.00000  Uiso   1.00
C726   C     0.22753   0.55049   0.52095   0.00000  Uiso   1.00
H727   H     0.21706   0.54416   0.88745   0.00000  Uiso   1.00
H728   H     0.11628   0.45584   0.61255   0.00000  Uiso   1.00
H729   H     0.08177   0.42947   0.96344   0.00000  Uiso   1.00
H730   H     0.25156   0.57053   0.53656   0.00000  Uiso   1.00
H731   H     0.08476   0.43005   0.54396   0.00000  Uiso   1.00
H732   H     0.24857   0.56995   0.95604   0.00000  Uiso   1.00
H733   H     0.03751   0.42716   0.74015   0.00000  Uiso   1.00
H734   H     0.29582   0.57284   0.75985   0.00000  Uiso   1.00
H735   H     0.29590   0.42713   0.74027   0.00000  Uiso   1.00
H736   H     0.03743   0.57287   0.75973   0.00000  Uiso   1.00
H737   H     0.21492   0.37535   0.79819   0.00000  Uiso   1.00
H738   H     0.11841   0.62465   0.70181   0.00000  Uiso   1.00
H739   H     0.11840   0.37568   0.70182   0.00000  Uiso   1.00
H740   H     0.21493   0.62432   0.79818   0.00000  Uiso   1.00
N741   N     0.16667   0.61907   0.75000   0.00000  Uiso   1.00
N742   N     0.16667   0.38093   0.75000   0.00000  Uiso   1.00
O743   O     0.10559   0.53821   0.75000   0.00000  Uiso   1.00
O744   O     0.22774   0.46179   0.75000   0.00000  Uiso   1.00
O745   O     0.22774   0.53821   0.75000   0.00000  Uiso   1.00
O746   O     0.10559   0.46179   0.75000   0.00000  Uiso   1.00
O747   O     0.16666   0.53823   0.68393   0.00000  Uiso   1.00
O748   O     0.16667   0.46177   0.81607   0.00000  Uiso   1.00
O749   O     0.16667   0.53823   0.81608   0.00000  Uiso   1.00
O750   O     0.16666   0.46177   0.68392   0.00000  Uiso   1.00
Zn751  Zn    0.16667   0.55104   0.75000   0.00000  Uiso   1.00
Zn752  Zn    0.16667   0.44896   0.75000   0.00000  Uiso   1.00
I753   I     0.08501   0.44114   0.87067   0.00000  Uiso   1.00
I754   I     0.24833   0.55886   0.62933   0.00000  Uiso   1.00
C755   C     0.41995   0.50001   0.74991   0.00000  Uiso   1.00
C756   C     0.58005   0.49999   0.75009   0.00000  Uiso   1.00
C757   C     0.44078   0.44961   0.52539   0.00000  Uiso   1.00
C758   C     0.55922   0.55039   0.97461   0.00000  Uiso   1.00
C759   C     0.35465   0.45905   0.74456   0.00000  Uiso   1.00
C760   C     0.64535   0.54095   0.75544   0.00000  Uiso   1.00
C761   C     0.64540   0.45903   0.74464   0.00000  Uiso   1.00
C762   C     0.35460   0.54097   0.75536   0.00000  Uiso   1.00
C763   C     0.62420   0.49998   0.75008   0.00000  Uiso   1.00
C764   C     0.37580   0.50002   0.74992   0.00000  Uiso   1.00
C765   C     0.52682   0.35723   0.77678   0.00000  Uiso   1.00
C766   C     0.47318   0.64277   0.72322   0.00000  Uiso   1.00
C767   C     0.47317   0.35741   0.72322   0.00000  Uiso   1.00
C768   C     0.52682   0.64259   0.77678   0.00000  Uiso   1.00
C769   C     0.50125   0.50007   0.66350   0.00000  Uiso   1.00
C770   C     0.49875   0.49993   0.83650   0.00000  Uiso   1.00
C771   C     0.52747   0.52513   0.90637   0.00000  Uiso   1.00
C772   C     0.47253   0.47487   0.59363   0.00000  Uiso   1.00
C773   C     0.49742   0.49982   0.88419   0.00000  Uiso   1.00
C774   C     0.50258   0.50018   0.61581   0.00000  Uiso   1.00
C775   C     0.46701   0.47488   0.90720   0.00000  Uiso   1.00
C776   C     0.53299   0.52512   0.59280   0.00000  Uiso   1.00
C777   C     0.46811   0.47452   0.95407   0.00000  Uiso   1.00
C778   C     0.53189   0.52548   0.54593   0.00000  Uiso   1.00
C779   C     0.49920   0.49992   0.97662   0.00000  Uiso   1.00
C780   C     0.50080   0.50008   0.52338   0.00000  Uiso   1.00
C781   C     0.52869   0.52534   0.95248   0.00000  Uiso   1.00
C782   C     0.47131   0.47466   0.54752   0.00000  Uiso   1.00
C783   C     0.43914   0.44952   0.97905   0.00000  Uiso   1.00
C784   C     0.56086   0.55049   0.52095   0.00000  Uiso   1.00
H785   H     0.55039   0.54416   0.88745   0.00000  Uiso   1.00
H786   H     0.44961   0.45584   0.61255   0.00000  Uiso   1.00
H787   H     0.41510   0.42947   0.96344   0.00000  Uiso   1.00
H788   H     0.58490   0.57053   0.53656   0.00000  Uiso   1.00
H789   H     0.41810   0.43005   0.54396   0.00000  Uiso   1.00
H790   H     0.58190   0.56995   0.95604   0.00000  Uiso   1.00
H791   H     0.37084   0.42716   0.74015   0.00000  Uiso   1.00
H792   H     0.62916   0.57284   0.75985   0.00000  Uiso   1.00
H793   H     0.62923   0.42713   0.74027   0.00000  Uiso   1.00
H794   H     0.37077   0.57287   0.75973   0.00000  Uiso   1.00
H795   H     0.54825   0.37535   0.79819   0.00000  Uiso   1.00
H796   H     0.45175   0.62465   0.70181   0.00000  Uiso   1.00
H797   H     0.45174   0.37568   0.70182   0.00000  Uiso   1.00
H798   H     0.54826   0.62432   0.79818   0.00000  Uiso   1.00
N799   N     0.50000   0.61907   0.75000   0.00000  Uiso   1.00
N800   N     0.50000   0.38093   0.75000   0.00000  Uiso   1.00
O801   O     0.43892   0.53821   0.75000   0.00000  Uiso   1.00
O802   O     0.56108   0.46179   0.75000   0.00000  Uiso   1.00
O803   O     0.56108   0.53821   0.75000   0.00000  Uiso   1.00
O804   O     0.43892   0.46179   0.75000   0.00000  Uiso   1.00
O805   O     0.49999   0.53823   0.68393   0.00000  Uiso   1.00
O806   O     0.50001   0.46177   0.81607   0.00000  Uiso   1.00
O807   O     0.50001   0.53823   0.81608   0.00000  Uiso   1.00
O808   O     0.49999   0.46177   0.68392   0.00000  Uiso   1.00
Zn809  Zn    0.50000   0.55104   0.75000   0.00000  Uiso   1.00
Zn810  Zn    0.50000   0.44896   0.75000   0.00000  Uiso   1.00
I811   I     0.41834   0.44114   0.87067   0.00000  Uiso   1.00
I812   I     0.58166   0.55886   0.62933   0.00000  Uiso   1.00
C813   C     0.75328   0.50001   0.74991   0.00000  Uiso   1.00
C814   C     0.91338   0.49999   0.75009   0.00000  Uiso   1.00
C815   C     0.77412   0.44961   0.52539   0.00000  Uiso   1.00
C816   C     0.89255   0.55039   0.97461   0.00000  Uiso   1.00
C817   C     0.68798   0.45905   0.74456   0.00000  Uiso   1.00
C818   C     0.97869   0.54095   0.75544   0.00000  Uiso   1.00
C819   C     0.97873   0.45903   0.74464   0.00000  Uiso   1.00
C820   C     0.68794   0.54097   0.75536   0.00000  Uiso   1.00
C821   C     0.95753   0.49998   0.75008   0.00000  Uiso   1.00
C822   C     0.70914   0.50002   0.74992   0.00000  Uiso   1.00
C823   C     0.86015   0.35723   0.77678   0.00000  Uiso   1.00
C824   C     0.80651   0.64277   0.72322   0.00000  Uiso   1.00
C825   C     0.80651   0.35741   0.72322   0.00000  Uiso   1.00
C826   C     0.86016   0.64259   0.77678   0.00000  Uiso   1.00
C827   C     0.83458   0.50007   0.66350   0.00000  Uiso   1.00
C828   C     0.83208   0.49993   0.83650   0.00000  Uiso   1.00
C829   C     0.86081   0.52513   0.90637   0.00000  Uiso   1.00
C830   C     0.80586   0.47487   0.59363   0.00000  Uiso   1.00
C831   C     0.83075   0.49982   0.88419   0.00000  Uiso   1.00
C832   C     0.83591   0.50018   0.61581   0.00000  Uiso   1.00
C833   C     0.80034   0.47488   0.90720   0.00000  Uiso   1.00
C834   C     0.86632   0.52512   0.59280   0.00000  Uiso   1.00
C835   C     0.80145   0.47452   0.95407   0.00000  Uiso   1.00
C836   C     0.86522   0.52548   0.54593   0.00000  Uiso   1.00
C837   C     0.83254   0.49992   0.97662   0.00000  Uiso   1.00
C838   C     0.83413   0.50008   0.52338   0.00000  Uiso   1.00
C839   C     0.86202   0.52534   0.95248   0.00000  Uiso   1.00
C840   C     0.80464   0.47466   0.54752   0.00000  Uiso   1.00
C841   C     0.77247   0.44952   0.97905   0.00000  Uiso   1.00
C842   C     0.89420   0.55049   0.52095   0.00000  Uiso   1.00
H843   H     0.88372   0.54416   0.88745   0.00000  Uiso   1.00
H844   H     0.78294   0.45584   0.61255   0.00000  Uiso   1.00
H845   H     0.74843   0.42947   0.96344   0.00000  Uiso   1.00
H846   H     0.91823   0.57053   0.53656   0.00000  Uiso   1.00
H847   H     0.75143   0.43005   0.54396   0.00000  Uiso   1.00
H848   H     0.91524   0.56995   0.95604   0.00000  Uiso   1.00
H849   H     0.70418   0.42716   0.74015   0.00000  Uiso   1.00
H850   H     0.96249   0.57284   0.75985   0.00000  Uiso   1.00
H851   H     0.96257   0.42713   0.74027   0.00000  Uiso   1.00
H852   H     0.70410   0.57287   0.75973   0.00000  Uiso   1.00
H853   H     0.88158   0.37535   0.79819   0.00000  Uiso   1.00
H854   H     0.78508   0.62465   0.70181   0.00000  Uiso   1.00
H855   H     0.78507   0.37568   0.70182   0.00000  Uiso   1.00
H856   H     0.88160   0.62432   0.79818   0.00000  Uiso   1.00
N857   N     0.83333   0.61907   0.75000   0.00000  Uiso   1.00
N858   N     0.83333   0.38093   0.75000   0.00000  Uiso   1.00
O859   O     0.77226   0.53821   0.75000   0.00000  Uiso   1.00
O860   O     0.89441   0.46179   0.75000   0.00000  Uiso   1.00
O861   O     0.89441   0.53821   0.75000   0.00000  Uiso   1.00
O862   O     0.77226   0.46179   0.75000   0.00000  Uiso   1.00
O863   O     0.83333   0.53823   0.68393   0.00000  Uiso   1.00
O864   O     0.83334   0.46177   0.81607   0.00000  Uiso   1.00
O865   O     0.83334   0.53823   0.81608   0.00000  Uiso   1.00
O866   O     0.83333   0.46177   0.68392   0.00000  Uiso   1.00
Zn867  Zn    0.83333   0.55104   0.75000   0.00000  Uiso   1.00
Zn868  Zn    0.83333   0.44896   0.75000   0.00000  Uiso   1.00
I869   I     0.75167   0.44114   0.87067   0.00000  Uiso   1.00
I870   I     0.91499   0.55886   0.62933   0.00000  Uiso   1.00
C871   C     0.08662   0.83335   0.74991   0.00000  Uiso   1.00
C872   C     0.24672   0.83332   0.75009   0.00000  Uiso   1.00
C873   C     0.10745   0.78295   0.52539   0.00000  Uiso   1.00
C874   C     0.22588   0.88372   0.97461   0.00000  Uiso   1.00
C875   C     0.02131   0.79238   0.74456   0.00000  Uiso   1.00
C876   C     0.31202   0.87428   0.75544   0.00000  Uiso   1.00
C877   C     0.31206   0.79236   0.74464   0.00000  Uiso   1.00
C878   C     0.02127   0.87430   0.75536   0.00000  Uiso   1.00
C879   C     0.29086   0.83331   0.75008   0.00000  Uiso   1.00
C880   C     0.04247   0.83335   0.74992   0.00000  Uiso   1.00
C881   C     0.19349   0.69056   0.77678   0.00000  Uiso   1.00
C882   C     0.13985   0.97610   0.72322   0.00000  Uiso   1.00
C883   C     0.13984   0.69075   0.72322   0.00000  Uiso   1.00
C884   C     0.19349   0.97592   0.77678   0.00000  Uiso   1.00
C885   C     0.16792   0.83340   0.66350   0.00000  Uiso   1.00
C886   C     0.16542   0.83326   0.83650   0.00000  Uiso   1.00
C887   C     0.19414   0.85847   0.90637   0.00000  Uiso   1.00
C888   C     0.13919   0.80820   0.59363   0.00000  Uiso   1.00
C889   C     0.16409   0.83316   0.88419   0.00000  Uiso   1.00
C890   C     0.16925   0.83351   0.61581   0.00000  Uiso   1.00
C891   C     0.13368   0.80821   0.90720   0.00000  Uiso   1.00
C892   C     0.19966   0.85846   0.59280   0.00000  Uiso   1.00
C893   C     0.13478   0.80785   0.95407   0.00000  Uiso   1.00
C894   C     0.19855   0.85882   0.54593   0.00000  Uiso   1.00
C895   C     0.16587   0.83326   0.97662   0.00000  Uiso   1.00
C896   C     0.16746   0.83341   0.52338   0.00000  Uiso   1.00
C897   C     0.19536   0.85867   0.95248   0.00000  Uiso   1.00
C898   C     0.13798   0.80800   0.54752   0.00000  Uiso   1.00
C899   C     0.10580   0.78285   0.97905   0.00000  Uiso   1.00
C900   C     0.22753   0.88382   0.52095   0.00000  Uiso   1.00
H901   H     0.21706   0.87749   0.88745   0.00000  Uiso   1.00
H902   H     0.11628   0.78917   0.61255   0.00000  Uiso   1.00
H903   H     0.08177   0.76280   0.96344   0.00000  Uiso   1.00
H904   H     0.25156   0.90386   0.53656   0.00000  Uiso   1.00
H905   H     0.08476   0.76338   0.54396   0.00000  Uiso   1.00
H906   H     0.24857   0.90328   0.95604   0.00000  Uiso   1.00
H907   H     0.03751   0.76049   0.74015   0.00000  Uiso   1.00
H908   H     0.29582   0.90617   0.75985   0.00000  Uiso   1.00
H909   H     0.29590   0.76047   0.74027   0.00000  Uiso   1.00
H910   H     0.03743   0.90620   0.75973   0.00000  Uiso   1.00
H911   H     0.21492   0.70869   0.79819   0.00000  Uiso   1.00
H912   H     0.11841   0.95798   0.70181   0.00000  Uiso   1.00
H913   H     0.11840   0.70901   0.70182   0.00000  Uiso   1.00
H914   H     0.21493   0.95765   0.79818   0.00000  Uiso   1.00
N915   N     0.16667   0.95240   0.75000   0.00000  Uiso   1.00
N916   N     0.16667   0.71427   0.75000   0.00000  Uiso   1.00
O917   O     0.10559   0.87154   0.75000   0.00000  Uiso   1.00
O918   O     0.22774   0.79513   0.75000   0.00000  Uiso   1.00
O919   O     0.22774   0.87154   0.75000   0.00000  Uiso   1.00
O920   O     0.10559   0.79513   0.75000   0.00000  Uiso   1.00
O921   O     0.16666   0.87156   0.68393   0.00000  Uiso   1.00
O922   O     0.16667   0.79511   0.81607   0.00000  Uiso   1.00
O923   O     0.16667   0.87156   0.81608   0.00000  Uiso   1.00
O924   O     0.16666   0.79511   0.68392   0.00000  Uiso   1.00
Zn925  Zn    0.16667   0.88437   0.75000   0.00000  Uiso   1.00
Zn926  Zn    0.16667   0.78229   0.75000   0.00000  Uiso   1.00
I927   I     0.08501   0.77447   0.87067   0.00000  Uiso   1.00
I928   I     0.24833   0.89219   0.62933   0.00000  Uiso   1.00
C929   C     0.41995   0.83335   0.74991   0.00000  Uiso   1.00
C930   C     0.58005   0.83332   0.75009   0.00000  Uiso   1.00
C931   C     0.44078   0.78295   0.52539   0.00000  Uiso   1.00
C932   C     0.55922   0.88372   0.97461   0.00000  Uiso   1.00
C933   C     0.35465   0.79238   0.74456   0.00000  Uiso   1.00
C934   C     0.64535   0.87428   0.75544   0.00000  Uiso   1.00
C935   C     0.64540   0.79236   0.74464   0.00000  Uiso   1.00
C936   C     0.35460   0.87430   0.75536   0.00000  Uiso   1.00
C937   C     0.62420   0.83331   0.75008   0.00000  Uiso   1.00
C938   C     0.37580   0.83335   0.74992   0.00000  Uiso   1.00
C939   C     0.52682   0.69056   0.77678   0.00000  Uiso   1.00
C940   C     0.47318   0.97610   0.72322   0.00000  Uiso   1.00
C941   C     0.47317   0.69075   0.72322   0.00000  Uiso   1.00
C942   C     0.52682   0.97592   0.77678   0.00000  Uiso   1.00
C943   C     0.50125   0.83340   0.66350   0.00000  Uiso   1.00
C944   C     0.49875   0.83326   0.83650   0.00000  Uiso   1.00
C945   C     0.52747   0.85847   0.90637   0.00000  Uiso   1.00
C946   C     0.47253   0.80820   0.59363   0.00000  Uiso   1.00
C947   C     0.49742   0.83316   0.88419   0.00000  Uiso   1.00
C948   C     0.50258   0.83351   0.61581   0.00000  Uiso   1.00
C949   C     0.46701   0.80821   0.90720   0.00000  Uiso   1.00
C950   C     0.53299   0.85846   0.59280   0.00000  Uiso   1.00
C951   C     0.46811   0.80785   0.95407   0.00000  Uiso   1.00
C952   C     0.53189   0.85882   0.54593   0.00000  Uiso   1.00
C953   C     0.49920   0.83326   0.97662   0.00000  Uiso   1.00
C954   C     0.50080   0.83341   0.52338   0.00000  Uiso   1.00
C955   C     0.52869   0.85867   0.95248   0.00000  Uiso   1.00
C956   C     0.47131   0.80800   0.54752   0.00000  Uiso   1.00
C957   C     0.43914   0.78285   0.97905   0.00000  Uiso   1.00
C958   C     0.56086   0.88382   0.52095   0.00000  Uiso   1.00
H959   H     0.55039   0.87749   0.88745   0.00000  Uiso   1.00
H960   H     0.44961   0.78917   0.61255   0.00000  Uiso   1.00
H961   H     0.41510   0.76280   0.96344   0.00000  Uiso   1.00
H962   H     0.58490   0.90386   0.53656   0.00000  Uiso   1.00
H963   H     0.41810   0.76338   0.54396   0.00000  Uiso   1.00
H964   H     0.58190   0.90328   0.95604   0.00000  Uiso   1.00
H965   H     0.37084   0.76049   0.74015   0.00000  Uiso   1.00
H966   H     0.62916   0.90617   0.75985   0.00000  Uiso   1.00
H967   H     0.62923   0.76047   0.74027   0.00000  Uiso   1.00
H968   H     0.37077   0.90620   0.75973   0.00000  Uiso   1.00
H969   H     0.54825   0.70869   0.79819   0.00000  Uiso   1.00
H970   H     0.45175   0.95798   0.70181   0.00000  Uiso   1.00
H971   H     0.45174   0.70901   0.70182   0.00000  Uiso   1.00
H972   H     0.54826   0.95765   0.79818   0.00000  Uiso   1.00
N973   N     0.50000   0.95240   0.75000   0.00000  Uiso   1.00
N974   N     0.50000   0.71427   0.75000   0.00000  Uiso   1.00
O975   O     0.43892   0.87154   0.75000   0.00000  Uiso   1.00
O976   O     0.56108   0.79513   0.75000   0.00000  Uiso   1.00
O977   O     0.56108   0.87154   0.75000   0.00000  Uiso   1.00
O978   O     0.43892   0.79513   0.75000   0.00000  Uiso   1.00
O979   O     0.49999   0.87156   0.68393   0.00000  Uiso   1.00
O980   O     0.50001   0.79511   0.81607   0.00000  Uiso   1.00
O981   O     0.50001   0.87156   0.81608   0.00000  Uiso   1.00
O982   O     0.49999   0.79511   0.68392   0.00000  Uiso   1.00
Zn983  Zn    0.50000   0.88437   0.75000   0.00000  Uiso   1.00
Zn984  Zn    0.50000   0.78229   0.75000   0.00000  Uiso   1.00
I985   I     0.41834   0.77447   0.87067   0.00000  Uiso   1.00
I986   I     0.58166   0.89219   0.62933   0.00000  Uiso   1.00
C987   C     0.75328   0.83335   0.74991   0.00000  Uiso   1.00
C988   C     0.91338   0.83332   0.75009   0.00000  Uiso   1.00
C989   C     0.77412   0.78295   0.52539   0.00000  Uiso   1.00
C990   C     0.89255   0.88372   0.97461   0.00000  Uiso   1.00
C991   C     0.68798   0.79238   0.74456   0.00000  Uiso   1.00
C992   C     0.97869   0.87428   0.75544   0.00000  Uiso   1.00
C993   C     0.97873   0.79236   0.74464   0.00000  Uiso   1.00
C994   C     0.68794   0.87430   0.75536   0.00000  Uiso   1.00
C995   C     0.95753   0.83331   0.75008   0.00000  Uiso   1.00
C996   C     0.70914   0.83335   0.74992   0.00000  Uiso   1.00
C997   C     0.86015   0.69056   0.77678   0.00000  Uiso   1.00
C998   C     0.80651   0.97610   0.72322   0.00000  Uiso   1.00
C999   C     0.80651   0.69075   0.72322   0.00000  Uiso   1.00
C1000  C     0.86016   0.97592   0.77678   0.00000  Uiso   1.00
C1001  C     0.83458   0.83340   0.66350   0.00000  Uiso   1.00
C1002  C     0.83208   0.83326   0.83650   0.00000  Uiso   1.00
C1003  C     0.86081   0.85847   0.90637   0.00000  Uiso   1.00
C1004  C     0.80586   0.80820   0.59363   0.00000  Uiso   1.00
C1005  C     0.83075   0.83316   0.88419   0.00000  Uiso   1.00
C1006  C     0.83591   0.83351   0.61581   0.00000  Uiso   1.00
C1007  C     0.80034   0.80821   0.90720   0.00000  Uiso   1.00
C1008  C     0.86632   0.85846   0.59280   0.00000  Uiso   1.00
C1009  C     0.80145   0.80785   0.95407   0.00000  Uiso   1.00
C1010  C     0.86522   0.85882   0.54593   0.00000  Uiso   1.00
C1011  C     0.83254   0.83326   0.97662   0.00000  Uiso   1.00
C1012  C     0.83413   0.83341   0.52338   0.00000  Uiso   1.00
C1013  C     0.86202   0.85867   0.95248   0.00000  Uiso   1.00
C1014  C     0.80464   0.80800   0.54752   0.00000  Uiso   1.00
C1015  C     0.77247   0.78285   0.97905   0.00000  Uiso   1.00
C1016  C     0.89420   0.88382   0.52095   0.00000  Uiso   1.00
H1017  H     0.88372   0.87749   0.88745   0.00000  Uiso   1.00
H1018  H     0.78294   0.78917   0.61255   0.00000  Uiso   1.00
H1019  H     0.74843   0.76280   0.96344   0.00000  Uiso   1.00
H1020  H     0.91823   0.90386   0.53656   0.00000  Uiso   1.00
H1021  H     0.75143   0.76338   0.54396   0.00000  Uiso   1.00
H1022  H     0.91524   0.90328   0.95604   0.00000  Uiso   1.00
H1023  H     0.70418   0.76049   0.74015   0.00000  Uiso   1.00
H1024  H     0.96249   0.90617   0.75985   0.00000  Uiso   1.00
H1025  H     0.96257   0.76047   0.74027   0.00000  Uiso   1.00
H1026  H     0.70410   0.90620   0.75973   0.00000  Uiso   1.00
H1027  H     0.88158   0.70869   0.79819   0.00000  Uiso   1.00
H1028  H     0.78508   0.95798   0.70181   0.00000  Uiso   1.00
H1029  H     0.78507   0.70901   0.70182   0.00000  Uiso   1.00
H1030  H     0.88160   0.95765   0.79818   0.00000  Uiso   1.00
N1031  N     0.83333   0.95240   0.75000   0.00000  Uiso   1.00
N1032  N     0.83333   0.71427   0.75000   0.00000  Uiso   1.00
O1033  O     0.77226   0.87154   0.75000   0.00000  Uiso   1.00
O1034  O     0.89441   0.79513   0.75000   0.00000  Uiso   1.00
O1035  O     0.89441   0.87154   0.75000   0.00000  Uiso   1.00
O1036  O     0.77226   0.79513   0.75000   0.00000  Uiso   1.00
O1037  O     0.83333   0.87156   0.68393   0.00000  Uiso   1.00
O1038  O     0.83334   0.79511   0.81607   0.00000  Uiso   1.00
O1039  O     0.83334   0.87156   0.81608   0.00000  Uiso   1.00
O1040  O     0.83333   0.79511   0.68392   0.00000  Uiso   1.00
Zn1041 Zn    0.83333   0.88437   0.75000   0.00000  Uiso   1.00
Zn1042 Zn    0.83333   0.78229   0.75000   0.00000  Uiso   1.00
I1043  I     0.75167   0.77447   0.87067   0.00000  Uiso   1.00
I1044  I     0.91499   0.89219   0.62933   0.00000  Uiso   1.00
loop_
_geom_bond_atom_site_label_1
_geom_bond_atom_site_label_2
_geom_bond_distance
_geom_bond_site_symmetry_2
_ccdc_geom_bond_type
C1     O50     1.282   .     A
C1     O47     1.282   .     A
C1     C10     1.420   .     S
C2     O49     1.282   .     A
C2     O48     1.282   .     A
C2     C9      1.420   .     S
C3     H35     1.084   .     S
C3     C28     1.396   .     A
C3     C551    1.386   1_554 S
C4     H36     1.084   .     S
C4     C27     1.396   .     A
C4     C552    1.386   .     S
C5     C10     1.397   .     A
C5     H37     1.084   .     S
C5     C123    1.369   1_455 S
C6     C9      1.397   .     A
C6     H38     1.084   .     S
C6     C66     1.369   .     S
C7     C9      1.397   .     A
C7     H39     1.084   .     S
C7     C63     1.369   .     S
C8     H40     1.084   .     S
C8     C10     1.397   .     A
C8     C122    1.369   1_455 S
C11    H41     1.082   .     S
C11    N46     1.366   .     A
C11    C362    1.416   1_545 S
C12    H42     1.082   .     S
C12    N45     1.366   .     A
C12    C187    1.416   .     S
C13    N46     1.366   .     A
C13    H43     1.082   .     S
C13    C360    1.416   1_545 S
C14    H44     1.082   .     S
C14    N45     1.366   .     A
C14    C185    1.416   .     S
C15    O51     1.283   .     A
C15    C20     1.426   .     S
C15    O54     1.284   .     A
C16    C19     1.426   .     S
C16    O52     1.283   .     A
C16    O53     1.284   .     A
C17    C19     1.390   .     A
C17    H31     1.086   .     S
C17    C27     1.379   .     A
C18    H32     1.086   .     S
C18    C28     1.379   .     A
C18    C20     1.390   .     A
C19    C21     1.405   .     A
C20    C22     1.405   .     A
C21    I57     2.152   .     S
C21    C23     1.401   .     A
C22    I58     2.152   .     S
C22    C24     1.401   .     A
C23    C29     1.405   .     A
C23    C25     1.420   .     A
C24    C26     1.420   .     A
C24    C30     1.405   .     A
C25    C27     1.409   .     A
C25    C548    1.398   .     S
C26    C28     1.409   .     A
C26    C547    1.398   1_554 S
C29    H33     1.079   .     S
C29    C525    1.386   .     S
C30    H34     1.079   .     S
C30    C526    1.386   1_554 S
N45    Zn55    2.008   .     S
N46    Zn56    2.008   .     S
O47    Zn55    2.001   .     S
O48    Zn56    2.001   .     S
O49    Zn55    2.000   .     S
O50    Zn56    2.000   .     S
O51    Zn55    2.012   .     S
O52    Zn56    2.012   .     S
O53    Zn55    2.010   .     S
O54    Zn56    2.010   .     S
C59    O108    1.282   .     A
C59    O105    1.282   .     A
C59    C68     1.420   .     S
C60    O107    1.282   .     A
C60    O106    1.282   .     A
C60    C67     1.420   .     S
C61    H93     1.084   .     S
C61    C86     1.396   .     A
C61    C609    1.386   1_554 S
C62    H94     1.084   .     S
C62    C85     1.396   .     A
C62    C610    1.386   .     S
C63    C68     1.397   .     A
C63    H95     1.084   .     S
C64    C67     1.397   .     A
C64    H96     1.084   .     S
C64    C124    1.369   .     S
C65    C67     1.397   .     A
C65    H97     1.084   .     S
C65    C121    1.369   .     S
C66    H98     1.084   .     S
C66    C68     1.397   .     A
C69    H99     1.082   .     S
C69    N104    1.366   .     A
C69    C420    1.416   1_545 S
C70    H100    1.082   .     S
C70    N103    1.366   .     A
C70    C245    1.416   .     S
C71    N104    1.366   .     A
C71    H101    1.082   .     S
C71    C418    1.416   1_545 S
C72    H102    1.082   .     S
C72    N103    1.366   .     A
C72    C243    1.416   .     S
C73    O109    1.283   .     A
C73    C78     1.426   .     S
C73    O112    1.284   .     A
C74    C77     1.426   .     S
C74    O110    1.283   .     A
C74    O111    1.284   .     A
C75    C77     1.390   .     A
C75    H89     1.086   .     S
C75    C85     1.379   .     A
C76    H90     1.086   .     S
C76    C86     1.379   .     A
C76    C78     1.390   .     A
C77    C79     1.405   .     A
C78    C80     1.405   .     A
C79    I115    2.152   .     S
C79    C81     1.401   .     A
C80    I116    2.152   .     S
C80    C82     1.401   .     A
C81    C87     1.405   .     A
C81    C83     1.420   .     A
C82    C84     1.420   .     A
C82    C88     1.405   .     A
C83    C85     1.409   .     A
C83    C606    1.398   .     S
C84    C86     1.409   .     A
C84    C605    1.398   1_554 S
C87    H91     1.079   .     S
C87    C583    1.386   .     S
C88    H92     1.079   .     S
C88    C584    1.386   1_554 S
N103   Zn113   2.008   .     S
N104   Zn114   2.008   .     S
O105   Zn113   2.001   .     S
O106   Zn114   2.001   .     S
O107   Zn113   2.000   .     S
O108   Zn114   2.000   .     S
O109   Zn113   2.012   .     S
O110   Zn114   2.012   .     S
O111   Zn113   2.010   .     S
O112   Zn114   2.010   .     S
C117   O166    1.282   .     A
C117   O163    1.282   .     A
C117   C126    1.420   .     S
C118   O165    1.282   .     A
C118   O164    1.282   .     A
C118   C125    1.420   .     S
C119   H151    1.084   .     S
C119   C144    1.396   .     A
C119   C667    1.386   1_554 S
C120   H152    1.084   .     S
C120   C143    1.396   .     A
C120   C668    1.386   .     S
C121   C126    1.397   .     A
C121   H153    1.084   .     S
C122   C125    1.397   .     A
C122   H154    1.084   .     S
C122   C8      1.369   1_655 S
C123   C125    1.397   .     A
C123   H155    1.084   .     S
C123   C5      1.369   1_655 S
C124   H156    1.084   .     S
C124   C126    1.397   .     A
C127   H157    1.082   .     S
C127   N162    1.366   .     A
C127   C478    1.416   1_545 S
C128   H158    1.082   .     S
C128   N161    1.366   .     A
C128   C303    1.416   .     S
C129   N162    1.366   .     A
C129   H159    1.082   .     S
C129   C476    1.416   1_545 S
C130   H160    1.082   .     S
C130   N161    1.366   .     A
C130   C301    1.416   .     S
C131   O167    1.283   .     A
C131   C136    1.426   .     S
C131   O170    1.284   .     A
C132   C135    1.426   .     S
C132   O168    1.283   .     A
C132   O169    1.284   .     A
C133   C135    1.390   .     A
C133   H147    1.086   .     S
C133   C143    1.379   .     A
C134   H148    1.086   .     S
C134   C144    1.379   .     A
C134   C136    1.390   .     A
C135   C137    1.405   .     A
C136   C138    1.405   .     A
C137   I173    2.152   .     S
C137   C139    1.401   .     A
C138   I174    2.152   .     S
C138   C140    1.401   .     A
C139   C145    1.405   .     A
C139   C141    1.420   .     A
C140   C142    1.420   .     A
C140   C146    1.405   .     A
C141   C143    1.409   .     A
C141   C664    1.398   .     S
C142   C144    1.409   .     A
C142   C663    1.398   1_554 S
C145   H149    1.079   .     S
C145   C641    1.386   .     S
C146   H150    1.079   .     S
C146   C642    1.386   1_554 S
N161   Zn171   2.008   .     S
N162   Zn172   2.008   .     S
O163   Zn171   2.001   .     S
O164   Zn172   2.001   .     S
O165   Zn171   2.000   .     S
O166   Zn172   2.000   .     S
O167   Zn171   2.012   .     S
O168   Zn172   2.012   .     S
O169   Zn171   2.010   .     S
O170   Zn172   2.010   .     S
C175   O224    1.282   .     A
C175   O221    1.282   .     A
C175   C184    1.420   .     S
C176   O223    1.282   .     A
C176   O222    1.282   .     A
C176   C183    1.420   .     S
C177   H209    1.084   .     S
C177   C202    1.396   .     A
C177   C725    1.386   1_554 S
C178   H210    1.084   .     S
C178   C201    1.396   .     A
C178   C726    1.386   .     S
C179   C184    1.397   .     A
C179   H211    1.084   .     S
C179   C297    1.369   1_455 S
C180   C183    1.397   .     A
C180   H212    1.084   .     S
C180   C240    1.369   .     S
C181   C183    1.397   .     A
C181   H213    1.084   .     S
C181   C237    1.369   .     S
C182   H214    1.084   .     S
C182   C184    1.397   .     A
C182   C296    1.369   1_455 S
C185   H215    1.082   .     S
C185   N220    1.366   .     A
C186   H216    1.082   .     S
C186   N219    1.366   .     A
C186   C361    1.416   .     S
C187   N220    1.366   .     A
C187   H217    1.082   .     S
C188   H218    1.082   .     S
C188   N219    1.366   .     A
C188   C359    1.416   .     S
C189   O225    1.283   .     A
C189   C194    1.426   .     S
C189   O228    1.284   .     A
C190   C193    1.426   .     S
C190   O226    1.283   .     A
C190   O227    1.284   .     A
C191   C193    1.390   .     A
C191   H205    1.086   .     S
C191   C201    1.379   .     A
C192   H206    1.086   .     S
C192   C202    1.379   .     A
C192   C194    1.390   .     A
C193   C195    1.405   .     A
C194   C196    1.405   .     A
C195   I231    2.152   .     S
C195   C197    1.401   .     A
C196   I232    2.152   .     S
C196   C198    1.401   .     A
C197   C203    1.405   .     A
C197   C199    1.420   .     A
C198   C200    1.420   .     A
C198   C204    1.405   .     A
C199   C201    1.409   .     A
C199   C722    1.398   .     S
C200   C202    1.409   .     A
C200   C721    1.398   1_554 S
C203   H207    1.079   .     S
C203   C699    1.386   .     S
C204   H208    1.079   .     S
C204   C700    1.386   1_554 S
N219   Zn229   2.008   .     S
N220   Zn230   2.008   .     S
O221   Zn229   2.001   .     S
O222   Zn230   2.001   .     S
O223   Zn229   2.000   .     S
O224   Zn230   2.000   .     S
O225   Zn229   2.012   .     S
O226   Zn230   2.012   .     S
O227   Zn229   2.010   .     S
O228   Zn230   2.010   .     S
C233   O282    1.282   .     A
C233   O279    1.282   .     A
C233   C242    1.420   .     S
C234   O281    1.282   .     A
C234   O280    1.282   .     A
C234   C241    1.420   .     S
C235   H267    1.084   .     S
C235   C260    1.396   .     A
C235   C783    1.386   1_554 S
C236   H268    1.084   .     S
C236   C259    1.396   .     A
C236   C784    1.386   .     S
C237   C242    1.397   .     A
C237   H269    1.084   .     S
C238   C241    1.397   .     A
C238   H270    1.084   .     S
C238   C298    1.369   .     S
C239   C241    1.397   .     A
C239   H271    1.084   .     S
C239   C295    1.369   .     S
C240   H272    1.084   .     S
C240   C242    1.397   .     A
C243   H273    1.082   .     S
C243   N278    1.366   .     A
C244   H274    1.082   .     S
C244   N277    1.366   .     A
C244   C419    1.416   .     S
C245   N278    1.366   .     A
C245   H275    1.082   .     S
C246   H276    1.082   .     S
C246   N277    1.366   .     A
C246   C417    1.416   .     S
C247   O283    1.283   .     A
C247   C252    1.426   .     S
C247   O286    1.284   .     A
C248   C251    1.426   .     S
C248   O284    1.283   .     A
C248   O285    1.284   .     A
C249   C251    1.390   .     A
C249   H263    1.086   .     S
C249   C259    1.379   .     A
C250   H264    1.086   .     S
C250   C260    1.379   .     A
C250   C252    1.390   .     A
C251   C253    1.405   .     A
C252   C254    1.405   .     A
C253   I289    2.152   .     S
C253   C255    1.401   .     A
C254   I290    2.152   .     S
C254   C256    1.401   .     A
C255   C261    1.405   .     A
C255   C257    1.420   .     A
C256   C258    1.420   .     A
C256   C262    1.405   .     A
C257   C259    1.409   .     A
C257   C780    1.398   .     S
C258   C260    1.409   .     A
C258   C779    1.398   1_554 S
C261   H265    1.079   .     S
C261   C757    1.386   .     S
C262   H266    1.079   .     S
C262   C758    1.386   1_554 S
N277   Zn287   2.008   .     S
N278   Zn288   2.008   .     S
O279   Zn287   2.001   .     S
O280   Zn288   2.001   .     S
O281   Zn287   2.000   .     S
O282   Zn288   2.000   .     S
O283   Zn287   2.012   .     S
O284   Zn288   2.012   .     S
O285   Zn287   2.010   .     S
O286   Zn288   2.010   .     S
C291   O340    1.282   .     A
C291   O337    1.282   .     A
C291   C300    1.420   .     S
C292   O339    1.282   .     A
C292   O338    1.282   .     A
C292   C299    1.420   .     S
C293   H325    1.084   .     S
C293   C318    1.396   .     A
C293   C841    1.386   1_554 S
C294   H326    1.084   .     S
C294   C317    1.396   .     A
C294   C842    1.386   .     S
C295   C300    1.397   .     A
C295   H327    1.084   .     S
C296   C299    1.397   .     A
C296   H328    1.084   .     S
C296   C182    1.369   1_655 S
C297   C299    1.397   .     A
C297   H329    1.084   .     S
C297   C179    1.369   1_655 S
C298   H330    1.084   .     S
C298   C300    1.397   .     A
C301   H331    1.082   .     S
C301   N336    1.366   .     A
C302   H332    1.082   .     S
C302   N335    1.366   .     A
C302   C477    1.416   .     S
C303   N336    1.366   .     A
C303   H333    1.082   .     S
C304   H334    1.082   .     S
C304   N335    1.366   .     A
C304   C475    1.416   .     S
C305   O341    1.283   .     A
C305   C310    1.426   .     S
C305   O344    1.284   .     A
C306   C309    1.426   .     S
C306   O342    1.283   .     A
C306   O343    1.284   .     A
C307   C309    1.390   .     A
C307   H321    1.086   .     S
C307   C317    1.379   .     A
C308   H322    1.086   .     S
C308   C318    1.379   .     A
C308   C310    1.390   .     A
C309   C311    1.405   .     A
C310   C312    1.405   .     A
C311   I347    2.152   .     S
C311   C313    1.401   .     A
C312   I348    2.152   .     S
C312   C314    1.401   .     A
C313   C319    1.405   .     A
C313   C315    1.420   .     A
C314   C316    1.420   .     A
C314   C320    1.405   .     A
C315   C317    1.409   .     A
C315   C838    1.398   .     S
C316   C318    1.409   .     A
C316   C837    1.398   1_554 S
C319   H323    1.079   .     S
C319   C815    1.386   .     S
C320   H324    1.079   .     S
C320   C816    1.386   1_554 S
N335   Zn345   2.008   .     S
N336   Zn346   2.008   .     S
O337   Zn345   2.001   .     S
O338   Zn346   2.001   .     S
O339   Zn345   2.000   .     S
O340   Zn346   2.000   .     S
O341   Zn345   2.012   .     S
O342   Zn346   2.012   .     S
O343   Zn345   2.010   .     S
O344   Zn346   2.010   .     S
C349   O398    1.282   .     A
C349   O395    1.282   .     A
C349   C358    1.420   .     S
C350   O397    1.282   .     A
C350   O396    1.282   .     A
C350   C357    1.420   .     S
C351   H383    1.084   .     S
C351   C376    1.396   .     A
C351   C899    1.386   1_554 S
C352   H384    1.084   .     S
C352   C375    1.396   .     A
C352   C900    1.386   .     S
C353   C358    1.397   .     A
C353   H385    1.084   .     S
C353   C471    1.369   1_455 S
C354   C357    1.397   .     A
C354   H386    1.084   .     S
C354   C414    1.369   .     S
C355   C357    1.397   .     A
C355   H387    1.084   .     S
C355   C411    1.369   .     S
C356   H388    1.084   .     S
C356   C358    1.397   .     A
C356   C470    1.369   1_455 S
C359   H389    1.082   .     S
C359   N394    1.366   .     A
C360   H390    1.082   .     S
C360   N393    1.366   .     A
C360   C13     1.416   1_565 S
C361   N394    1.366   .     A
C361   H391    1.082   .     S
C362   H392    1.082   .     S
C362   N393    1.366   .     A
C362   C11     1.416   1_565 S
C363   O399    1.283   .     A
C363   C368    1.426   .     S
C363   O402    1.284   .     A
C364   C367    1.426   .     S
C364   O400    1.283   .     A
C364   O401    1.284   .     A
C365   C367    1.390   .     A
C365   H379    1.086   .     S
C365   C375    1.379   .     A
C366   H380    1.086   .     S
C366   C376    1.379   .     A
C366   C368    1.390   .     A
C367   C369    1.405   .     A
C368   C370    1.405   .     A
C369   I405    2.152   .     S
C369   C371    1.401   .     A
C370   I406    2.152   .     S
C370   C372    1.401   .     A
C371   C377    1.405   .     A
C371   C373    1.420   .     A
C372   C374    1.420   .     A
C372   C378    1.405   .     A
C373   C375    1.409   .     A
C373   C896    1.398   .     S
C374   C376    1.409   .     A
C374   C895    1.398   1_554 S
C377   H381    1.079   .     S
C377   C873    1.386   .     S
C378   H382    1.079   .     S
C378   C874    1.386   1_554 S
N393   Zn403   2.008   .     S
N394   Zn404   2.008   .     S
O395   Zn403   2.001   .     S
O396   Zn404   2.001   .     S
O397   Zn403   2.000   .     S
O398   Zn404   2.000   .     S
O399   Zn403   2.012   .     S
O400   Zn404   2.012   .     S
O401   Zn403   2.010   .     S
O402   Zn404   2.010   .     S
C407   O456    1.282   .     A
C407   O453    1.282   .     A
C407   C416    1.420   .     S
C408   O455    1.282   .     A
C408   O454    1.282   .     A
C408   C415    1.420   .     S
C409   H441    1.084   .     S
C409   C434    1.396   .     A
C409   C957    1.386   1_554 S
C410   H442    1.084   .     S
C410   C433    1.396   .     A
C410   C958    1.386   .     S
C411   C416    1.397   .     A
C411   H443    1.084   .     S
C412   C415    1.397   .     A
C412   H444    1.084   .     S
C412   C472    1.369   .     S
C413   C415    1.397   .     A
C413   H445    1.084   .     S
C413   C469    1.369   .     S
C414   H446    1.084   .     S
C414   C416    1.397   .     A
C417   H447    1.082   .     S
C417   N452    1.366   .     A
C418   H448    1.082   .     S
C418   N451    1.366   .     A
C418   C71     1.416   1_565 S
C419   N452    1.366   .     A
C419   H449    1.082   .     S
C420   H450    1.082   .     S
C420   N451    1.366   .     A
C420   C69     1.416   1_565 S
C421   O457    1.283   .     A
C421   C426    1.426   .     S
C421   O460    1.284   .     A
C422   C425    1.426   .     S
C422   O458    1.283   .     A
C422   O459    1.284   .     A
C423   C425    1.390   .     A
C423   H437    1.086   .     S
C423   C433    1.379   .     A
C424   H438    1.086   .     S
C424   C434    1.379   .     A
C424   C426    1.390   .     A
C425   C427    1.405   .     A
C426   C428    1.405   .     A
C427   I463    2.152   .     S
C427   C429    1.401   .     A
C428   I464    2.152   .     S
C428   C430    1.401   .     A
C429   C435    1.405   .     A
C429   C431    1.420   .     A
C430   C432    1.420   .     A
C430   C436    1.405   .     A
C431   C433    1.409   .     A
C431   C954    1.398   .     S
C432   C434    1.409   .     A
C432   C953    1.398   1_554 S
C435   H439    1.079   .     S
C435   C931    1.386   .     S
C436   H440    1.079   .     S
C436   C932    1.386   1_554 S
N451   Zn461   2.008   .     S
N452   Zn462   2.008   .     S
O453   Zn461   2.001   .     S
O454   Zn462   2.001   .     S
O455   Zn461   2.000   .     S
O456   Zn462   2.000   .     S
O457   Zn461   2.012   .     S
O458   Zn462   2.012   .     S
O459   Zn461   2.010   .     S
O460   Zn462   2.010   .     S
C465   O514    1.282   .     A
C465   O511    1.282   .     A
C465   C474    1.420   .     S
C466   O513    1.282   .     A
C466   O512    1.282   .     A
C466   C473    1.420   .     S
C467   H499    1.084   .     S
C467   C492    1.396   .     A
C467   C1015   1.386   1_554 S
C468   H500    1.084   .     S
C468   C491    1.396   .     A
C468   C1016   1.386   .     S
C469   C474    1.397   .     A
C469   H501    1.084   .     S
C470   C473    1.397   .     A
C470   H502    1.084   .     S
C470   C356    1.369   1_655 S
C471   C473    1.397   .     A
C471   H503    1.084   .     S
C471   C353    1.369   1_655 S
C472   H504    1.084   .     S
C472   C474    1.397   .     A
C475   H505    1.082   .     S
C475   N510    1.366   .     A
C476   H506    1.082   .     S
C476   N509    1.366   .     A
C476   C129    1.416   1_565 S
C477   N510    1.366   .     A
C477   H507    1.082   .     S
C478   H508    1.082   .     S
C478   N509    1.366   .     A
C478   C127    1.416   1_565 S
C479   O515    1.283   .     A
C479   C484    1.426   .     S
C479   O518    1.284   .     A
C480   C483    1.426   .     S
C480   O516    1.283   .     A
C480   O517    1.284   .     A
C481   C483    1.390   .     A
C481   H495    1.086   .     S
C481   C491    1.379   .     A
C482   H496    1.086   .     S
C482   C492    1.379   .     A
C482   C484    1.390   .     A
C483   C485    1.405   .     A
C484   C486    1.405   .     A
C485   I521    2.152   .     S
C485   C487    1.401   .     A
C486   I522    2.152   .     S
C486   C488    1.401   .     A
C487   C493    1.405   .     A
C487   C489    1.420   .     A
C488   C490    1.420   .     A
C488   C494    1.405   .     A
C489   C491    1.409   .     A
C489   C1012   1.398   .     S
C490   C492    1.409   .     A
C490   C1011   1.398   1_554 S
C493   H497    1.079   .     S
C493   C989    1.386   .     S
C494   H498    1.079   .     S
C494   C990    1.386   1_554 S
N509   Zn519   2.008   .     S
N510   Zn520   2.008   .     S
O511   Zn519   2.001   .     S
O512   Zn520   2.001   .     S
O513   Zn519   2.000   .     S
O514   Zn520   2.000   .     S
O515   Zn519   2.012   .     S
O516   Zn520   2.012   .     S
O517   Zn519   2.010   .     S
O518   Zn520   2.010   .     S
C523   O572    1.282   .     A
C523   O569    1.282   .     A
C523   C532    1.420   .     S
C524   O571    1.282   .     A
C524   O570    1.282   .     A
C524   C531    1.420   .     S
C525   H557    1.084   .     S
C525   C550    1.396   .     A
C526   H558    1.084   .     S
C526   C549    1.396   .     A
C526   C30     1.386   1_556 S
C527   C532    1.397   .     A
C527   H559    1.084   .     S
C527   C645    1.369   1_455 S
C528   C531    1.397   .     A
C528   H560    1.084   .     S
C528   C588    1.369   .     S
C529   C531    1.397   .     A
C529   H561    1.084   .     S
C529   C585    1.369   .     S
C530   H562    1.084   .     S
C530   C532    1.397   .     A
C530   C644    1.369   1_455 S
C533   H563    1.082   .     S
C533   N568    1.366   .     A
C533   C884    1.416   1_545 S
C534   H564    1.082   .     S
C534   N567    1.366   .     A
C534   C709    1.416   .     S
C535   N568    1.366   .     A
C535   H565    1.082   .     S
C535   C882    1.416   1_545 S
C536   H566    1.082   .     S
C536   N567    1.366   .     A
C536   C707    1.416   .     S
C537   O573    1.283   .     A
C537   C542    1.426   .     S
C537   O576    1.284   .     A
C538   C541    1.426   .     S
C538   O574    1.283   .     A
C538   O575    1.284   .     A
C539   C541    1.390   .     A
C539   H553    1.086   .     S
C539   C549    1.379   .     A
C540   H554    1.086   .     S
C540   C550    1.379   .     A
C540   C542    1.390   .     A
C541   C543    1.405   .     A
C542   C544    1.405   .     A
C543   I579    2.152   .     S
C543   C545    1.401   .     A
C544   I580    2.152   .     S
C544   C546    1.401   .     A
C545   C551    1.405   .     A
C545   C547    1.420   .     A
C546   C548    1.420   .     A
C546   C552    1.405   .     A
C547   C549    1.409   .     A
C547   C26     1.398   1_556 S
C548   C550    1.409   .     A
C551   H555    1.079   .     S
C551   C3      1.386   1_556 S
C552   H556    1.079   .     S
N567   Zn577   2.008   .     S
N568   Zn578   2.008   .     S
O569   Zn577   2.001   .     S
O570   Zn578   2.001   .     S
O571   Zn577   2.000   .     S
O572   Zn578   2.000   .     S
O573   Zn577   2.012   .     S
O574   Zn578   2.012   .     S
O575   Zn577   2.010   .     S
O576   Zn578   2.010   .     S
C581   O630    1.282   .     A
C581   O627    1.282   .     A
C581   C590    1.420   .     S
C582   O629    1.282   .     A
C582   O628    1.282   .     A
C582   C589    1.420   .     S
C583   H615    1.084   .     S
C583   C608    1.396   .     A
C584   H616    1.084   .     S
C584   C607    1.396   .     A
C584   C88     1.386   1_556 S
C585   C590    1.397   .     A
C585   H617    1.084   .     S
C586   C589    1.397   .     A
C586   H618    1.084   .     S
C586   C646    1.369   .     S
C587   C589    1.397   .     A
C587   H619    1.084   .     S
C587   C643    1.369   .     S
C588   H620    1.084   .     S
C588   C590    1.397   .     A
C591   H621    1.082   .     S
C591   N626    1.366   .     A
C591   C942    1.416   1_545 S
C592   H622    1.082   .     S
C592   N625    1.366   .     A
C592   C767    1.416   .     S
C593   N626    1.366   .     A
C593   H623    1.082   .     S
C593   C940    1.416   1_545 S
C594   H624    1.082   .     S
C594   N625    1.366   .     A
C594   C765    1.416   .     S
C595   O631    1.283   .     A
C595   C600    1.426   .     S
C595   O634    1.284   .     A
C596   C599    1.426   .     S
C596   O632    1.283   .     A
C596   O633    1.284   .     A
C597   C599    1.390   .     A
C597   H611    1.086   .     S
C597   C607    1.379   .     A
C598   H612    1.086   .     S
C598   C608    1.379   .     A
C598   C600    1.390   .     A
C599   C601    1.405   .     A
C600   C602    1.405   .     A
C601   I637    2.152   .     S
C601   C603    1.401   .     A
C602   I638    2.152   .     S
C602   C604    1.401   .     A
C603   C609    1.405   .     A
C603   C605    1.420   .     A
C604   C606    1.420   .     A
C604   C610    1.405   .     A
C605   C607    1.409   .     A
C605   C84     1.398   1_556 S
C606   C608    1.409   .     A
C609   H613    1.079   .     S
C609   C61     1.386   1_556 S
C610   H614    1.079   .     S
N625   Zn635   2.008   .     S
N626   Zn636   2.008   .     S
O627   Zn635   2.001   .     S
O628   Zn636   2.001   .     S
O629   Zn635   2.000   .     S
O630   Zn636   2.000   .     S
O631   Zn635   2.012   .     S
O632   Zn636   2.012   .     S
O633   Zn635   2.010   .     S
O634   Zn636   2.010   .     S
C639   O688    1.282   .     A
C639   O685    1.282   .     A
C639   C648    1.420   .     S
C640   O687    1.282   .     A
C640   O686    1.282   .     A
C640   C647    1.420   .     S
C641   H673    1.084   .     S
C641   C666    1.396   .     A
C642   H674    1.084   .     S
C642   C665    1.396   .     A
C642   C146    1.386   1_556 S
C643   C648    1.397   .     A
C643   H675    1.084   .     S
C644   C647    1.397   .     A
C644   H676    1.084   .     S
C644   C530    1.369   1_655 S
C645   C647    1.397   .     A
C645   H677    1.084   .     S
C645   C527    1.369   1_655 S
C646   H678    1.084   .     S
C646   C648    1.397   .     A
C649   H679    1.082   .     S
C649   N684    1.366   .     A
C649   C1000   1.416   1_545 S
C650   H680    1.082   .     S
C650   N683    1.366   .     A
C650   C825    1.416   .     S
C651   N684    1.366   .     A
C651   H681    1.082   .     S
C651   C998    1.416   1_545 S
C652   H682    1.082   .     S
C652   N683    1.366   .     A
C652   C823    1.416   .     S
C653   O689    1.283   .     A
C653   C658    1.426   .     S
C653   O692    1.284   .     A
C654   C657    1.426   .     S
C654   O690    1.283   .     A
C654   O691    1.284   .     A
C655   C657    1.390   .     A
C655   H669    1.086   .     S
C655   C665    1.379   .     A
C656   H670    1.086   .     S
C656   C666    1.379   .     A
C656   C658    1.390   .     A
C657   C659    1.405   .     A
C658   C660    1.405   .     A
C659   I695    2.152   .     S
C659   C661    1.401   .     A
C660   I696    2.152   .     S
C660   C662    1.401   .     A
C661   C667    1.405   .     A
C661   C663    1.420   .     A
C662   C664    1.420   .     A
C662   C668    1.405   .     A
C663   C665    1.409   .     A
C663   C142    1.398   1_556 S
C664   C666    1.409   .     A
C667   H671    1.079   .     S
C667   C119    1.386   1_556 S
C668   H672    1.079   .     S
N683   Zn693   2.008   .     S
N684   Zn694   2.008   .     S
O685   Zn693   2.001   .     S
O686   Zn694   2.001   .     S
O687   Zn693   2.000   .     S
O688   Zn694   2.000   .     S
O689   Zn693   2.012   .     S
O690   Zn694   2.012   .     S
O691   Zn693   2.010   .     S
O692   Zn694   2.010   .     S
C697   O746    1.282   .     A
C697   O743    1.282   .     A
C697   C706    1.420   .     S
C698   O745    1.282   .     A
C698   O744    1.282   .     A
C698   C705    1.420   .     S
C699   H731    1.084   .     S
C699   C724    1.396   .     A
C700   H732    1.084   .     S
C700   C723    1.396   .     A
C700   C204    1.386   1_556 S
C701   C706    1.397   .     A
C701   H733    1.084   .     S
C701   C819    1.369   1_455 S
C702   C705    1.397   .     A
C702   H734    1.084   .     S
C702   C762    1.369   .     S
C703   C705    1.397   .     A
C703   H735    1.084   .     S
C703   C759    1.369   .     S
C704   H736    1.084   .     S
C704   C706    1.397   .     A
C704   C818    1.369   1_455 S
C707   H737    1.082   .     S
C707   N742    1.366   .     A
C708   H738    1.082   .     S
C708   N741    1.366   .     A
C708   C883    1.416   .     S
C709   N742    1.366   .     A
C709   H739    1.082   .     S
C710   H740    1.082   .     S
C710   N741    1.366   .     A
C710   C881    1.416   .     S
C711   O747    1.283   .     A
C711   C716    1.426   .     S
C711   O750    1.284   .     A
C712   C715    1.426   .     S
C712   O748    1.283   .     A
C712   O749    1.284   .     A
C713   C715    1.390   .     A
C713   H727    1.086   .     S
C713   C723    1.379   .     A
C714   H728    1.086   .     S
C714   C724    1.379   .     A
C714   C716    1.390   .     A
C715   C717    1.405   .     A
C716   C718    1.405   .     A
C717   I753    2.152   .     S
C717   C719    1.401   .     A
C718   I754    2.152   .     S
C718   C720    1.401   .     A
C719   C725    1.405   .     A
C719   C721    1.420   .     A
C720   C722    1.420   .     A
C720   C726    1.405   .     A
C721   C723    1.409   .     A
C721   C200    1.398   1_556 S
C722   C724    1.409   .     A
C725   H729    1.079   .     S
C725   C177    1.386   1_556 S
C726   H730    1.079   .     S
N741   Zn751   2.008   .     S
N742   Zn752   2.008   .     S
O743   Zn751   2.001   .     S
O744   Zn752   2.001   .     S
O745   Zn751   2.000   .     S
O746   Zn752   2.000   .     S
O747   Zn751   2.012   .     S
O748   Zn752   2.012   .     S
O749   Zn751   2.010   .     S
O750   Zn752   2.010   .     S
C755   O804    1.282   .     A
C755   O801    1.282   .     A
C755   C764    1.420   .     S
C756   O803    1.282   .     A
C756   O802    1.282   .     A
C756   C763    1.420   .     S
C757   H789    1.084   .     S
C757   C782    1.396   .     A
C758   H790    1.084   .     S
C758   C781    1.396   .     A
C758   C262    1.386   1_556 S
C759   C764    1.397   .     A
C759   H791    1.084   .     S
C760   C763    1.397   .     A
C760   H792    1.084   .     S
C760   C820    1.369   .     S
C761   C763    1.397   .     A
C761   H793    1.084   .     S
C761   C817    1.369   .     S
C762   H794    1.084   .     S
C762   C764    1.397   .     A
C765   H795    1.082   .     S
C765   N800    1.366   .     A
C766   H796    1.082   .     S
C766   N799    1.366   .     A
C766   C941    1.416   .     S
C767   N800    1.366   .     A
C767   H797    1.082   .     S
C768   H798    1.082   .     S
C768   N799    1.366   .     A
C768   C939    1.416   .     S
C769   O805    1.283   .     A
C769   C774    1.426   .     S
C769   O808    1.284   .     A
C770   C773    1.426   .     S
C770   O806    1.283   .     A
C770   O807    1.284   .     A
C771   C773    1.390   .     A
C771   H785    1.086   .     S
C771   C781    1.379   .     A
C772   H786    1.086   .     S
C772   C782    1.379   .     A
C772   C774    1.390   .     A
C773   C775    1.405   .     A
C774   C776    1.405   .     A
C775   I811    2.152   .     S
C775   C777    1.401   .     A
C776   I812    2.152   .     S
C776   C778    1.401   .     A
C777   C783    1.405   .     A
C777   C779    1.420   .     A
C778   C780    1.420   .     A
C778   C784    1.405   .     A
C779   C781    1.409   .     A
C779   C258    1.398   1_556 S
C780   C782    1.409   .     A
C783   H787    1.079   .     S
C783   C235    1.386   1_556 S
C784   H788    1.079   .     S
N799   Zn809   2.008   .     S
N800   Zn810   2.008   .     S
O801   Zn809   2.001   .     S
O802   Zn810   2.001   .     S
O803   Zn809   2.000   .     S
O804   Zn810   2.000   .     S
O805   Zn809   2.012   .     S
O806   Zn810   2.012   .     S
O807   Zn809   2.010   .     S
O808   Zn810   2.010   .     S
C813   O862    1.282   .     A
C813   O859    1.282   .     A
C813   C822    1.420   .     S
C814   O861    1.282   .     A
C814   O860    1.282   .     A
C814   C821    1.420   .     S
C815   H847    1.084   .     S
C815   C840    1.396   .     A
C816   H848    1.084   .     S
C816   C839    1.396   .     A
C816   C320    1.386   1_556 S
C817   C822    1.397   .     A
C817   H849    1.084   .     S
C818   C821    1.397   .     A
C818   H850    1.084   .     S
C818   C704    1.369   1_655 S
C819   C821    1.397   .     A
C819   H851    1.084   .     S
C819   C701    1.369   1_655 S
C820   H852    1.084   .     S
C820   C822    1.397   .     A
C823   H853    1.082   .     S
C823   N858    1.366   .     A
C824   H854    1.082   .     S
C824   N857    1.366   .     A
C824   C999    1.416   .     S
C825   N858    1.366   .     A
C825   H855    1.082   .     S
C826   H856    1.082   .     S
C826   N857    1.366   .     A
C826   C997    1.416   .     S
C827   O863    1.283   .     A
C827   C832    1.426   .     S
C827   O866    1.284   .     A
C828   C831    1.426   .     S
C828   O864    1.283   .     A
C828   O865    1.284   .     A
C829   C831    1.390   .     A
C829   H843    1.086   .     S
C829   C839    1.379   .     A
C830   H844    1.086   .     S
C830   C840    1.379   .     A
C830   C832    1.390   .     A
C831   C833    1.405   .     A
C832   C834    1.405   .     A
C833   I869    2.152   .     S
C833   C835    1.401   .     A
C834   I870    2.152   .     S
C834   C836    1.401   .     A
C835   C841    1.405   .     A
C835   C837    1.420   .     A
C836   C838    1.420   .     A
C836   C842    1.405   .     A
C837   C839    1.409   .     A
C837   C316    1.398   1_556 S
C838   C840    1.409   .     A
C841   H845    1.079   .     S
C841   C293    1.386   1_556 S
C842   H846    1.079   .     S
N857   Zn867   2.008   .     S
N858   Zn868   2.008   .     S
O859   Zn867   2.001   .     S
O860   Zn868   2.001   .     S
O861   Zn867   2.000   .     S
O862   Zn868   2.000   .     S
O863   Zn867   2.012   .     S
O864   Zn868   2.012   .     S
O865   Zn867   2.010   .     S
O866   Zn868   2.010   .     S
C871   O920    1.282   .     A
C871   O917    1.282   .     A
C871   C880    1.420   .     S
C872   O919    1.282   .     A
C872   O918    1.282   .     A
C872   C879    1.420   .     S
C873   H905    1.084   .     S
C873   C898    1.396   .     A
C874   H906    1.084   .     S
C874   C897    1.396   .     A
C874   C378    1.386   1_556 S
C875   C880    1.397   .     A
C875   H907    1.084   .     S
C875   C993    1.369   1_455 S
C876   C879    1.397   .     A
C876   H908    1.084   .     S
C876   C936    1.369   .     S
C877   C879    1.397   .     A
C877   H909    1.084   .     S
C877   C933    1.369   .     S
C878   H910    1.084   .     S
C878   C880    1.397   .     A
C878   C992    1.369   1_455 S
C881   H911    1.082   .     S
C881   N916    1.366   .     A
C882   H912    1.082   .     S
C882   N915    1.366   .     A
C882   C535    1.416   1_565 S
C883   N916    1.366   .     A
C883   H913    1.082   .     S
C884   H914    1.082   .     S
C884   N915    1.366   .     A
C884   C533    1.416   1_565 S
C885   O921    1.283   .     A
C885   C890    1.426   .     S
C885   O924    1.284   .     A
C886   C889    1.426   .     S
C886   O922    1.283   .     A
C886   O923    1.284   .     A
C887   C889    1.390   .     A
C887   H901    1.086   .     S
C887   C897    1.379   .     A
C888   H902    1.086   .     S
C888   C898    1.379   .     A
C888   C890    1.390   .     A
C889   C891    1.405   .     A
C890   C892    1.405   .     A
C891   I927    2.152   .     S
C891   C893    1.401   .     A
C892   I928    2.152   .     S
C892   C894    1.401   .     A
C893   C899    1.405   .     A
C893   C895    1.420   .     A
C894   C896    1.420   .     A
C894   C900    1.405   .     A
C895   C897    1.409   .     A
C895   C374    1.398   1_556 S
C896   C898    1.409   .     A
C899   H903    1.079   .     S
C899   C351    1.386   1_556 S
C900   H904    1.079   .     S
N915   Zn925   2.008   .     S
N916   Zn926   2.008   .     S
O917   Zn925   2.001   .     S
O918   Zn926   2.001   .     S
O919   Zn925   2.000   .     S
O920   Zn926   2.000   .     S
O921   Zn925   2.012   .     S
O922   Zn926   2.012   .     S
O923   Zn925   2.010   .     S
O924   Zn926   2.010   .     S
C929   O978    1.282   .     A
C929   O975    1.282   .     A
C929   C938    1.420   .     S
C930   O977    1.282   .     A
C930   O976    1.282   .     A
C930   C937    1.420   .     S
C931   H963    1.084   .     S
C931   C956    1.396   .     A
C932   H964    1.084   .     S
C932   C955    1.396   .     A
C932   C436    1.386   1_556 S
C933   C938    1.397   .     A
C933   H965    1.084   .     S
C934   C937    1.397   .     A
C934   H966    1.084   .     S
C934   C994    1.369   .     S
C935   C937    1.397   .     A
C935   H967    1.084   .     S
C935   C991    1.369   .     S
C936   H968    1.084   .     S
C936   C938    1.397   .     A
C939   H969    1.082   .     S
C939   N974    1.366   .     A
C940   H970    1.082   .     S
C940   N973    1.366   .     A
C940   C593    1.416   1_565 S
C941   N974    1.366   .     A
C941   H971    1.082   .     S
C942   H972    1.082   .     S
C942   N973    1.366   .     A
C942   C591    1.416   1_565 S
C943   O979    1.283   .     A
C943   C948    1.426   .     S
C943   O982    1.284   .     A
C944   C947    1.426   .     S
C944   O980    1.283   .     A
C944   O981    1.284   .     A
C945   C947    1.390   .     A
C945   H959    1.086   .     S
C945   C955    1.379   .     A
C946   H960    1.086   .     S
C946   C956    1.379   .     A
C946   C948    1.390   .     A
C947   C949    1.405   .     A
C948   C950    1.405   .     A
C949   I985    2.152   .     S
C949   C951    1.401   .     A
C950   I986    2.152   .     S
C950   C952    1.401   .     A
C951   C957    1.405   .     A
C951   C953    1.420   .     A
C952   C954    1.420   .     A
C952   C958    1.405   .     A
C953   C955    1.409   .     A
C953   C432    1.398   1_556 S
C954   C956    1.409   .     A
C957   H961    1.079   .     S
C957   C409    1.386   1_556 S
C958   H962    1.079   .     S
N973   Zn983   2.008   .     S
N974   Zn984   2.008   .     S
O975   Zn983   2.001   .     S
O976   Zn984   2.001   .     S
O977   Zn983   2.000   .     S
O978   Zn984   2.000   .     S
O979   Zn983   2.012   .     S
O980   Zn984   2.012   .     S
O981   Zn983   2.010   .     S
O982   Zn984   2.010   .     S
C987   O1036   1.282   .     A
C987   O1033   1.282   .     A
C987   C996    1.420   .     S
C988   O1035   1.282   .     A
C988   O1034   1.282   .     A
C988   C995    1.420   .     S
C989   H1021   1.084   .     S
C989   C1014   1.396   .     A
C990   H1022   1.084   .     S
C990   C1013   1.396   .     A
C990   C494    1.386   1_556 S
C991   C996    1.397   .     A
C991   H1023   1.084   .     S
C992   C995    1.397   .     A
C992   H1024   1.084   .     S
C992   C878    1.369   1_655 S
C993   C995    1.397   .     A
C993   H1025   1.084   .     S
C993   C875    1.369   1_655 S
C994   H1026   1.084   .     S
C994   C996    1.397   .     A
C997   H1027   1.082   .     S
C997   N1032   1.366   .     A
C998   H1028   1.082   .     S
C998   N1031   1.366   .     A
C998   C651    1.416   1_565 S
C999   N1032   1.366   .     A
C999   H1029   1.082   .     S
C1000  H1030   1.082   .     S
C1000  N1031   1.366   .     A
C1000  C649    1.416   1_565 S
C1001  O1037   1.283   .     A
C1001  C1006   1.426   .     S
C1001  O1040   1.284   .     A
C1002  C1005   1.426   .     S
C1002  O1038   1.283   .     A
C1002  O1039   1.284   .     A
C1003  C1005   1.390   .     A
C1003  H1017   1.086   .     S
C1003  C1013   1.379   .     A
C1004  H1018   1.086   .     S
C1004  C1014   1.379   .     A
C1004  C1006   1.390   .     A
C1005  C1007   1.405   .     A
C1006  C1008   1.405   .     A
C1007  I1043   2.152   .     S
C1007  C1009   1.401   .     A
C1008  I1044   2.152   .     S
C1008  C1010   1.401   .     A
C1009  C1015   1.405   .     A
C1009  C1011   1.420   .     A
C1010  C1012   1.420   .     A
C1010  C1016   1.405   .     A
C1011  C1013   1.409   .     A
C1011  C490    1.398   1_556 S
C1012  C1014   1.409   .     A
C1015  H1019   1.079   .     S
C1015  C467    1.386   1_556 S
C1016  H1020   1.079   .     S
N1031  Zn1041  2.008   .     S
N1032  Zn1042  2.008   .     S
O1033  Zn1041  2.001   .     S
O1034  Zn1042  2.001   .     S
O1035  Zn1041  2.000   .     S
O1036  Zn1042  2.000   .     S
O1037  Zn1041  2.012   .     S
O1038  Zn1042  2.012   .     S
O1039  Zn1041  2.010   .     S
O1040  Zn1042  2.010   .     S
