data_str_m3_o10_o16_pcu_sym.66
_audit_creation_date              2020-01-03
_audit_creation_method            'Materials Studio'
_symmetry_space_group_name_H-M    'P1'
_symmetry_Int_Tables_number       1
_symmetry_cell_setting            triclinic
loop_
_symmetry_equiv_pos_as_xyz
  x,y,z
_cell_length_a                    23.4392
_cell_length_b                    25.7338
_cell_length_c                    24.0705
_cell_angle_alpha                 91.1454
_cell_angle_beta                  101.0189
_cell_angle_gamma                 94.1093
loop_
_atom_site_label
_atom_site_type_symbol
_atom_site_fract_x
_atom_site_fract_y
_atom_site_fract_z
_atom_site_U_iso_or_equiv
_atom_site_adp_type
_atom_site_occupancy
Br1    Br    0.06679   0.04909   0.37123   0.00000  Uiso   1.00
C2     C     0.01342   0.26464   0.24478   0.00000  Uiso   1.00
C3     C     0.05221   0.16797   0.41704   0.00000  Uiso   1.00
C4     C     0.01888   0.31916   0.24019   0.00000  Uiso   1.00
C5     C     0.03527   0.16798   0.35551   0.00000  Uiso   1.00
C6     C     0.30516   0.01426   0.23564   0.00000  Uiso   1.00
C7     C     0.31689   0.06859   0.24632   0.00000  Uiso   1.00
C8     C     0.29772   0.16356   0.14466   0.00000  Uiso   1.00
C9     C     0.26544   0.08959   0.00764   0.00000  Uiso   1.00
C10    C     0.27809   0.15338   0.08452   0.00000  Uiso   1.00
C11    C     0.02466   0.20000   0.44998   0.00000  Uiso   1.00
C12    C     0.04905   0.21052   0.00671   0.00000  Uiso   1.00
C13    C     0.13328   0.16407   0.49483   0.00000  Uiso   1.00
C14    C     0.10357   0.19354   0.02894   0.00000  Uiso   1.00
C15    C     0.24160   0.32698   0.21780   0.00000  Uiso   1.00
C16    C     0.22691   0.23543   0.07153   0.00000  Uiso   1.00
C17    C     0.10186   0.14346   0.44249   0.00000  Uiso   1.00
C18    C     0.19134   0.15100   0.01267   0.00000  Uiso   1.00
C19    C     0.21115   0.10796   0.48574   0.00000  Uiso   1.00
C20    C     0.17492   0.08155   0.43978   0.00000  Uiso   1.00
C21    C     0.12029   0.09844   0.41858   0.00000  Uiso   1.00
C22    C     0.23031   0.17835   0.05707   0.00000  Uiso   1.00
C23    C     0.29752   0.11065   0.05861   0.00000  Uiso   1.00
H24    H     0.00214   0.09189   0.07927   0.00000  Uiso   1.00
H25    H     0.21336   0.02489   0.20111   0.00000  Uiso   1.00
H26    H     0.23680   0.29747   0.18291   0.00000  Uiso   1.00
H27    H     0.22500   0.31039   0.25443   0.00000  Uiso   1.00
H28    H     0.27121   0.25593   0.07934   0.00000  Uiso   1.00
H29    H     0.20056   0.25532   0.03610   0.00000  Uiso   1.00
H30    H     0.20855   0.23963   0.11026   0.00000  Uiso   1.00
H31    H     0.15694   0.12522   0.20857   0.00000  Uiso   1.00
H32    H     0.17640   0.20813   0.29141   0.00000  Uiso   1.00
H33    H     0.18803   0.04637   0.42181   0.00000  Uiso   1.00
H34    H     0.28055   0.05624   0.48807   0.00000  Uiso   1.00
H35    H     0.31863   0.21793   0.43157   0.00000  Uiso   1.00
H36    H     0.12097   0.20215   0.07320   0.00000  Uiso   1.00
H37    H     0.02707   0.23383   0.03277   0.00000  Uiso   1.00
H38    H     0.06344   0.00325   0.24733   0.00000  Uiso   1.00
N39    N     0.14493   0.15223   0.23543   0.00000  Uiso   1.00
N40    N     0.18840   0.18110   0.26458   0.00000  Uiso   1.00
O41    O     0.29769   0.24629   0.25358   0.00000  Uiso   1.00
O42    O     0.05742   0.23704   0.24423   0.00000  Uiso   1.00
O43    O     0.31490   0.17358   0.33380   0.00000  Uiso   1.00
O44    O     0.07463   0.16433   0.32446   0.00000  Uiso   1.00
O45    O     0.27592   0.09629   0.25577   0.00000  Uiso   1.00
O46    O     0.03565   0.08704   0.24642   0.00000  Uiso   1.00
O47    O     0.25870   0.16901   0.17554   0.00000  Uiso   1.00
O48    O     0.01843   0.15976   0.16620   0.00000  Uiso   1.00
Zn49   Zn    0.27119   0.17284   0.25624   0.00000  Uiso   1.00
Zn50   Zn    0.06214   0.16049   0.24376   0.00000  Uiso   1.00
Br51   Br    0.40012   0.04909   0.37123   0.00000  Uiso   1.00
C52    C     0.34676   0.26464   0.24478   0.00000  Uiso   1.00
C53    C     0.38555   0.16797   0.41704   0.00000  Uiso   1.00
C54    C     0.35221   0.31916   0.24019   0.00000  Uiso   1.00
C55    C     0.36861   0.16798   0.35551   0.00000  Uiso   1.00
C56    C     0.63849   0.01426   0.23564   0.00000  Uiso   1.00
C57    C     0.65022   0.06859   0.24632   0.00000  Uiso   1.00
C58    C     0.63105   0.16356   0.14466   0.00000  Uiso   1.00
C59    C     0.59877   0.08959   0.00764   0.00000  Uiso   1.00
C60    C     0.61142   0.15338   0.08452   0.00000  Uiso   1.00
C61    C     0.35799   0.20000   0.44998   0.00000  Uiso   1.00
C62    C     0.38238   0.21052   0.00671   0.00000  Uiso   1.00
C63    C     0.46661   0.16407   0.49483   0.00000  Uiso   1.00
C64    C     0.43690   0.19354   0.02894   0.00000  Uiso   1.00
C65    C     0.57494   0.32698   0.21780   0.00000  Uiso   1.00
C66    C     0.56025   0.23543   0.07153   0.00000  Uiso   1.00
C67    C     0.43519   0.14346   0.44249   0.00000  Uiso   1.00
C68    C     0.52467   0.15100   0.01267   0.00000  Uiso   1.00
C69    C     0.54449   0.10796   0.48574   0.00000  Uiso   1.00
C70    C     0.50825   0.08155   0.43978   0.00000  Uiso   1.00
C71    C     0.45363   0.09844   0.41858   0.00000  Uiso   1.00
C72    C     0.56364   0.17835   0.05707   0.00000  Uiso   1.00
C73    C     0.63085   0.11065   0.05861   0.00000  Uiso   1.00
H74    H     0.33548   0.09189   0.07927   0.00000  Uiso   1.00
H75    H     0.54669   0.02489   0.20111   0.00000  Uiso   1.00
H76    H     0.57013   0.29747   0.18291   0.00000  Uiso   1.00
H77    H     0.55834   0.31039   0.25443   0.00000  Uiso   1.00
H78    H     0.60455   0.25593   0.07934   0.00000  Uiso   1.00
H79    H     0.53389   0.25532   0.03610   0.00000  Uiso   1.00
H80    H     0.54188   0.23963   0.11026   0.00000  Uiso   1.00
H81    H     0.49027   0.12522   0.20857   0.00000  Uiso   1.00
H82    H     0.50974   0.20813   0.29141   0.00000  Uiso   1.00
H83    H     0.52136   0.04637   0.42181   0.00000  Uiso   1.00
H84    H     0.61388   0.05624   0.48807   0.00000  Uiso   1.00
H85    H     0.65196   0.21793   0.43157   0.00000  Uiso   1.00
H86    H     0.45431   0.20215   0.07320   0.00000  Uiso   1.00
H87    H     0.36040   0.23383   0.03277   0.00000  Uiso   1.00
H88    H     0.39678   0.00325   0.24733   0.00000  Uiso   1.00
N89    N     0.47827   0.15223   0.23543   0.00000  Uiso   1.00
N90    N     0.52173   0.18110   0.26458   0.00000  Uiso   1.00
O91    O     0.63102   0.24629   0.25358   0.00000  Uiso   1.00
O92    O     0.39075   0.23704   0.24423   0.00000  Uiso   1.00
O93    O     0.64823   0.17358   0.33380   0.00000  Uiso   1.00
O94    O     0.40796   0.16433   0.32446   0.00000  Uiso   1.00
O95    O     0.60925   0.09629   0.25577   0.00000  Uiso   1.00
O96    O     0.36898   0.08704   0.24642   0.00000  Uiso   1.00
O97    O     0.59204   0.16901   0.17554   0.00000  Uiso   1.00
O98    O     0.35177   0.15976   0.16620   0.00000  Uiso   1.00
Zn99   Zn    0.60453   0.17284   0.25624   0.00000  Uiso   1.00
Zn100  Zn    0.39547   0.16049   0.24376   0.00000  Uiso   1.00
Br101  Br    0.73346   0.04909   0.37123   0.00000  Uiso   1.00
C102   C     0.68009   0.26464   0.24478   0.00000  Uiso   1.00
C103   C     0.71888   0.16797   0.41704   0.00000  Uiso   1.00
C104   C     0.68554   0.31916   0.24019   0.00000  Uiso   1.00
C105   C     0.70194   0.16798   0.35551   0.00000  Uiso   1.00
C106   C     0.97182   0.01426   0.23564   0.00000  Uiso   1.00
C107   C     0.98356   0.06859   0.24632   0.00000  Uiso   1.00
C108   C     0.96439   0.16356   0.14466   0.00000  Uiso   1.00
C109   C     0.93211   0.08959   0.00764   0.00000  Uiso   1.00
C110   C     0.94476   0.15338   0.08452   0.00000  Uiso   1.00
C111   C     0.69133   0.20000   0.44998   0.00000  Uiso   1.00
C112   C     0.71572   0.21052   0.00671   0.00000  Uiso   1.00
C113   C     0.79994   0.16407   0.49483   0.00000  Uiso   1.00
C114   C     0.77023   0.19354   0.02894   0.00000  Uiso   1.00
C115   C     0.90827   0.32698   0.21780   0.00000  Uiso   1.00
C116   C     0.89358   0.23543   0.07153   0.00000  Uiso   1.00
C117   C     0.76853   0.14346   0.44249   0.00000  Uiso   1.00
C118   C     0.85800   0.15100   0.01267   0.00000  Uiso   1.00
C119   C     0.87782   0.10796   0.48574   0.00000  Uiso   1.00
C120   C     0.84158   0.08155   0.43978   0.00000  Uiso   1.00
C121   C     0.78696   0.09844   0.41858   0.00000  Uiso   1.00
C122   C     0.89697   0.17835   0.05707   0.00000  Uiso   1.00
C123   C     0.96419   0.11065   0.05861   0.00000  Uiso   1.00
H124   H     0.66881   0.09189   0.07927   0.00000  Uiso   1.00
H125   H     0.88002   0.02489   0.20111   0.00000  Uiso   1.00
H126   H     0.90347   0.29747   0.18291   0.00000  Uiso   1.00
H127   H     0.89167   0.31039   0.25443   0.00000  Uiso   1.00
H128   H     0.93788   0.25593   0.07934   0.00000  Uiso   1.00
H129   H     0.86723   0.25532   0.03610   0.00000  Uiso   1.00
H130   H     0.87521   0.23963   0.11026   0.00000  Uiso   1.00
H131   H     0.82360   0.12522   0.20857   0.00000  Uiso   1.00
H132   H     0.84307   0.20813   0.29141   0.00000  Uiso   1.00
H133   H     0.85470   0.04637   0.42181   0.00000  Uiso   1.00
H134   H     0.94722   0.05624   0.48807   0.00000  Uiso   1.00
H135   H     0.98529   0.21793   0.43157   0.00000  Uiso   1.00
H136   H     0.78764   0.20215   0.07320   0.00000  Uiso   1.00
H137   H     0.69374   0.23383   0.03277   0.00000  Uiso   1.00
H138   H     0.73011   0.00325   0.24733   0.00000  Uiso   1.00
N139   N     0.81160   0.15223   0.23543   0.00000  Uiso   1.00
N140   N     0.85507   0.18110   0.26458   0.00000  Uiso   1.00
O141   O     0.96435   0.24629   0.25358   0.00000  Uiso   1.00
O142   O     0.72408   0.23704   0.24423   0.00000  Uiso   1.00
O143   O     0.98157   0.17358   0.33380   0.00000  Uiso   1.00
O144   O     0.74130   0.16433   0.32446   0.00000  Uiso   1.00
O145   O     0.94258   0.09629   0.25577   0.00000  Uiso   1.00
O146   O     0.70231   0.08704   0.24642   0.00000  Uiso   1.00
O147   O     0.92537   0.16901   0.17554   0.00000  Uiso   1.00
O148   O     0.68510   0.15976   0.16620   0.00000  Uiso   1.00
Zn149  Zn    0.93786   0.17284   0.25624   0.00000  Uiso   1.00
Zn150  Zn    0.72881   0.16049   0.24376   0.00000  Uiso   1.00
Br151  Br    0.06679   0.38243   0.37123   0.00000  Uiso   1.00
C152   C     0.01342   0.59798   0.24478   0.00000  Uiso   1.00
C153   C     0.05221   0.50130   0.41704   0.00000  Uiso   1.00
C154   C     0.01888   0.65250   0.24019   0.00000  Uiso   1.00
C155   C     0.03527   0.50131   0.35551   0.00000  Uiso   1.00
C156   C     0.30516   0.34759   0.23564   0.00000  Uiso   1.00
C157   C     0.31689   0.40192   0.24632   0.00000  Uiso   1.00
C158   C     0.29772   0.49689   0.14466   0.00000  Uiso   1.00
C159   C     0.26544   0.42292   0.00764   0.00000  Uiso   1.00
C160   C     0.27809   0.48671   0.08452   0.00000  Uiso   1.00
C161   C     0.02466   0.53333   0.44998   0.00000  Uiso   1.00
C162   C     0.04905   0.54385   0.00671   0.00000  Uiso   1.00
C163   C     0.13328   0.49741   0.49483   0.00000  Uiso   1.00
C164   C     0.10357   0.52687   0.02894   0.00000  Uiso   1.00
C165   C     0.24160   0.66032   0.21780   0.00000  Uiso   1.00
C166   C     0.22691   0.56877   0.07153   0.00000  Uiso   1.00
C167   C     0.10186   0.47679   0.44249   0.00000  Uiso   1.00
C168   C     0.19134   0.48434   0.01267   0.00000  Uiso   1.00
C169   C     0.21115   0.44130   0.48574   0.00000  Uiso   1.00
C170   C     0.17492   0.41488   0.43978   0.00000  Uiso   1.00
C171   C     0.12029   0.43177   0.41858   0.00000  Uiso   1.00
C172   C     0.23031   0.51168   0.05707   0.00000  Uiso   1.00
C173   C     0.29752   0.44398   0.05861   0.00000  Uiso   1.00
H174   H     0.00214   0.42522   0.07927   0.00000  Uiso   1.00
H175   H     0.21336   0.35823   0.20111   0.00000  Uiso   1.00
H176   H     0.23680   0.63080   0.18291   0.00000  Uiso   1.00
H177   H     0.22500   0.64372   0.25443   0.00000  Uiso   1.00
H178   H     0.27121   0.58926   0.07934   0.00000  Uiso   1.00
H179   H     0.20056   0.58865   0.03610   0.00000  Uiso   1.00
H180   H     0.20855   0.57296   0.11026   0.00000  Uiso   1.00
H181   H     0.15694   0.45856   0.20857   0.00000  Uiso   1.00
H182   H     0.17640   0.54146   0.29141   0.00000  Uiso   1.00
H183   H     0.18803   0.37971   0.42181   0.00000  Uiso   1.00
H184   H     0.28055   0.38957   0.48807   0.00000  Uiso   1.00
H185   H     0.31863   0.55126   0.43157   0.00000  Uiso   1.00
H186   H     0.12097   0.53549   0.07320   0.00000  Uiso   1.00
H187   H     0.02707   0.56716   0.03277   0.00000  Uiso   1.00
H188   H     0.06344   0.33658   0.24733   0.00000  Uiso   1.00
N189   N     0.14493   0.48556   0.23543   0.00000  Uiso   1.00
N190   N     0.18840   0.51444   0.26458   0.00000  Uiso   1.00
O191   O     0.29769   0.57963   0.25358   0.00000  Uiso   1.00
O192   O     0.05742   0.57038   0.24423   0.00000  Uiso   1.00
O193   O     0.31490   0.50691   0.33380   0.00000  Uiso   1.00
O194   O     0.07463   0.49766   0.32446   0.00000  Uiso   1.00
O195   O     0.27592   0.42962   0.25577   0.00000  Uiso   1.00
O196   O     0.03565   0.42037   0.24642   0.00000  Uiso   1.00
O197   O     0.25870   0.50234   0.17554   0.00000  Uiso   1.00
O198   O     0.01843   0.49309   0.16620   0.00000  Uiso   1.00
Zn199  Zn    0.27119   0.50618   0.25624   0.00000  Uiso   1.00
Zn200  Zn    0.06214   0.49382   0.24376   0.00000  Uiso   1.00
Br201  Br    0.40012   0.38243   0.37123   0.00000  Uiso   1.00
C202   C     0.34676   0.59798   0.24478   0.00000  Uiso   1.00
C203   C     0.38555   0.50130   0.41704   0.00000  Uiso   1.00
C204   C     0.35221   0.65250   0.24019   0.00000  Uiso   1.00
C205   C     0.36861   0.50131   0.35551   0.00000  Uiso   1.00
C206   C     0.63849   0.34759   0.23564   0.00000  Uiso   1.00
C207   C     0.65022   0.40192   0.24632   0.00000  Uiso   1.00
C208   C     0.63105   0.49689   0.14466   0.00000  Uiso   1.00
C209   C     0.59877   0.42292   0.00764   0.00000  Uiso   1.00
C210   C     0.61142   0.48671   0.08452   0.00000  Uiso   1.00
C211   C     0.35799   0.53333   0.44998   0.00000  Uiso   1.00
C212   C     0.38238   0.54385   0.00671   0.00000  Uiso   1.00
C213   C     0.46661   0.49741   0.49483   0.00000  Uiso   1.00
C214   C     0.43690   0.52687   0.02894   0.00000  Uiso   1.00
C215   C     0.57494   0.66032   0.21780   0.00000  Uiso   1.00
C216   C     0.56025   0.56877   0.07153   0.00000  Uiso   1.00
C217   C     0.43519   0.47679   0.44249   0.00000  Uiso   1.00
C218   C     0.52467   0.48434   0.01267   0.00000  Uiso   1.00
C219   C     0.54449   0.44130   0.48574   0.00000  Uiso   1.00
C220   C     0.50825   0.41488   0.43978   0.00000  Uiso   1.00
C221   C     0.45363   0.43177   0.41858   0.00000  Uiso   1.00
C222   C     0.56364   0.51168   0.05707   0.00000  Uiso   1.00
C223   C     0.63085   0.44398   0.05861   0.00000  Uiso   1.00
H224   H     0.33548   0.42522   0.07927   0.00000  Uiso   1.00
H225   H     0.54669   0.35823   0.20111   0.00000  Uiso   1.00
H226   H     0.57013   0.63080   0.18291   0.00000  Uiso   1.00
H227   H     0.55834   0.64372   0.25443   0.00000  Uiso   1.00
H228   H     0.60455   0.58926   0.07934   0.00000  Uiso   1.00
H229   H     0.53389   0.58865   0.03610   0.00000  Uiso   1.00
H230   H     0.54188   0.57296   0.11026   0.00000  Uiso   1.00
H231   H     0.49027   0.45856   0.20857   0.00000  Uiso   1.00
H232   H     0.50974   0.54146   0.29141   0.00000  Uiso   1.00
H233   H     0.52136   0.37971   0.42181   0.00000  Uiso   1.00
H234   H     0.61388   0.38957   0.48807   0.00000  Uiso   1.00
H235   H     0.65196   0.55126   0.43157   0.00000  Uiso   1.00
H236   H     0.45431   0.53549   0.07320   0.00000  Uiso   1.00
H237   H     0.36040   0.56716   0.03277   0.00000  Uiso   1.00
H238   H     0.39678   0.33658   0.24733   0.00000  Uiso   1.00
N239   N     0.47827   0.48556   0.23543   0.00000  Uiso   1.00
N240   N     0.52173   0.51444   0.26458   0.00000  Uiso   1.00
O241   O     0.63102   0.57963   0.25358   0.00000  Uiso   1.00
O242   O     0.39075   0.57038   0.24423   0.00000  Uiso   1.00
O243   O     0.64823   0.50691   0.33380   0.00000  Uiso   1.00
O244   O     0.40796   0.49766   0.32446   0.00000  Uiso   1.00
O245   O     0.60925   0.42962   0.25577   0.00000  Uiso   1.00
O246   O     0.36898   0.42037   0.24642   0.00000  Uiso   1.00
O247   O     0.59204   0.50234   0.17554   0.00000  Uiso   1.00
O248   O     0.35177   0.49309   0.16620   0.00000  Uiso   1.00
Zn249  Zn    0.60453   0.50618   0.25624   0.00000  Uiso   1.00
Zn250  Zn    0.39547   0.49382   0.24376   0.00000  Uiso   1.00
Br251  Br    0.73346   0.38243   0.37123   0.00000  Uiso   1.00
C252   C     0.68009   0.59798   0.24478   0.00000  Uiso   1.00
C253   C     0.71888   0.50130   0.41704   0.00000  Uiso   1.00
C254   C     0.68554   0.65250   0.24019   0.00000  Uiso   1.00
C255   C     0.70194   0.50131   0.35551   0.00000  Uiso   1.00
C256   C     0.97182   0.34759   0.23564   0.00000  Uiso   1.00
C257   C     0.98356   0.40192   0.24632   0.00000  Uiso   1.00
C258   C     0.96439   0.49689   0.14466   0.00000  Uiso   1.00
C259   C     0.93211   0.42292   0.00764   0.00000  Uiso   1.00
C260   C     0.94476   0.48671   0.08452   0.00000  Uiso   1.00
C261   C     0.69133   0.53333   0.44998   0.00000  Uiso   1.00
C262   C     0.71572   0.54385   0.00671   0.00000  Uiso   1.00
C263   C     0.79994   0.49741   0.49483   0.00000  Uiso   1.00
C264   C     0.77023   0.52687   0.02894   0.00000  Uiso   1.00
C265   C     0.90827   0.66032   0.21780   0.00000  Uiso   1.00
C266   C     0.89358   0.56877   0.07153   0.00000  Uiso   1.00
C267   C     0.76853   0.47679   0.44249   0.00000  Uiso   1.00
C268   C     0.85800   0.48434   0.01267   0.00000  Uiso   1.00
C269   C     0.87782   0.44130   0.48574   0.00000  Uiso   1.00
C270   C     0.84158   0.41488   0.43978   0.00000  Uiso   1.00
C271   C     0.78696   0.43177   0.41858   0.00000  Uiso   1.00
C272   C     0.89697   0.51168   0.05707   0.00000  Uiso   1.00
C273   C     0.96419   0.44398   0.05861   0.00000  Uiso   1.00
H274   H     0.66881   0.42522   0.07927   0.00000  Uiso   1.00
H275   H     0.88002   0.35823   0.20111   0.00000  Uiso   1.00
H276   H     0.90347   0.63080   0.18291   0.00000  Uiso   1.00
H277   H     0.89167   0.64372   0.25443   0.00000  Uiso   1.00
H278   H     0.93788   0.58926   0.07934   0.00000  Uiso   1.00
H279   H     0.86723   0.58865   0.03610   0.00000  Uiso   1.00
H280   H     0.87521   0.57296   0.11026   0.00000  Uiso   1.00
H281   H     0.82360   0.45856   0.20857   0.00000  Uiso   1.00
H282   H     0.84307   0.54146   0.29141   0.00000  Uiso   1.00
H283   H     0.85470   0.37971   0.42181   0.00000  Uiso   1.00
H284   H     0.94722   0.38957   0.48807   0.00000  Uiso   1.00
H285   H     0.98529   0.55126   0.43157   0.00000  Uiso   1.00
H286   H     0.78764   0.53549   0.07320   0.00000  Uiso   1.00
H287   H     0.69374   0.56716   0.03277   0.00000  Uiso   1.00
H288   H     0.73011   0.33658   0.24733   0.00000  Uiso   1.00
N289   N     0.81160   0.48556   0.23543   0.00000  Uiso   1.00
N290   N     0.85507   0.51444   0.26458   0.00000  Uiso   1.00
O291   O     0.96435   0.57963   0.25358   0.00000  Uiso   1.00
O292   O     0.72408   0.57038   0.24423   0.00000  Uiso   1.00
O293   O     0.98157   0.50691   0.33380   0.00000  Uiso   1.00
O294   O     0.74130   0.49766   0.32446   0.00000  Uiso   1.00
O295   O     0.94258   0.42962   0.25577   0.00000  Uiso   1.00
O296   O     0.70231   0.42037   0.24642   0.00000  Uiso   1.00
O297   O     0.92537   0.50234   0.17554   0.00000  Uiso   1.00
O298   O     0.68510   0.49309   0.16620   0.00000  Uiso   1.00
Zn299  Zn    0.93786   0.50618   0.25624   0.00000  Uiso   1.00
Zn300  Zn    0.72881   0.49382   0.24376   0.00000  Uiso   1.00
Br301  Br    0.06679   0.71576   0.37123   0.00000  Uiso   1.00
C302   C     0.01342   0.93131   0.24478   0.00000  Uiso   1.00
C303   C     0.05221   0.83463   0.41704   0.00000  Uiso   1.00
C304   C     0.01888   0.98583   0.24019   0.00000  Uiso   1.00
C305   C     0.03527   0.83464   0.35551   0.00000  Uiso   1.00
C306   C     0.30516   0.68092   0.23564   0.00000  Uiso   1.00
C307   C     0.31689   0.73525   0.24632   0.00000  Uiso   1.00
C308   C     0.29772   0.83022   0.14466   0.00000  Uiso   1.00
C309   C     0.26544   0.75625   0.00764   0.00000  Uiso   1.00
C310   C     0.27809   0.82005   0.08452   0.00000  Uiso   1.00
C311   C     0.02466   0.86666   0.44998   0.00000  Uiso   1.00
C312   C     0.04905   0.87718   0.00671   0.00000  Uiso   1.00
C313   C     0.13328   0.83074   0.49483   0.00000  Uiso   1.00
C314   C     0.10357   0.86021   0.02894   0.00000  Uiso   1.00
C315   C     0.24160   0.99365   0.21780   0.00000  Uiso   1.00
C316   C     0.22691   0.90210   0.07153   0.00000  Uiso   1.00
C317   C     0.10186   0.81013   0.44249   0.00000  Uiso   1.00
C318   C     0.19134   0.81767   0.01267   0.00000  Uiso   1.00
C319   C     0.21115   0.77463   0.48574   0.00000  Uiso   1.00
C320   C     0.17492   0.74821   0.43978   0.00000  Uiso   1.00
C321   C     0.12029   0.76511   0.41858   0.00000  Uiso   1.00
C322   C     0.23031   0.84502   0.05707   0.00000  Uiso   1.00
C323   C     0.29752   0.77732   0.05861   0.00000  Uiso   1.00
H324   H     0.00214   0.75856   0.07927   0.00000  Uiso   1.00
H325   H     0.21336   0.69156   0.20111   0.00000  Uiso   1.00
H326   H     0.23680   0.96413   0.18291   0.00000  Uiso   1.00
H327   H     0.22500   0.97706   0.25443   0.00000  Uiso   1.00
H328   H     0.27121   0.92260   0.07934   0.00000  Uiso   1.00
H329   H     0.20056   0.92198   0.03610   0.00000  Uiso   1.00
H330   H     0.20855   0.90629   0.11026   0.00000  Uiso   1.00
H331   H     0.15694   0.79189   0.20857   0.00000  Uiso   1.00
H332   H     0.17640   0.87479   0.29141   0.00000  Uiso   1.00
H333   H     0.18803   0.71304   0.42181   0.00000  Uiso   1.00
H334   H     0.28055   0.72291   0.48807   0.00000  Uiso   1.00
H335   H     0.31863   0.88459   0.43157   0.00000  Uiso   1.00
H336   H     0.12097   0.86882   0.07320   0.00000  Uiso   1.00
H337   H     0.02707   0.90050   0.03277   0.00000  Uiso   1.00
H338   H     0.06344   0.66991   0.24733   0.00000  Uiso   1.00
N339   N     0.14493   0.81890   0.23543   0.00000  Uiso   1.00
N340   N     0.18840   0.84777   0.26458   0.00000  Uiso   1.00
O341   O     0.29769   0.91296   0.25358   0.00000  Uiso   1.00
O342   O     0.05742   0.90371   0.24423   0.00000  Uiso   1.00
O343   O     0.31490   0.84024   0.33380   0.00000  Uiso   1.00
O344   O     0.07463   0.83099   0.32446   0.00000  Uiso   1.00
O345   O     0.27592   0.76296   0.25577   0.00000  Uiso   1.00
O346   O     0.03565   0.75371   0.24642   0.00000  Uiso   1.00
O347   O     0.25870   0.83567   0.17554   0.00000  Uiso   1.00
O348   O     0.01843   0.82642   0.16620   0.00000  Uiso   1.00
Zn349  Zn    0.27119   0.83951   0.25624   0.00000  Uiso   1.00
Zn350  Zn    0.06214   0.82716   0.24376   0.00000  Uiso   1.00
Br351  Br    0.40012   0.71576   0.37123   0.00000  Uiso   1.00
C352   C     0.34676   0.93131   0.24478   0.00000  Uiso   1.00
C353   C     0.38555   0.83463   0.41704   0.00000  Uiso   1.00
C354   C     0.35221   0.98583   0.24019   0.00000  Uiso   1.00
C355   C     0.36861   0.83464   0.35551   0.00000  Uiso   1.00
C356   C     0.63849   0.68092   0.23564   0.00000  Uiso   1.00
C357   C     0.65022   0.73525   0.24632   0.00000  Uiso   1.00
C358   C     0.63105   0.83022   0.14466   0.00000  Uiso   1.00
C359   C     0.59877   0.75625   0.00764   0.00000  Uiso   1.00
C360   C     0.61142   0.82005   0.08452   0.00000  Uiso   1.00
C361   C     0.35799   0.86666   0.44998   0.00000  Uiso   1.00
C362   C     0.38238   0.87718   0.00671   0.00000  Uiso   1.00
C363   C     0.46661   0.83074   0.49483   0.00000  Uiso   1.00
C364   C     0.43690   0.86021   0.02894   0.00000  Uiso   1.00
C365   C     0.57494   0.99365   0.21780   0.00000  Uiso   1.00
C366   C     0.56025   0.90210   0.07153   0.00000  Uiso   1.00
C367   C     0.43519   0.81013   0.44249   0.00000  Uiso   1.00
C368   C     0.52467   0.81767   0.01267   0.00000  Uiso   1.00
C369   C     0.54449   0.77463   0.48574   0.00000  Uiso   1.00
C370   C     0.50825   0.74821   0.43978   0.00000  Uiso   1.00
C371   C     0.45363   0.76511   0.41858   0.00000  Uiso   1.00
C372   C     0.56364   0.84502   0.05707   0.00000  Uiso   1.00
C373   C     0.63085   0.77732   0.05861   0.00000  Uiso   1.00
H374   H     0.33548   0.75856   0.07927   0.00000  Uiso   1.00
H375   H     0.54669   0.69156   0.20111   0.00000  Uiso   1.00
H376   H     0.57013   0.96413   0.18291   0.00000  Uiso   1.00
H377   H     0.55834   0.97706   0.25443   0.00000  Uiso   1.00
H378   H     0.60455   0.92260   0.07934   0.00000  Uiso   1.00
H379   H     0.53389   0.92198   0.03610   0.00000  Uiso   1.00
H380   H     0.54188   0.90629   0.11026   0.00000  Uiso   1.00
H381   H     0.49027   0.79189   0.20857   0.00000  Uiso   1.00
H382   H     0.50974   0.87479   0.29141   0.00000  Uiso   1.00
H383   H     0.52136   0.71304   0.42181   0.00000  Uiso   1.00
H384   H     0.61388   0.72291   0.48807   0.00000  Uiso   1.00
H385   H     0.65196   0.88459   0.43157   0.00000  Uiso   1.00
H386   H     0.45431   0.86882   0.07320   0.00000  Uiso   1.00
H387   H     0.36040   0.90050   0.03277   0.00000  Uiso   1.00
H388   H     0.39678   0.66991   0.24733   0.00000  Uiso   1.00
N389   N     0.47827   0.81890   0.23543   0.00000  Uiso   1.00
N390   N     0.52173   0.84777   0.26458   0.00000  Uiso   1.00
O391   O     0.63102   0.91296   0.25358   0.00000  Uiso   1.00
O392   O     0.39075   0.90371   0.24423   0.00000  Uiso   1.00
O393   O     0.64823   0.84024   0.33380   0.00000  Uiso   1.00
O394   O     0.40796   0.83099   0.32446   0.00000  Uiso   1.00
O395   O     0.60925   0.76296   0.25577   0.00000  Uiso   1.00
O396   O     0.36898   0.75371   0.24642   0.00000  Uiso   1.00
O397   O     0.59204   0.83567   0.17554   0.00000  Uiso   1.00
O398   O     0.35177   0.82642   0.16620   0.00000  Uiso   1.00
Zn399  Zn    0.60453   0.83951   0.25624   0.00000  Uiso   1.00
Zn400  Zn    0.39547   0.82716   0.24376   0.00000  Uiso   1.00
Br401  Br    0.73346   0.71576   0.37123   0.00000  Uiso   1.00
C402   C     0.68009   0.93131   0.24478   0.00000  Uiso   1.00
C403   C     0.71888   0.83463   0.41704   0.00000  Uiso   1.00
C404   C     0.68554   0.98583   0.24019   0.00000  Uiso   1.00
C405   C     0.70194   0.83464   0.35551   0.00000  Uiso   1.00
C406   C     0.97182   0.68092   0.23564   0.00000  Uiso   1.00
C407   C     0.98356   0.73525   0.24632   0.00000  Uiso   1.00
C408   C     0.96439   0.83022   0.14466   0.00000  Uiso   1.00
C409   C     0.93211   0.75625   0.00764   0.00000  Uiso   1.00
C410   C     0.94476   0.82005   0.08452   0.00000  Uiso   1.00
C411   C     0.69133   0.86666   0.44998   0.00000  Uiso   1.00
C412   C     0.71572   0.87718   0.00671   0.00000  Uiso   1.00
C413   C     0.79994   0.83074   0.49483   0.00000  Uiso   1.00
C414   C     0.77023   0.86021   0.02894   0.00000  Uiso   1.00
C415   C     0.90827   0.99365   0.21780   0.00000  Uiso   1.00
C416   C     0.89358   0.90210   0.07153   0.00000  Uiso   1.00
C417   C     0.76853   0.81013   0.44249   0.00000  Uiso   1.00
C418   C     0.85800   0.81767   0.01267   0.00000  Uiso   1.00
C419   C     0.87782   0.77463   0.48574   0.00000  Uiso   1.00
C420   C     0.84158   0.74821   0.43978   0.00000  Uiso   1.00
C421   C     0.78696   0.76511   0.41858   0.00000  Uiso   1.00
C422   C     0.89697   0.84502   0.05707   0.00000  Uiso   1.00
C423   C     0.96419   0.77732   0.05861   0.00000  Uiso   1.00
H424   H     0.66881   0.75856   0.07927   0.00000  Uiso   1.00
H425   H     0.88002   0.69156   0.20111   0.00000  Uiso   1.00
H426   H     0.90347   0.96413   0.18291   0.00000  Uiso   1.00
H427   H     0.89167   0.97706   0.25443   0.00000  Uiso   1.00
H428   H     0.93788   0.92260   0.07934   0.00000  Uiso   1.00
H429   H     0.86723   0.92198   0.03610   0.00000  Uiso   1.00
H430   H     0.87521   0.90629   0.11026   0.00000  Uiso   1.00
H431   H     0.82360   0.79189   0.20857   0.00000  Uiso   1.00
H432   H     0.84307   0.87479   0.29141   0.00000  Uiso   1.00
H433   H     0.85470   0.71304   0.42181   0.00000  Uiso   1.00
H434   H     0.94722   0.72291   0.48807   0.00000  Uiso   1.00
H435   H     0.98529   0.88459   0.43157   0.00000  Uiso   1.00
H436   H     0.78764   0.86882   0.07320   0.00000  Uiso   1.00
H437   H     0.69374   0.90050   0.03277   0.00000  Uiso   1.00
H438   H     0.73011   0.66991   0.24733   0.00000  Uiso   1.00
N439   N     0.81160   0.81890   0.23543   0.00000  Uiso   1.00
N440   N     0.85507   0.84777   0.26458   0.00000  Uiso   1.00
O441   O     0.96435   0.91296   0.25358   0.00000  Uiso   1.00
O442   O     0.72408   0.90371   0.24423   0.00000  Uiso   1.00
O443   O     0.98157   0.84024   0.33380   0.00000  Uiso   1.00
O444   O     0.74130   0.83099   0.32446   0.00000  Uiso   1.00
O445   O     0.94258   0.76296   0.25577   0.00000  Uiso   1.00
O446   O     0.70231   0.75371   0.24642   0.00000  Uiso   1.00
O447   O     0.92537   0.83567   0.17554   0.00000  Uiso   1.00
O448   O     0.68510   0.82642   0.16620   0.00000  Uiso   1.00
Zn449  Zn    0.93786   0.83951   0.25624   0.00000  Uiso   1.00
Zn450  Zn    0.72881   0.82716   0.24376   0.00000  Uiso   1.00
Br451  Br    0.06679   0.04909   0.87123   0.00000  Uiso   1.00
C452   C     0.01342   0.26464   0.74478   0.00000  Uiso   1.00
C453   C     0.05221   0.16797   0.91704   0.00000  Uiso   1.00
C454   C     0.01888   0.31916   0.74019   0.00000  Uiso   1.00
C455   C     0.03527   0.16798   0.85551   0.00000  Uiso   1.00
C456   C     0.30516   0.01426   0.73564   0.00000  Uiso   1.00
C457   C     0.31689   0.06859   0.74632   0.00000  Uiso   1.00
C458   C     0.29772   0.16356   0.64466   0.00000  Uiso   1.00
C459   C     0.26544   0.08959   0.50764   0.00000  Uiso   1.00
C460   C     0.27809   0.15338   0.58452   0.00000  Uiso   1.00
C461   C     0.02466   0.20000   0.94998   0.00000  Uiso   1.00
C462   C     0.04905   0.21052   0.50671   0.00000  Uiso   1.00
C463   C     0.13328   0.16407   0.99483   0.00000  Uiso   1.00
C464   C     0.10357   0.19354   0.52894   0.00000  Uiso   1.00
C465   C     0.24160   0.32698   0.71780   0.00000  Uiso   1.00
C466   C     0.22691   0.23543   0.57153   0.00000  Uiso   1.00
C467   C     0.10186   0.14346   0.94249   0.00000  Uiso   1.00
C468   C     0.19134   0.15100   0.51267   0.00000  Uiso   1.00
C469   C     0.21115   0.10796   0.98574   0.00000  Uiso   1.00
C470   C     0.17492   0.08155   0.93978   0.00000  Uiso   1.00
C471   C     0.12029   0.09844   0.91858   0.00000  Uiso   1.00
C472   C     0.23031   0.17835   0.55707   0.00000  Uiso   1.00
C473   C     0.29752   0.11065   0.55861   0.00000  Uiso   1.00
H474   H     0.00214   0.09189   0.57927   0.00000  Uiso   1.00
H475   H     0.21336   0.02489   0.70111   0.00000  Uiso   1.00
H476   H     0.23680   0.29747   0.68291   0.00000  Uiso   1.00
H477   H     0.22500   0.31039   0.75443   0.00000  Uiso   1.00
H478   H     0.27121   0.25593   0.57934   0.00000  Uiso   1.00
H479   H     0.20056   0.25532   0.53610   0.00000  Uiso   1.00
H480   H     0.20855   0.23963   0.61026   0.00000  Uiso   1.00
H481   H     0.15694   0.12522   0.70857   0.00000  Uiso   1.00
H482   H     0.17640   0.20813   0.79141   0.00000  Uiso   1.00
H483   H     0.18803   0.04637   0.92181   0.00000  Uiso   1.00
H484   H     0.28055   0.05624   0.98807   0.00000  Uiso   1.00
H485   H     0.31863   0.21793   0.93157   0.00000  Uiso   1.00
H486   H     0.12097   0.20215   0.57320   0.00000  Uiso   1.00
H487   H     0.02707   0.23383   0.53277   0.00000  Uiso   1.00
H488   H     0.06344   0.00325   0.74733   0.00000  Uiso   1.00
N489   N     0.14493   0.15223   0.73543   0.00000  Uiso   1.00
N490   N     0.18840   0.18110   0.76458   0.00000  Uiso   1.00
O491   O     0.29769   0.24629   0.75358   0.00000  Uiso   1.00
O492   O     0.05742   0.23704   0.74423   0.00000  Uiso   1.00
O493   O     0.31490   0.17358   0.83380   0.00000  Uiso   1.00
O494   O     0.07463   0.16433   0.82446   0.00000  Uiso   1.00
O495   O     0.27592   0.09629   0.75577   0.00000  Uiso   1.00
O496   O     0.03565   0.08704   0.74642   0.00000  Uiso   1.00
O497   O     0.25870   0.16901   0.67554   0.00000  Uiso   1.00
O498   O     0.01843   0.15976   0.66620   0.00000  Uiso   1.00
Zn499  Zn    0.27119   0.17284   0.75624   0.00000  Uiso   1.00
Zn500  Zn    0.06214   0.16049   0.74376   0.00000  Uiso   1.00
Br501  Br    0.40012   0.04909   0.87123   0.00000  Uiso   1.00
C502   C     0.34676   0.26464   0.74478   0.00000  Uiso   1.00
C503   C     0.38555   0.16797   0.91704   0.00000  Uiso   1.00
C504   C     0.35221   0.31916   0.74019   0.00000  Uiso   1.00
C505   C     0.36861   0.16798   0.85551   0.00000  Uiso   1.00
C506   C     0.63849   0.01426   0.73564   0.00000  Uiso   1.00
C507   C     0.65022   0.06859   0.74632   0.00000  Uiso   1.00
C508   C     0.63105   0.16356   0.64466   0.00000  Uiso   1.00
C509   C     0.59877   0.08959   0.50764   0.00000  Uiso   1.00
C510   C     0.61142   0.15338   0.58452   0.00000  Uiso   1.00
C511   C     0.35799   0.20000   0.94998   0.00000  Uiso   1.00
C512   C     0.38238   0.21052   0.50671   0.00000  Uiso   1.00
C513   C     0.46661   0.16407   0.99483   0.00000  Uiso   1.00
C514   C     0.43690   0.19354   0.52894   0.00000  Uiso   1.00
C515   C     0.57494   0.32698   0.71780   0.00000  Uiso   1.00
C516   C     0.56025   0.23543   0.57153   0.00000  Uiso   1.00
C517   C     0.43519   0.14346   0.94249   0.00000  Uiso   1.00
C518   C     0.52467   0.15100   0.51267   0.00000  Uiso   1.00
C519   C     0.54449   0.10796   0.98574   0.00000  Uiso   1.00
C520   C     0.50825   0.08155   0.93978   0.00000  Uiso   1.00
C521   C     0.45363   0.09844   0.91858   0.00000  Uiso   1.00
C522   C     0.56364   0.17835   0.55707   0.00000  Uiso   1.00
C523   C     0.63085   0.11065   0.55861   0.00000  Uiso   1.00
H524   H     0.33548   0.09189   0.57927   0.00000  Uiso   1.00
H525   H     0.54669   0.02489   0.70111   0.00000  Uiso   1.00
H526   H     0.57013   0.29747   0.68291   0.00000  Uiso   1.00
H527   H     0.55834   0.31039   0.75443   0.00000  Uiso   1.00
H528   H     0.60455   0.25593   0.57934   0.00000  Uiso   1.00
H529   H     0.53389   0.25532   0.53610   0.00000  Uiso   1.00
H530   H     0.54188   0.23963   0.61026   0.00000  Uiso   1.00
H531   H     0.49027   0.12522   0.70857   0.00000  Uiso   1.00
H532   H     0.50974   0.20813   0.79141   0.00000  Uiso   1.00
H533   H     0.52136   0.04637   0.92181   0.00000  Uiso   1.00
H534   H     0.61388   0.05624   0.98807   0.00000  Uiso   1.00
H535   H     0.65196   0.21793   0.93157   0.00000  Uiso   1.00
H536   H     0.45431   0.20215   0.57320   0.00000  Uiso   1.00
H537   H     0.36040   0.23383   0.53277   0.00000  Uiso   1.00
H538   H     0.39678   0.00325   0.74733   0.00000  Uiso   1.00
N539   N     0.47827   0.15223   0.73543   0.00000  Uiso   1.00
N540   N     0.52173   0.18110   0.76458   0.00000  Uiso   1.00
O541   O     0.63102   0.24629   0.75358   0.00000  Uiso   1.00
O542   O     0.39075   0.23704   0.74423   0.00000  Uiso   1.00
O543   O     0.64823   0.17358   0.83380   0.00000  Uiso   1.00
O544   O     0.40796   0.16433   0.82446   0.00000  Uiso   1.00
O545   O     0.60925   0.09629   0.75577   0.00000  Uiso   1.00
O546   O     0.36898   0.08704   0.74642   0.00000  Uiso   1.00
O547   O     0.59204   0.16901   0.67554   0.00000  Uiso   1.00
O548   O     0.35177   0.15976   0.66620   0.00000  Uiso   1.00
Zn549  Zn    0.60453   0.17284   0.75624   0.00000  Uiso   1.00
Zn550  Zn    0.39547   0.16049   0.74376   0.00000  Uiso   1.00
Br551  Br    0.73346   0.04909   0.87123   0.00000  Uiso   1.00
C552   C     0.68009   0.26464   0.74478   0.00000  Uiso   1.00
C553   C     0.71888   0.16797   0.91704   0.00000  Uiso   1.00
C554   C     0.68554   0.31916   0.74019   0.00000  Uiso   1.00
C555   C     0.70194   0.16798   0.85551   0.00000  Uiso   1.00
C556   C     0.97182   0.01426   0.73564   0.00000  Uiso   1.00
C557   C     0.98356   0.06859   0.74632   0.00000  Uiso   1.00
C558   C     0.96439   0.16356   0.64466   0.00000  Uiso   1.00
C559   C     0.93211   0.08959   0.50764   0.00000  Uiso   1.00
C560   C     0.94476   0.15338   0.58452   0.00000  Uiso   1.00
C561   C     0.69133   0.20000   0.94998   0.00000  Uiso   1.00
C562   C     0.71572   0.21052   0.50671   0.00000  Uiso   1.00
C563   C     0.79994   0.16407   0.99483   0.00000  Uiso   1.00
C564   C     0.77023   0.19354   0.52894   0.00000  Uiso   1.00
C565   C     0.90827   0.32698   0.71780   0.00000  Uiso   1.00
C566   C     0.89358   0.23543   0.57153   0.00000  Uiso   1.00
C567   C     0.76853   0.14346   0.94249   0.00000  Uiso   1.00
C568   C     0.85800   0.15100   0.51267   0.00000  Uiso   1.00
C569   C     0.87782   0.10796   0.98574   0.00000  Uiso   1.00
C570   C     0.84158   0.08155   0.93978   0.00000  Uiso   1.00
C571   C     0.78696   0.09844   0.91858   0.00000  Uiso   1.00
C572   C     0.89697   0.17835   0.55707   0.00000  Uiso   1.00
C573   C     0.96419   0.11065   0.55861   0.00000  Uiso   1.00
H574   H     0.66881   0.09189   0.57927   0.00000  Uiso   1.00
H575   H     0.88002   0.02489   0.70111   0.00000  Uiso   1.00
H576   H     0.90347   0.29747   0.68291   0.00000  Uiso   1.00
H577   H     0.89167   0.31039   0.75443   0.00000  Uiso   1.00
H578   H     0.93788   0.25593   0.57934   0.00000  Uiso   1.00
H579   H     0.86723   0.25532   0.53610   0.00000  Uiso   1.00
H580   H     0.87521   0.23963   0.61026   0.00000  Uiso   1.00
H581   H     0.82360   0.12522   0.70857   0.00000  Uiso   1.00
H582   H     0.84307   0.20813   0.79141   0.00000  Uiso   1.00
H583   H     0.85470   0.04637   0.92181   0.00000  Uiso   1.00
H584   H     0.94722   0.05624   0.98807   0.00000  Uiso   1.00
H585   H     0.98529   0.21793   0.93157   0.00000  Uiso   1.00
H586   H     0.78764   0.20215   0.57320   0.00000  Uiso   1.00
H587   H     0.69374   0.23383   0.53277   0.00000  Uiso   1.00
H588   H     0.73011   0.00325   0.74733   0.00000  Uiso   1.00
N589   N     0.81160   0.15223   0.73543   0.00000  Uiso   1.00
N590   N     0.85507   0.18110   0.76458   0.00000  Uiso   1.00
O591   O     0.96435   0.24629   0.75358   0.00000  Uiso   1.00
O592   O     0.72408   0.23704   0.74423   0.00000  Uiso   1.00
O593   O     0.98157   0.17358   0.83380   0.00000  Uiso   1.00
O594   O     0.74130   0.16433   0.82446   0.00000  Uiso   1.00
O595   O     0.94258   0.09629   0.75577   0.00000  Uiso   1.00
O596   O     0.70231   0.08704   0.74642   0.00000  Uiso   1.00
O597   O     0.92537   0.16901   0.67554   0.00000  Uiso   1.00
O598   O     0.68510   0.15976   0.66620   0.00000  Uiso   1.00
Zn599  Zn    0.93786   0.17284   0.75624   0.00000  Uiso   1.00
Zn600  Zn    0.72881   0.16049   0.74376   0.00000  Uiso   1.00
Br601  Br    0.06679   0.38243   0.87123   0.00000  Uiso   1.00
C602   C     0.01342   0.59798   0.74478   0.00000  Uiso   1.00
C603   C     0.05221   0.50130   0.91704   0.00000  Uiso   1.00
C604   C     0.01888   0.65250   0.74019   0.00000  Uiso   1.00
C605   C     0.03527   0.50131   0.85551   0.00000  Uiso   1.00
C606   C     0.30516   0.34759   0.73564   0.00000  Uiso   1.00
C607   C     0.31689   0.40192   0.74632   0.00000  Uiso   1.00
C608   C     0.29772   0.49689   0.64466   0.00000  Uiso   1.00
C609   C     0.26544   0.42292   0.50764   0.00000  Uiso   1.00
C610   C     0.27809   0.48671   0.58452   0.00000  Uiso   1.00
C611   C     0.02466   0.53333   0.94998   0.00000  Uiso   1.00
C612   C     0.04905   0.54385   0.50671   0.00000  Uiso   1.00
C613   C     0.13328   0.49741   0.99483   0.00000  Uiso   1.00
C614   C     0.10357   0.52687   0.52894   0.00000  Uiso   1.00
C615   C     0.24160   0.66032   0.71780   0.00000  Uiso   1.00
C616   C     0.22691   0.56877   0.57153   0.00000  Uiso   1.00
C617   C     0.10186   0.47679   0.94249   0.00000  Uiso   1.00
C618   C     0.19134   0.48434   0.51267   0.00000  Uiso   1.00
C619   C     0.21115   0.44130   0.98574   0.00000  Uiso   1.00
C620   C     0.17492   0.41488   0.93978   0.00000  Uiso   1.00
C621   C     0.12029   0.43177   0.91858   0.00000  Uiso   1.00
C622   C     0.23031   0.51168   0.55707   0.00000  Uiso   1.00
C623   C     0.29752   0.44398   0.55861   0.00000  Uiso   1.00
H624   H     0.00214   0.42522   0.57927   0.00000  Uiso   1.00
H625   H     0.21336   0.35823   0.70111   0.00000  Uiso   1.00
H626   H     0.23680   0.63080   0.68291   0.00000  Uiso   1.00
H627   H     0.22500   0.64372   0.75443   0.00000  Uiso   1.00
H628   H     0.27121   0.58926   0.57934   0.00000  Uiso   1.00
H629   H     0.20056   0.58865   0.53610   0.00000  Uiso   1.00
H630   H     0.20855   0.57296   0.61026   0.00000  Uiso   1.00
H631   H     0.15694   0.45856   0.70857   0.00000  Uiso   1.00
H632   H     0.17640   0.54146   0.79141   0.00000  Uiso   1.00
H633   H     0.18803   0.37971   0.92181   0.00000  Uiso   1.00
H634   H     0.28055   0.38957   0.98807   0.00000  Uiso   1.00
H635   H     0.31863   0.55126   0.93157   0.00000  Uiso   1.00
H636   H     0.12097   0.53549   0.57320   0.00000  Uiso   1.00
H637   H     0.02707   0.56716   0.53277   0.00000  Uiso   1.00
H638   H     0.06344   0.33658   0.74733   0.00000  Uiso   1.00
N639   N     0.14493   0.48556   0.73543   0.00000  Uiso   1.00
N640   N     0.18840   0.51444   0.76458   0.00000  Uiso   1.00
O641   O     0.29769   0.57963   0.75358   0.00000  Uiso   1.00
O642   O     0.05742   0.57038   0.74423   0.00000  Uiso   1.00
O643   O     0.31490   0.50691   0.83380   0.00000  Uiso   1.00
O644   O     0.07463   0.49766   0.82446   0.00000  Uiso   1.00
O645   O     0.27592   0.42962   0.75577   0.00000  Uiso   1.00
O646   O     0.03565   0.42037   0.74642   0.00000  Uiso   1.00
O647   O     0.25870   0.50234   0.67554   0.00000  Uiso   1.00
O648   O     0.01843   0.49309   0.66620   0.00000  Uiso   1.00
Zn649  Zn    0.27119   0.50618   0.75624   0.00000  Uiso   1.00
Zn650  Zn    0.06214   0.49382   0.74376   0.00000  Uiso   1.00
Br651  Br    0.40012   0.38243   0.87123   0.00000  Uiso   1.00
C652   C     0.34676   0.59798   0.74478   0.00000  Uiso   1.00
C653   C     0.38555   0.50130   0.91704   0.00000  Uiso   1.00
C654   C     0.35221   0.65250   0.74019   0.00000  Uiso   1.00
C655   C     0.36861   0.50131   0.85551   0.00000  Uiso   1.00
C656   C     0.63849   0.34759   0.73564   0.00000  Uiso   1.00
C657   C     0.65022   0.40192   0.74632   0.00000  Uiso   1.00
C658   C     0.63105   0.49689   0.64466   0.00000  Uiso   1.00
C659   C     0.59877   0.42292   0.50764   0.00000  Uiso   1.00
C660   C     0.61142   0.48671   0.58452   0.00000  Uiso   1.00
C661   C     0.35799   0.53333   0.94998   0.00000  Uiso   1.00
C662   C     0.38238   0.54385   0.50671   0.00000  Uiso   1.00
C663   C     0.46661   0.49741   0.99483   0.00000  Uiso   1.00
C664   C     0.43690   0.52687   0.52894   0.00000  Uiso   1.00
C665   C     0.57494   0.66032   0.71780   0.00000  Uiso   1.00
C666   C     0.56025   0.56877   0.57153   0.00000  Uiso   1.00
C667   C     0.43519   0.47679   0.94249   0.00000  Uiso   1.00
C668   C     0.52467   0.48434   0.51267   0.00000  Uiso   1.00
C669   C     0.54449   0.44130   0.98574   0.00000  Uiso   1.00
C670   C     0.50825   0.41488   0.93978   0.00000  Uiso   1.00
C671   C     0.45363   0.43177   0.91858   0.00000  Uiso   1.00
C672   C     0.56364   0.51168   0.55707   0.00000  Uiso   1.00
C673   C     0.63085   0.44398   0.55861   0.00000  Uiso   1.00
H674   H     0.33548   0.42522   0.57927   0.00000  Uiso   1.00
H675   H     0.54669   0.35823   0.70111   0.00000  Uiso   1.00
H676   H     0.57013   0.63080   0.68291   0.00000  Uiso   1.00
H677   H     0.55834   0.64372   0.75443   0.00000  Uiso   1.00
H678   H     0.60455   0.58926   0.57934   0.00000  Uiso   1.00
H679   H     0.53389   0.58865   0.53610   0.00000  Uiso   1.00
H680   H     0.54188   0.57296   0.61026   0.00000  Uiso   1.00
H681   H     0.49027   0.45856   0.70857   0.00000  Uiso   1.00
H682   H     0.50974   0.54146   0.79141   0.00000  Uiso   1.00
H683   H     0.52136   0.37971   0.92181   0.00000  Uiso   1.00
H684   H     0.61388   0.38957   0.98807   0.00000  Uiso   1.00
H685   H     0.65196   0.55126   0.93157   0.00000  Uiso   1.00
H686   H     0.45431   0.53549   0.57320   0.00000  Uiso   1.00
H687   H     0.36040   0.56716   0.53277   0.00000  Uiso   1.00
H688   H     0.39678   0.33658   0.74733   0.00000  Uiso   1.00
N689   N     0.47827   0.48556   0.73543   0.00000  Uiso   1.00
N690   N     0.52173   0.51444   0.76458   0.00000  Uiso   1.00
O691   O     0.63102   0.57963   0.75358   0.00000  Uiso   1.00
O692   O     0.39075   0.57038   0.74423   0.00000  Uiso   1.00
O693   O     0.64823   0.50691   0.83380   0.00000  Uiso   1.00
O694   O     0.40796   0.49766   0.82446   0.00000  Uiso   1.00
O695   O     0.60925   0.42962   0.75577   0.00000  Uiso   1.00
O696   O     0.36898   0.42037   0.74642   0.00000  Uiso   1.00
O697   O     0.59204   0.50234   0.67554   0.00000  Uiso   1.00
O698   O     0.35177   0.49309   0.66620   0.00000  Uiso   1.00
Zn699  Zn    0.60453   0.50618   0.75624   0.00000  Uiso   1.00
Zn700  Zn    0.39547   0.49382   0.74376   0.00000  Uiso   1.00
Br701  Br    0.73346   0.38243   0.87123   0.00000  Uiso   1.00
C702   C     0.68009   0.59798   0.74478   0.00000  Uiso   1.00
C703   C     0.71888   0.50130   0.91704   0.00000  Uiso   1.00
C704   C     0.68554   0.65250   0.74019   0.00000  Uiso   1.00
C705   C     0.70194   0.50131   0.85551   0.00000  Uiso   1.00
C706   C     0.97182   0.34759   0.73564   0.00000  Uiso   1.00
C707   C     0.98356   0.40192   0.74632   0.00000  Uiso   1.00
C708   C     0.96439   0.49689   0.64466   0.00000  Uiso   1.00
C709   C     0.93211   0.42292   0.50764   0.00000  Uiso   1.00
C710   C     0.94476   0.48671   0.58452   0.00000  Uiso   1.00
C711   C     0.69133   0.53333   0.94998   0.00000  Uiso   1.00
C712   C     0.71572   0.54385   0.50671   0.00000  Uiso   1.00
C713   C     0.79994   0.49741   0.99483   0.00000  Uiso   1.00
C714   C     0.77023   0.52687   0.52894   0.00000  Uiso   1.00
C715   C     0.90827   0.66032   0.71780   0.00000  Uiso   1.00
C716   C     0.89358   0.56877   0.57153   0.00000  Uiso   1.00
C717   C     0.76853   0.47679   0.94249   0.00000  Uiso   1.00
C718   C     0.85800   0.48434   0.51267   0.00000  Uiso   1.00
C719   C     0.87782   0.44130   0.98574   0.00000  Uiso   1.00
C720   C     0.84158   0.41488   0.93978   0.00000  Uiso   1.00
C721   C     0.78696   0.43177   0.91858   0.00000  Uiso   1.00
C722   C     0.89697   0.51168   0.55707   0.00000  Uiso   1.00
C723   C     0.96419   0.44398   0.55861   0.00000  Uiso   1.00
H724   H     0.66881   0.42522   0.57927   0.00000  Uiso   1.00
H725   H     0.88002   0.35823   0.70111   0.00000  Uiso   1.00
H726   H     0.90347   0.63080   0.68291   0.00000  Uiso   1.00
H727   H     0.89167   0.64372   0.75443   0.00000  Uiso   1.00
H728   H     0.93788   0.58926   0.57934   0.00000  Uiso   1.00
H729   H     0.86723   0.58865   0.53610   0.00000  Uiso   1.00
H730   H     0.87521   0.57296   0.61026   0.00000  Uiso   1.00
H731   H     0.82360   0.45856   0.70857   0.00000  Uiso   1.00
H732   H     0.84307   0.54146   0.79141   0.00000  Uiso   1.00
H733   H     0.85470   0.37971   0.92181   0.00000  Uiso   1.00
H734   H     0.94722   0.38957   0.98807   0.00000  Uiso   1.00
H735   H     0.98529   0.55126   0.93157   0.00000  Uiso   1.00
H736   H     0.78764   0.53549   0.57320   0.00000  Uiso   1.00
H737   H     0.69374   0.56716   0.53277   0.00000  Uiso   1.00
H738   H     0.73011   0.33658   0.74733   0.00000  Uiso   1.00
N739   N     0.81160   0.48556   0.73543   0.00000  Uiso   1.00
N740   N     0.85507   0.51444   0.76458   0.00000  Uiso   1.00
O741   O     0.96435   0.57963   0.75358   0.00000  Uiso   1.00
O742   O     0.72408   0.57038   0.74423   0.00000  Uiso   1.00
O743   O     0.98157   0.50691   0.83380   0.00000  Uiso   1.00
O744   O     0.74130   0.49766   0.82446   0.00000  Uiso   1.00
O745   O     0.94258   0.42962   0.75577   0.00000  Uiso   1.00
O746   O     0.70231   0.42037   0.74642   0.00000  Uiso   1.00
O747   O     0.92537   0.50234   0.67554   0.00000  Uiso   1.00
O748   O     0.68510   0.49309   0.66620   0.00000  Uiso   1.00
Zn749  Zn    0.93786   0.50618   0.75624   0.00000  Uiso   1.00
Zn750  Zn    0.72881   0.49382   0.74376   0.00000  Uiso   1.00
Br751  Br    0.06679   0.71576   0.87123   0.00000  Uiso   1.00
C752   C     0.01342   0.93131   0.74478   0.00000  Uiso   1.00
C753   C     0.05221   0.83463   0.91704   0.00000  Uiso   1.00
C754   C     0.01888   0.98583   0.74019   0.00000  Uiso   1.00
C755   C     0.03527   0.83464   0.85551   0.00000  Uiso   1.00
C756   C     0.30516   0.68092   0.73564   0.00000  Uiso   1.00
C757   C     0.31689   0.73525   0.74632   0.00000  Uiso   1.00
C758   C     0.29772   0.83022   0.64466   0.00000  Uiso   1.00
C759   C     0.26544   0.75625   0.50764   0.00000  Uiso   1.00
C760   C     0.27809   0.82005   0.58452   0.00000  Uiso   1.00
C761   C     0.02466   0.86666   0.94998   0.00000  Uiso   1.00
C762   C     0.04905   0.87718   0.50671   0.00000  Uiso   1.00
C763   C     0.13328   0.83074   0.99483   0.00000  Uiso   1.00
C764   C     0.10357   0.86021   0.52894   0.00000  Uiso   1.00
C765   C     0.24160   0.99365   0.71780   0.00000  Uiso   1.00
C766   C     0.22691   0.90210   0.57153   0.00000  Uiso   1.00
C767   C     0.10186   0.81013   0.94249   0.00000  Uiso   1.00
C768   C     0.19134   0.81767   0.51267   0.00000  Uiso   1.00
C769   C     0.21115   0.77463   0.98574   0.00000  Uiso   1.00
C770   C     0.17492   0.74821   0.93978   0.00000  Uiso   1.00
C771   C     0.12029   0.76511   0.91858   0.00000  Uiso   1.00
C772   C     0.23031   0.84502   0.55707   0.00000  Uiso   1.00
C773   C     0.29752   0.77732   0.55861   0.00000  Uiso   1.00
H774   H     0.00214   0.75856   0.57927   0.00000  Uiso   1.00
H775   H     0.21336   0.69156   0.70111   0.00000  Uiso   1.00
H776   H     0.23680   0.96413   0.68291   0.00000  Uiso   1.00
H777   H     0.22500   0.97706   0.75443   0.00000  Uiso   1.00
H778   H     0.27121   0.92260   0.57934   0.00000  Uiso   1.00
H779   H     0.20056   0.92198   0.53610   0.00000  Uiso   1.00
H780   H     0.20855   0.90629   0.61026   0.00000  Uiso   1.00
H781   H     0.15694   0.79189   0.70857   0.00000  Uiso   1.00
H782   H     0.17640   0.87479   0.79141   0.00000  Uiso   1.00
H783   H     0.18803   0.71304   0.92181   0.00000  Uiso   1.00
H784   H     0.28055   0.72291   0.98807   0.00000  Uiso   1.00
H785   H     0.31863   0.88459   0.93157   0.00000  Uiso   1.00
H786   H     0.12097   0.86882   0.57320   0.00000  Uiso   1.00
H787   H     0.02707   0.90050   0.53277   0.00000  Uiso   1.00
H788   H     0.06344   0.66991   0.74733   0.00000  Uiso   1.00
N789   N     0.14493   0.81890   0.73543   0.00000  Uiso   1.00
N790   N     0.18840   0.84777   0.76458   0.00000  Uiso   1.00
O791   O     0.29769   0.91296   0.75358   0.00000  Uiso   1.00
O792   O     0.05742   0.90371   0.74423   0.00000  Uiso   1.00
O793   O     0.31490   0.84024   0.83380   0.00000  Uiso   1.00
O794   O     0.07463   0.83099   0.82446   0.00000  Uiso   1.00
O795   O     0.27592   0.76296   0.75577   0.00000  Uiso   1.00
O796   O     0.03565   0.75371   0.74642   0.00000  Uiso   1.00
O797   O     0.25870   0.83567   0.67554   0.00000  Uiso   1.00
O798   O     0.01843   0.82642   0.66620   0.00000  Uiso   1.00
Zn799  Zn    0.27119   0.83951   0.75624   0.00000  Uiso   1.00
Zn800  Zn    0.06214   0.82716   0.74376   0.00000  Uiso   1.00
Br801  Br    0.40012   0.71576   0.87123   0.00000  Uiso   1.00
C802   C     0.34676   0.93131   0.74478   0.00000  Uiso   1.00
C803   C     0.38555   0.83463   0.91704   0.00000  Uiso   1.00
C804   C     0.35221   0.98583   0.74019   0.00000  Uiso   1.00
C805   C     0.36861   0.83464   0.85551   0.00000  Uiso   1.00
C806   C     0.63849   0.68092   0.73564   0.00000  Uiso   1.00
C807   C     0.65022   0.73525   0.74632   0.00000  Uiso   1.00
C808   C     0.63105   0.83022   0.64466   0.00000  Uiso   1.00
C809   C     0.59877   0.75625   0.50764   0.00000  Uiso   1.00
C810   C     0.61142   0.82005   0.58452   0.00000  Uiso   1.00
C811   C     0.35799   0.86666   0.94998   0.00000  Uiso   1.00
C812   C     0.38238   0.87718   0.50671   0.00000  Uiso   1.00
C813   C     0.46661   0.83074   0.99483   0.00000  Uiso   1.00
C814   C     0.43690   0.86021   0.52894   0.00000  Uiso   1.00
C815   C     0.57494   0.99365   0.71780   0.00000  Uiso   1.00
C816   C     0.56025   0.90210   0.57153   0.00000  Uiso   1.00
C817   C     0.43519   0.81013   0.94249   0.00000  Uiso   1.00
C818   C     0.52467   0.81767   0.51267   0.00000  Uiso   1.00
C819   C     0.54449   0.77463   0.98574   0.00000  Uiso   1.00
C820   C     0.50825   0.74821   0.93978   0.00000  Uiso   1.00
C821   C     0.45363   0.76511   0.91858   0.00000  Uiso   1.00
C822   C     0.56364   0.84502   0.55707   0.00000  Uiso   1.00
C823   C     0.63085   0.77732   0.55861   0.00000  Uiso   1.00
H824   H     0.33548   0.75856   0.57927   0.00000  Uiso   1.00
H825   H     0.54669   0.69156   0.70111   0.00000  Uiso   1.00
H826   H     0.57013   0.96413   0.68291   0.00000  Uiso   1.00
H827   H     0.55834   0.97706   0.75443   0.00000  Uiso   1.00
H828   H     0.60455   0.92260   0.57934   0.00000  Uiso   1.00
H829   H     0.53389   0.92198   0.53610   0.00000  Uiso   1.00
H830   H     0.54188   0.90629   0.61026   0.00000  Uiso   1.00
H831   H     0.49027   0.79189   0.70857   0.00000  Uiso   1.00
H832   H     0.50974   0.87479   0.79141   0.00000  Uiso   1.00
H833   H     0.52136   0.71304   0.92181   0.00000  Uiso   1.00
H834   H     0.61388   0.72291   0.98807   0.00000  Uiso   1.00
H835   H     0.65196   0.88459   0.93157   0.00000  Uiso   1.00
H836   H     0.45431   0.86882   0.57320   0.00000  Uiso   1.00
H837   H     0.36040   0.90050   0.53277   0.00000  Uiso   1.00
H838   H     0.39678   0.66991   0.74733   0.00000  Uiso   1.00
N839   N     0.47827   0.81890   0.73543   0.00000  Uiso   1.00
N840   N     0.52173   0.84777   0.76458   0.00000  Uiso   1.00
O841   O     0.63102   0.91296   0.75358   0.00000  Uiso   1.00
O842   O     0.39075   0.90371   0.74423   0.00000  Uiso   1.00
O843   O     0.64823   0.84024   0.83380   0.00000  Uiso   1.00
O844   O     0.40796   0.83099   0.82446   0.00000  Uiso   1.00
O845   O     0.60925   0.76296   0.75577   0.00000  Uiso   1.00
O846   O     0.36898   0.75371   0.74642   0.00000  Uiso   1.00
O847   O     0.59204   0.83567   0.67554   0.00000  Uiso   1.00
O848   O     0.35177   0.82642   0.66620   0.00000  Uiso   1.00
Zn849  Zn    0.60453   0.83951   0.75624   0.00000  Uiso   1.00
Zn850  Zn    0.39547   0.82716   0.74376   0.00000  Uiso   1.00
Br851  Br    0.73346   0.71576   0.87123   0.00000  Uiso   1.00
C852   C     0.68009   0.93131   0.74478   0.00000  Uiso   1.00
C853   C     0.71888   0.83463   0.91704   0.00000  Uiso   1.00
C854   C     0.68554   0.98583   0.74019   0.00000  Uiso   1.00
C855   C     0.70194   0.83464   0.85551   0.00000  Uiso   1.00
C856   C     0.97182   0.68092   0.73564   0.00000  Uiso   1.00
C857   C     0.98356   0.73525   0.74632   0.00000  Uiso   1.00
C858   C     0.96439   0.83022   0.64466   0.00000  Uiso   1.00
C859   C     0.93211   0.75625   0.50764   0.00000  Uiso   1.00
C860   C     0.94476   0.82005   0.58452   0.00000  Uiso   1.00
C861   C     0.69133   0.86666   0.94998   0.00000  Uiso   1.00
C862   C     0.71572   0.87718   0.50671   0.00000  Uiso   1.00
C863   C     0.79994   0.83074   0.99483   0.00000  Uiso   1.00
C864   C     0.77023   0.86021   0.52894   0.00000  Uiso   1.00
C865   C     0.90827   0.99365   0.71780   0.00000  Uiso   1.00
C866   C     0.89358   0.90210   0.57153   0.00000  Uiso   1.00
C867   C     0.76853   0.81013   0.94249   0.00000  Uiso   1.00
C868   C     0.85800   0.81767   0.51267   0.00000  Uiso   1.00
C869   C     0.87782   0.77463   0.98574   0.00000  Uiso   1.00
C870   C     0.84158   0.74821   0.93978   0.00000  Uiso   1.00
C871   C     0.78696   0.76511   0.91858   0.00000  Uiso   1.00
C872   C     0.89697   0.84502   0.55707   0.00000  Uiso   1.00
C873   C     0.96419   0.77732   0.55861   0.00000  Uiso   1.00
H874   H     0.66881   0.75856   0.57927   0.00000  Uiso   1.00
H875   H     0.88002   0.69156   0.70111   0.00000  Uiso   1.00
H876   H     0.90347   0.96413   0.68291   0.00000  Uiso   1.00
H877   H     0.89167   0.97706   0.75443   0.00000  Uiso   1.00
H878   H     0.93788   0.92260   0.57934   0.00000  Uiso   1.00
H879   H     0.86723   0.92198   0.53610   0.00000  Uiso   1.00
H880   H     0.87521   0.90629   0.61026   0.00000  Uiso   1.00
H881   H     0.82360   0.79189   0.70857   0.00000  Uiso   1.00
H882   H     0.84307   0.87479   0.79141   0.00000  Uiso   1.00
H883   H     0.85470   0.71304   0.92181   0.00000  Uiso   1.00
H884   H     0.94722   0.72291   0.98807   0.00000  Uiso   1.00
H885   H     0.98529   0.88459   0.93157   0.00000  Uiso   1.00
H886   H     0.78764   0.86882   0.57320   0.00000  Uiso   1.00
H887   H     0.69374   0.90050   0.53277   0.00000  Uiso   1.00
H888   H     0.73011   0.66991   0.74733   0.00000  Uiso   1.00
N889   N     0.81160   0.81890   0.73543   0.00000  Uiso   1.00
N890   N     0.85507   0.84777   0.76458   0.00000  Uiso   1.00
O891   O     0.96435   0.91296   0.75358   0.00000  Uiso   1.00
O892   O     0.72408   0.90371   0.74423   0.00000  Uiso   1.00
O893   O     0.98157   0.84024   0.83380   0.00000  Uiso   1.00
O894   O     0.74130   0.83099   0.82446   0.00000  Uiso   1.00
O895   O     0.94258   0.76296   0.75577   0.00000  Uiso   1.00
O896   O     0.70231   0.75371   0.74642   0.00000  Uiso   1.00
O897   O     0.92537   0.83567   0.67554   0.00000  Uiso   1.00
O898   O     0.68510   0.82642   0.66620   0.00000  Uiso   1.00
Zn899  Zn    0.93786   0.83951   0.75624   0.00000  Uiso   1.00
Zn900  Zn    0.72881   0.82716   0.74376   0.00000  Uiso   1.00
loop_
_geom_bond_atom_site_label_1
_geom_bond_atom_site_label_2
_geom_bond_distance
_geom_bond_site_symmetry_2
_ccdc_geom_bond_type
Br1    C21     1.911   .     S
C2     C4      1.408   .     S
C2     O42     1.295   .     A
C2     O141    1.269   1_455 S
C3     C17     1.406   .     A
C3     C11     1.404   .     A
C3     C5      1.458   .     S
C4     C256    1.355   1_455 S
C4     H188    1.088   .     S
C5     O44     1.301   .     A
C5     O143    1.287   1_455 S
C6     C7      1.414   .     S
C6     C354    1.355   1_545 S
C6     C315    1.522   1_545 S
C7     O45     1.287   .     A
C7     O96     1.278   .     S
C8     O47     1.297   .     A
C8     C10     1.445   .     S
C8     O98     1.285   .     S
C9     C23     1.388   .     A
C9     C469    1.400   1_554 S
C9     H484    1.084   1_554 S
C10    C23     1.399   .     A
C10    C22     1.393   .     A
C11    C462    1.389   .     S
C11    H135    1.083   1_455 S
C12    H37     1.082   .     S
C12    C14     1.392   .     A
C12    C461    1.389   1_554 S
C13    C17     1.405   .     A
C13    C464    1.415   .     S
C13    C468    1.413   .     S
C14    H36     1.078   .     S
C14    C463    1.415   1_554 S
C15    H27     1.111   .     S
C15    H26     1.105   .     S
C15    C156    1.522   .     S
C15    H175    1.111   .     S
C16    H28     1.111   .     S
C16    H30     1.106   .     S
C16    C22     1.514   .     S
C16    H29     1.110   .     S
C17    C21     1.414   .     A
C18    C22     1.406   .     A
C18    C463    1.413   1_554 S
C18    C469    1.422   1_554 S
C19    C20     1.391   .     A
C19    C459    1.400   .     S
C19    C468    1.422   .     S
C20    H33     1.084   .     S
C20    C21     1.388   .     A
C23    H74     1.083   .     S
H24    C123    1.083   1_455 S
H25    C315    1.111   1_545 S
H31    N39     1.029   .     S
H32    N40     1.029   .     S
H34    C459    1.084   .     S
H35    C61     1.083   .     S
H38    C304    1.088   1_545 S
N39    N40     1.296   .     D
N39    Zn50    2.014   .     S
N40    Zn49    2.014   .     S
O41    Zn49    1.953   .     S
O41    C52     1.269   .     S
O42    Zn50    1.981   .     S
O43    Zn49    1.949   .     S
O43    C55     1.287   .     S
O44    Zn50    1.908   .     S
O45    Zn49    1.981   .     S
O46    Zn50    1.953   .     S
O46    C107    1.278   1_455 S
O47    Zn49    1.908   .     S
O48    Zn50    1.949   .     S
O48    C108    1.285   1_455 S
Br51   C71     1.911   .     S
C52    C54     1.408   .     S
C52    O92     1.295   .     A
C53    C67     1.406   .     A
C53    C61     1.404   .     A
C53    C55     1.458   .     S
C54    C156    1.355   .     S
C54    H238    1.088   .     S
C55    O94     1.301   .     A
C56    C57     1.414   .     S
C56    C404    1.355   1_545 S
C56    C365    1.522   1_545 S
C57    O95     1.287   .     A
C57    O146    1.278   .     S
C58    O97     1.297   .     A
C58    C60     1.445   .     S
C58    O148    1.285   .     S
C59    C73     1.388   .     A
C59    C519    1.400   1_554 S
C59    H534    1.084   1_554 S
C60    C73     1.399   .     A
C60    C72     1.393   .     A
C61    C512    1.389   .     S
C62    H87     1.082   .     S
C62    C64     1.392   .     A
C62    C511    1.389   1_554 S
C63    C67     1.405   .     A
C63    C514    1.415   .     S
C63    C518    1.413   .     S
C64    H86     1.078   .     S
C64    C513    1.415   1_554 S
C65    H77     1.111   .     S
C65    H76     1.105   .     S
C65    C206    1.522   .     S
C65    H225    1.111   .     S
C66    H78     1.111   .     S
C66    H80     1.106   .     S
C66    C72     1.514   .     S
C66    H79     1.110   .     S
C67    C71     1.414   .     A
C68    C72     1.406   .     A
C68    C513    1.413   1_554 S
C68    C519    1.422   1_554 S
C69    C70     1.391   .     A
C69    C509    1.400   .     S
C69    C518    1.422   .     S
C70    H83     1.084   .     S
C70    C71     1.388   .     A
C73    H124    1.083   .     S
H75    C365    1.111   1_545 S
H81    N89     1.029   .     S
H82    N90     1.029   .     S
H84    C509    1.084   .     S
H85    C111    1.083   .     S
H88    C354    1.088   1_545 S
N89    N90     1.296   .     D
N89    Zn100   2.014   .     S
N90    Zn99    2.014   .     S
O91    Zn99    1.953   .     S
O91    C102    1.269   .     S
O92    Zn100   1.981   .     S
O93    Zn99    1.949   .     S
O93    C105    1.287   .     S
O94    Zn100   1.908   .     S
O95    Zn99    1.981   .     S
O96    Zn100   1.953   .     S
O97    Zn99    1.908   .     S
O98    Zn100   1.949   .     S
Br101  C121    1.911   .     S
C102   C104    1.408   .     S
C102   O142    1.295   .     A
C103   C117    1.406   .     A
C103   C111    1.404   .     A
C103   C105    1.458   .     S
C104   C206    1.355   .     S
C104   H288    1.088   .     S
C105   O144    1.301   .     A
C106   C107    1.414   .     S
C106   C304    1.355   1_645 S
C106   C415    1.522   1_545 S
C107   O145    1.287   .     A
C107   O46     1.278   1_655 S
C108   O147    1.297   .     A
C108   C110    1.445   .     S
C108   O48     1.285   1_655 S
C109   C123    1.388   .     A
C109   C569    1.400   1_554 S
C109   H584    1.084   1_554 S
C110   C123    1.399   .     A
C110   C122    1.393   .     A
C111   C562    1.389   .     S
C112   H137    1.082   .     S
C112   C114    1.392   .     A
C112   C561    1.389   1_554 S
C113   C117    1.405   .     A
C113   C564    1.415   .     S
C113   C568    1.413   .     S
C114   H136    1.078   .     S
C114   C563    1.415   1_554 S
C115   H127    1.111   .     S
C115   H126    1.105   .     S
C115   C256    1.522   .     S
C115   H275    1.111   .     S
C116   H128    1.111   .     S
C116   H130    1.106   .     S
C116   C122    1.514   .     S
C116   H129    1.110   .     S
C117   C121    1.414   .     A
C118   C122    1.406   .     A
C118   C563    1.413   1_554 S
C118   C569    1.422   1_554 S
C119   C120    1.391   .     A
C119   C559    1.400   .     S
C119   C568    1.422   .     S
C120   H133    1.084   .     S
C120   C121    1.388   .     A
C123   H24     1.083   1_655 S
H125   C415    1.111   1_545 S
H131   N139    1.029   .     S
H132   N140    1.029   .     S
H134   C559    1.084   .     S
H135   C11     1.083   1_655 S
H138   C404    1.088   1_545 S
N139   N140    1.296   .     D
N139   Zn150   2.014   .     S
N140   Zn149   2.014   .     S
O141   Zn149   1.953   .     S
O141   C2      1.269   1_655 S
O142   Zn150   1.981   .     S
O143   Zn149   1.949   .     S
O143   C5      1.287   1_655 S
O144   Zn150   1.908   .     S
O145   Zn149   1.981   .     S
O146   Zn150   1.953   .     S
O147   Zn149   1.908   .     S
O148   Zn150   1.949   .     S
Br151  C171    1.911   .     S
C152   C154    1.408   .     S
C152   O192    1.295   .     A
C152   O291    1.269   1_455 S
C153   C167    1.406   .     A
C153   C161    1.404   .     A
C153   C155    1.458   .     S
C154   C406    1.355   1_455 S
C154   H338    1.088   .     S
C155   O194    1.301   .     A
C155   O293    1.287   1_455 S
C156   C157    1.414   .     S
C157   O195    1.287   .     A
C157   O246    1.278   .     S
C158   O197    1.297   .     A
C158   C160    1.445   .     S
C158   O248    1.285   .     S
C159   C173    1.388   .     A
C159   C619    1.400   1_554 S
C159   H634    1.084   1_554 S
C160   C173    1.399   .     A
C160   C172    1.393   .     A
C161   C612    1.389   .     S
C161   H285    1.083   1_455 S
C162   H187    1.082   .     S
C162   C164    1.392   .     A
C162   C611    1.389   1_554 S
C163   C167    1.405   .     A
C163   C614    1.415   .     S
C163   C618    1.413   .     S
C164   H186    1.078   .     S
C164   C613    1.415   1_554 S
C165   H177    1.111   .     S
C165   H176    1.105   .     S
C165   C306    1.522   .     S
C165   H325    1.111   .     S
C166   H178    1.111   .     S
C166   H180    1.106   .     S
C166   C172    1.514   .     S
C166   H179    1.110   .     S
C167   C171    1.414   .     A
C168   C172    1.406   .     A
C168   C613    1.413   1_554 S
C168   C619    1.422   1_554 S
C169   C170    1.391   .     A
C169   C609    1.400   .     S
C169   C618    1.422   .     S
C170   H183    1.084   .     S
C170   C171    1.388   .     A
C173   H224    1.083   .     S
H174   C273    1.083   1_455 S
H181   N189    1.029   .     S
H182   N190    1.029   .     S
H184   C609    1.084   .     S
H185   C211    1.083   .     S
N189   N190    1.296   .     D
N189   Zn200   2.014   .     S
N190   Zn199   2.014   .     S
O191   Zn199   1.953   .     S
O191   C202    1.269   .     S
O192   Zn200   1.981   .     S
O193   Zn199   1.949   .     S
O193   C205    1.287   .     S
O194   Zn200   1.908   .     S
O195   Zn199   1.981   .     S
O196   Zn200   1.953   .     S
O196   C257    1.278   1_455 S
O197   Zn199   1.908   .     S
O198   Zn200   1.949   .     S
O198   C258    1.285   1_455 S
Br201  C221    1.911   .     S
C202   C204    1.408   .     S
C202   O242    1.295   .     A
C203   C217    1.406   .     A
C203   C211    1.404   .     A
C203   C205    1.458   .     S
C204   C306    1.355   .     S
C204   H388    1.088   .     S
C205   O244    1.301   .     A
C206   C207    1.414   .     S
C207   O245    1.287   .     A
C207   O296    1.278   .     S
C208   O247    1.297   .     A
C208   C210    1.445   .     S
C208   O298    1.285   .     S
C209   C223    1.388   .     A
C209   C669    1.400   1_554 S
C209   H684    1.084   1_554 S
C210   C223    1.399   .     A
C210   C222    1.393   .     A
C211   C662    1.389   .     S
C212   H237    1.082   .     S
C212   C214    1.392   .     A
C212   C661    1.389   1_554 S
C213   C217    1.405   .     A
C213   C664    1.415   .     S
C213   C668    1.413   .     S
C214   H236    1.078   .     S
C214   C663    1.415   1_554 S
C215   H227    1.111   .     S
C215   H226    1.105   .     S
C215   C356    1.522   .     S
C215   H375    1.111   .     S
C216   H228    1.111   .     S
C216   H230    1.106   .     S
C216   C222    1.514   .     S
C216   H229    1.110   .     S
C217   C221    1.414   .     A
C218   C222    1.406   .     A
C218   C663    1.413   1_554 S
C218   C669    1.422   1_554 S
C219   C220    1.391   .     A
C219   C659    1.400   .     S
C219   C668    1.422   .     S
C220   H233    1.084   .     S
C220   C221    1.388   .     A
C223   H274    1.083   .     S
H231   N239    1.029   .     S
H232   N240    1.029   .     S
H234   C659    1.084   .     S
H235   C261    1.083   .     S
N239   N240    1.296   .     D
N239   Zn250   2.014   .     S
N240   Zn249   2.014   .     S
O241   Zn249   1.953   .     S
O241   C252    1.269   .     S
O242   Zn250   1.981   .     S
O243   Zn249   1.949   .     S
O243   C255    1.287   .     S
O244   Zn250   1.908   .     S
O245   Zn249   1.981   .     S
O246   Zn250   1.953   .     S
O247   Zn249   1.908   .     S
O248   Zn250   1.949   .     S
Br251  C271    1.911   .     S
C252   C254    1.408   .     S
C252   O292    1.295   .     A
C253   C267    1.406   .     A
C253   C261    1.404   .     A
C253   C255    1.458   .     S
C254   C356    1.355   .     S
C254   H438    1.088   .     S
C255   O294    1.301   .     A
C256   C257    1.414   .     S
C256   C4      1.355   1_655 S
C257   O295    1.287   .     A
C257   O196    1.278   1_655 S
C258   O297    1.297   .     A
C258   C260    1.445   .     S
C258   O198    1.285   1_655 S
C259   C273    1.388   .     A
C259   C719    1.400   1_554 S
C259   H734    1.084   1_554 S
C260   C273    1.399   .     A
C260   C272    1.393   .     A
C261   C712    1.389   .     S
C262   H287    1.082   .     S
C262   C264    1.392   .     A
C262   C711    1.389   1_554 S
C263   C267    1.405   .     A
C263   C714    1.415   .     S
C263   C718    1.413   .     S
C264   H286    1.078   .     S
C264   C713    1.415   1_554 S
C265   H277    1.111   .     S
C265   H276    1.105   .     S
C265   C406    1.522   .     S
C265   H425    1.111   .     S
C266   H278    1.111   .     S
C266   H280    1.106   .     S
C266   C272    1.514   .     S
C266   H279    1.110   .     S
C267   C271    1.414   .     A
C268   C272    1.406   .     A
C268   C713    1.413   1_554 S
C268   C719    1.422   1_554 S
C269   C270    1.391   .     A
C269   C709    1.400   .     S
C269   C718    1.422   .     S
C270   H283    1.084   .     S
C270   C271    1.388   .     A
C273   H174    1.083   1_655 S
H281   N289    1.029   .     S
H282   N290    1.029   .     S
H284   C709    1.084   .     S
H285   C161    1.083   1_655 S
N289   N290    1.296   .     D
N289   Zn300   2.014   .     S
N290   Zn299   2.014   .     S
O291   Zn299   1.953   .     S
O291   C152    1.269   1_655 S
O292   Zn300   1.981   .     S
O293   Zn299   1.949   .     S
O293   C155    1.287   1_655 S
O294   Zn300   1.908   .     S
O295   Zn299   1.981   .     S
O296   Zn300   1.953   .     S
O297   Zn299   1.908   .     S
O298   Zn300   1.949   .     S
Br301  C321    1.911   .     S
C302   C304    1.408   .     S
C302   O342    1.295   .     A
C302   O441    1.269   1_455 S
C303   C317    1.406   .     A
C303   C311    1.404   .     A
C303   C305    1.458   .     S
C304   C106    1.355   1_465 S
C304   H38     1.088   1_565 S
C305   O344    1.301   .     A
C305   O443    1.287   1_455 S
C306   C307    1.414   .     S
C307   O345    1.287   .     A
C307   O396    1.278   .     S
C308   O347    1.297   .     A
C308   C310    1.445   .     S
C308   O398    1.285   .     S
C309   C323    1.388   .     A
C309   C769    1.400   1_554 S
C309   H784    1.084   1_554 S
C310   C323    1.399   .     A
C310   C322    1.393   .     A
C311   C762    1.389   .     S
C311   H435    1.083   1_455 S
C312   H337    1.082   .     S
C312   C314    1.392   .     A
C312   C761    1.389   1_554 S
C313   C317    1.405   .     A
C313   C764    1.415   .     S
C313   C768    1.413   .     S
C314   H336    1.078   .     S
C314   C763    1.415   1_554 S
C315   H327    1.111   .     S
C315   H326    1.105   .     S
C315   C6      1.522   1_565 S
C315   H25     1.111   1_565 S
C316   H328    1.111   .     S
C316   H330    1.106   .     S
C316   C322    1.514   .     S
C316   H329    1.110   .     S
C317   C321    1.414   .     A
C318   C322    1.406   .     A
C318   C763    1.413   1_554 S
C318   C769    1.422   1_554 S
C319   C320    1.391   .     A
C319   C759    1.400   .     S
C319   C768    1.422   .     S
C320   H333    1.084   .     S
C320   C321    1.388   .     A
C323   H374    1.083   .     S
H324   C423    1.083   1_455 S
H331   N339    1.029   .     S
H332   N340    1.029   .     S
H334   C759    1.084   .     S
H335   C361    1.083   .     S
N339   N340    1.296   .     D
N339   Zn350   2.014   .     S
N340   Zn349   2.014   .     S
O341   Zn349   1.953   .     S
O341   C352    1.269   .     S
O342   Zn350   1.981   .     S
O343   Zn349   1.949   .     S
O343   C355    1.287   .     S
O344   Zn350   1.908   .     S
O345   Zn349   1.981   .     S
O346   Zn350   1.953   .     S
O346   C407    1.278   1_455 S
O347   Zn349   1.908   .     S
O348   Zn350   1.949   .     S
O348   C408    1.285   1_455 S
Br351  C371    1.911   .     S
C352   C354    1.408   .     S
C352   O392    1.295   .     A
C353   C367    1.406   .     A
C353   C361    1.404   .     A
C353   C355    1.458   .     S
C354   C6      1.355   1_565 S
C354   H88     1.088   1_565 S
C355   O394    1.301   .     A
C356   C357    1.414   .     S
C357   O395    1.287   .     A
C357   O446    1.278   .     S
C358   O397    1.297   .     A
C358   C360    1.445   .     S
C358   O448    1.285   .     S
C359   C373    1.388   .     A
C359   C819    1.400   1_554 S
C359   H834    1.084   1_554 S
C360   C373    1.399   .     A
C360   C372    1.393   .     A
C361   C812    1.389   .     S
C362   H387    1.082   .     S
C362   C364    1.392   .     A
C362   C811    1.389   1_554 S
C363   C367    1.405   .     A
C363   C814    1.415   .     S
C363   C818    1.413   .     S
C364   H386    1.078   .     S
C364   C813    1.415   1_554 S
C365   H377    1.111   .     S
C365   H376    1.105   .     S
C365   C56     1.522   1_565 S
C365   H75     1.111   1_565 S
C366   H378    1.111   .     S
C366   H380    1.106   .     S
C366   C372    1.514   .     S
C366   H379    1.110   .     S
C367   C371    1.414   .     A
C368   C372    1.406   .     A
C368   C813    1.413   1_554 S
C368   C819    1.422   1_554 S
C369   C370    1.391   .     A
C369   C809    1.400   .     S
C369   C818    1.422   .     S
C370   H383    1.084   .     S
C370   C371    1.388   .     A
C373   H424    1.083   .     S
H381   N389    1.029   .     S
H382   N390    1.029   .     S
H384   C809    1.084   .     S
H385   C411    1.083   .     S
N389   N390    1.296   .     D
N389   Zn400   2.014   .     S
N390   Zn399   2.014   .     S
O391   Zn399   1.953   .     S
O391   C402    1.269   .     S
O392   Zn400   1.981   .     S
O393   Zn399   1.949   .     S
O393   C405    1.287   .     S
O394   Zn400   1.908   .     S
O395   Zn399   1.981   .     S
O396   Zn400   1.953   .     S
O397   Zn399   1.908   .     S
O398   Zn400   1.949   .     S
Br401  C421    1.911   .     S
C402   C404    1.408   .     S
C402   O442    1.295   .     A
C403   C417    1.406   .     A
C403   C411    1.404   .     A
C403   C405    1.458   .     S
C404   C56     1.355   1_565 S
C404   H138    1.088   1_565 S
C405   O444    1.301   .     A
C406   C407    1.414   .     S
C406   C154    1.355   1_655 S
C407   O445    1.287   .     A
C407   O346    1.278   1_655 S
C408   O447    1.297   .     A
C408   C410    1.445   .     S
C408   O348    1.285   1_655 S
C409   C423    1.388   .     A
C409   C869    1.400   1_554 S
C409   H884    1.084   1_554 S
C410   C423    1.399   .     A
C410   C422    1.393   .     A
C411   C862    1.389   .     S
C412   H437    1.082   .     S
C412   C414    1.392   .     A
C412   C861    1.389   1_554 S
C413   C417    1.405   .     A
C413   C864    1.415   .     S
C413   C868    1.413   .     S
C414   H436    1.078   .     S
C414   C863    1.415   1_554 S
C415   H427    1.111   .     S
C415   H426    1.105   .     S
C415   C106    1.522   1_565 S
C415   H125    1.111   1_565 S
C416   H428    1.111   .     S
C416   H430    1.106   .     S
C416   C422    1.514   .     S
C416   H429    1.110   .     S
C417   C421    1.414   .     A
C418   C422    1.406   .     A
C418   C863    1.413   1_554 S
C418   C869    1.422   1_554 S
C419   C420    1.391   .     A
C419   C859    1.400   .     S
C419   C868    1.422   .     S
C420   H433    1.084   .     S
C420   C421    1.388   .     A
C423   H324    1.083   1_655 S
H431   N439    1.029   .     S
H432   N440    1.029   .     S
H434   C859    1.084   .     S
H435   C311    1.083   1_655 S
N439   N440    1.296   .     D
N439   Zn450   2.014   .     S
N440   Zn449   2.014   .     S
O441   Zn449   1.953   .     S
O441   C302    1.269   1_655 S
O442   Zn450   1.981   .     S
O443   Zn449   1.949   .     S
O443   C305    1.287   1_655 S
O444   Zn450   1.908   .     S
O445   Zn449   1.981   .     S
O446   Zn450   1.953   .     S
O447   Zn449   1.908   .     S
O448   Zn450   1.949   .     S
Br451  C471    1.911   .     S
C452   C454    1.408   .     S
C452   O492    1.295   .     A
C452   O591    1.269   1_455 S
C453   C467    1.406   .     A
C453   C461    1.404   .     A
C453   C455    1.458   .     S
C454   C706    1.355   1_455 S
C454   H638    1.088   .     S
C455   O494    1.301   .     A
C455   O593    1.287   1_455 S
C456   C457    1.414   .     S
C456   C804    1.355   1_545 S
C456   C765    1.522   1_545 S
C457   O495    1.287   .     A
C457   O546    1.278   .     S
C458   O497    1.297   .     A
C458   C460    1.445   .     S
C458   O548    1.285   .     S
C459   C473    1.388   .     A
C460   C473    1.399   .     A
C460   C472    1.393   .     A
C461   C12     1.389   1_556 S
C461   H585    1.083   1_455 S
C462   H487    1.082   .     S
C462   C464    1.392   .     A
C463   C467    1.405   .     A
C463   C14     1.415   1_556 S
C463   C18     1.413   1_556 S
C464   H486    1.078   .     S
C465   H477    1.111   .     S
C465   H476    1.105   .     S
C465   C606    1.522   .     S
C465   H625    1.111   .     S
C466   H478    1.111   .     S
C466   H480    1.106   .     S
C466   C472    1.514   .     S
C466   H479    1.110   .     S
C467   C471    1.414   .     A
C468   C472    1.406   .     A
C469   C470    1.391   .     A
C469   C9      1.400   1_556 S
C469   C18     1.422   1_556 S
C470   H483    1.084   .     S
C470   C471    1.388   .     A
C473   H524    1.083   .     S
H474   C573    1.083   1_455 S
H475   C765    1.111   1_545 S
H481   N489    1.029   .     S
H482   N490    1.029   .     S
H484   C9      1.084   1_556 S
H485   C511    1.083   .     S
H488   C754    1.088   1_545 S
N489   N490    1.296   .     D
N489   Zn500   2.014   .     S
N490   Zn499   2.014   .     S
O491   Zn499   1.953   .     S
O491   C502    1.269   .     S
O492   Zn500   1.981   .     S
O493   Zn499   1.949   .     S
O493   C505    1.287   .     S
O494   Zn500   1.908   .     S
O495   Zn499   1.981   .     S
O496   Zn500   1.953   .     S
O496   C557    1.278   1_455 S
O497   Zn499   1.908   .     S
O498   Zn500   1.949   .     S
O498   C558    1.285   1_455 S
Br501  C521    1.911   .     S
C502   C504    1.408   .     S
C502   O542    1.295   .     A
C503   C517    1.406   .     A
C503   C511    1.404   .     A
C503   C505    1.458   .     S
C504   C606    1.355   .     S
C504   H688    1.088   .     S
C505   O544    1.301   .     A
C506   C507    1.414   .     S
C506   C854    1.355   1_545 S
C506   C815    1.522   1_545 S
C507   O545    1.287   .     A
C507   O596    1.278   .     S
C508   O547    1.297   .     A
C508   C510    1.445   .     S
C508   O598    1.285   .     S
C509   C523    1.388   .     A
C510   C523    1.399   .     A
C510   C522    1.393   .     A
C511   C62     1.389   1_556 S
C512   H537    1.082   .     S
C512   C514    1.392   .     A
C513   C517    1.405   .     A
C513   C64     1.415   1_556 S
C513   C68     1.413   1_556 S
C514   H536    1.078   .     S
C515   H527    1.111   .     S
C515   H526    1.105   .     S
C515   C656    1.522   .     S
C515   H675    1.111   .     S
C516   H528    1.111   .     S
C516   H530    1.106   .     S
C516   C522    1.514   .     S
C516   H529    1.110   .     S
C517   C521    1.414   .     A
C518   C522    1.406   .     A
C519   C520    1.391   .     A
C519   C59     1.400   1_556 S
C519   C68     1.422   1_556 S
C520   H533    1.084   .     S
C520   C521    1.388   .     A
C523   H574    1.083   .     S
H525   C815    1.111   1_545 S
H531   N539    1.029   .     S
H532   N540    1.029   .     S
H534   C59     1.084   1_556 S
H535   C561    1.083   .     S
H538   C804    1.088   1_545 S
N539   N540    1.296   .     D
N539   Zn550   2.014   .     S
N540   Zn549   2.014   .     S
O541   Zn549   1.953   .     S
O541   C552    1.269   .     S
O542   Zn550   1.981   .     S
O543   Zn549   1.949   .     S
O543   C555    1.287   .     S
O544   Zn550   1.908   .     S
O545   Zn549   1.981   .     S
O546   Zn550   1.953   .     S
O547   Zn549   1.908   .     S
O548   Zn550   1.949   .     S
Br551  C571    1.911   .     S
C552   C554    1.408   .     S
C552   O592    1.295   .     A
C553   C567    1.406   .     A
C553   C561    1.404   .     A
C553   C555    1.458   .     S
C554   C656    1.355   .     S
C554   H738    1.088   .     S
C555   O594    1.301   .     A
C556   C557    1.414   .     S
C556   C754    1.355   1_645 S
C556   C865    1.522   1_545 S
C557   O595    1.287   .     A
C557   O496    1.278   1_655 S
C558   O597    1.297   .     A
C558   C560    1.445   .     S
C558   O498    1.285   1_655 S
C559   C573    1.388   .     A
C560   C573    1.399   .     A
C560   C572    1.393   .     A
C561   C112    1.389   1_556 S
C562   H587    1.082   .     S
C562   C564    1.392   .     A
C563   C567    1.405   .     A
C563   C114    1.415   1_556 S
C563   C118    1.413   1_556 S
C564   H586    1.078   .     S
C565   H577    1.111   .     S
C565   H576    1.105   .     S
C565   C706    1.522   .     S
C565   H725    1.111   .     S
C566   H578    1.111   .     S
C566   H580    1.106   .     S
C566   C572    1.514   .     S
C566   H579    1.110   .     S
C567   C571    1.414   .     A
C568   C572    1.406   .     A
C569   C570    1.391   .     A
C569   C109    1.400   1_556 S
C569   C118    1.422   1_556 S
C570   H583    1.084   .     S
C570   C571    1.388   .     A
C573   H474    1.083   1_655 S
H575   C865    1.111   1_545 S
H581   N589    1.029   .     S
H582   N590    1.029   .     S
H584   C109    1.084   1_556 S
H585   C461    1.083   1_655 S
H588   C854    1.088   1_545 S
N589   N590    1.296   .     D
N589   Zn600   2.014   .     S
N590   Zn599   2.014   .     S
O591   Zn599   1.953   .     S
O591   C452    1.269   1_655 S
O592   Zn600   1.981   .     S
O593   Zn599   1.949   .     S
O593   C455    1.287   1_655 S
O594   Zn600   1.908   .     S
O595   Zn599   1.981   .     S
O596   Zn600   1.953   .     S
O597   Zn599   1.908   .     S
O598   Zn600   1.949   .     S
Br601  C621    1.911   .     S
C602   C604    1.408   .     S
C602   O642    1.295   .     A
C602   O741    1.269   1_455 S
C603   C617    1.406   .     A
C603   C611    1.404   .     A
C603   C605    1.458   .     S
C604   C856    1.355   1_455 S
C604   H788    1.088   .     S
C605   O644    1.301   .     A
C605   O743    1.287   1_455 S
C606   C607    1.414   .     S
C607   O645    1.287   .     A
C607   O696    1.278   .     S
C608   O647    1.297   .     A
C608   C610    1.445   .     S
C608   O698    1.285   .     S
C609   C623    1.388   .     A
C610   C623    1.399   .     A
C610   C622    1.393   .     A
C611   C162    1.389   1_556 S
C611   H735    1.083   1_455 S
C612   H637    1.082   .     S
C612   C614    1.392   .     A
C613   C617    1.405   .     A
C613   C164    1.415   1_556 S
C613   C168    1.413   1_556 S
C614   H636    1.078   .     S
C615   H627    1.111   .     S
C615   H626    1.105   .     S
C615   C756    1.522   .     S
C615   H775    1.111   .     S
C616   H628    1.111   .     S
C616   H630    1.106   .     S
C616   C622    1.514   .     S
C616   H629    1.110   .     S
C617   C621    1.414   .     A
C618   C622    1.406   .     A
C619   C620    1.391   .     A
C619   C159    1.400   1_556 S
C619   C168    1.422   1_556 S
C620   H633    1.084   .     S
C620   C621    1.388   .     A
C623   H674    1.083   .     S
H624   C723    1.083   1_455 S
H631   N639    1.029   .     S
H632   N640    1.029   .     S
H634   C159    1.084   1_556 S
H635   C661    1.083   .     S
N639   N640    1.296   .     D
N639   Zn650   2.014   .     S
N640   Zn649   2.014   .     S
O641   Zn649   1.953   .     S
O641   C652    1.269   .     S
O642   Zn650   1.981   .     S
O643   Zn649   1.949   .     S
O643   C655    1.287   .     S
O644   Zn650   1.908   .     S
O645   Zn649   1.981   .     S
O646   Zn650   1.953   .     S
O646   C707    1.278   1_455 S
O647   Zn649   1.908   .     S
O648   Zn650   1.949   .     S
O648   C708    1.285   1_455 S
Br651  C671    1.911   .     S
C652   C654    1.408   .     S
C652   O692    1.295   .     A
C653   C667    1.406   .     A
C653   C661    1.404   .     A
C653   C655    1.458   .     S
C654   C756    1.355   .     S
C654   H838    1.088   .     S
C655   O694    1.301   .     A
C656   C657    1.414   .     S
C657   O695    1.287   .     A
C657   O746    1.278   .     S
C658   O697    1.297   .     A
C658   C660    1.445   .     S
C658   O748    1.285   .     S
C659   C673    1.388   .     A
C660   C673    1.399   .     A
C660   C672    1.393   .     A
C661   C212    1.389   1_556 S
C662   H687    1.082   .     S
C662   C664    1.392   .     A
C663   C667    1.405   .     A
C663   C214    1.415   1_556 S
C663   C218    1.413   1_556 S
C664   H686    1.078   .     S
C665   H677    1.111   .     S
C665   H676    1.105   .     S
C665   C806    1.522   .     S
C665   H825    1.111   .     S
C666   H678    1.111   .     S
C666   H680    1.106   .     S
C666   C672    1.514   .     S
C666   H679    1.110   .     S
C667   C671    1.414   .     A
C668   C672    1.406   .     A
C669   C670    1.391   .     A
C669   C209    1.400   1_556 S
C669   C218    1.422   1_556 S
C670   H683    1.084   .     S
C670   C671    1.388   .     A
C673   H724    1.083   .     S
H681   N689    1.029   .     S
H682   N690    1.029   .     S
H684   C209    1.084   1_556 S
H685   C711    1.083   .     S
N689   N690    1.296   .     D
N689   Zn700   2.014   .     S
N690   Zn699   2.014   .     S
O691   Zn699   1.953   .     S
O691   C702    1.269   .     S
O692   Zn700   1.981   .     S
O693   Zn699   1.949   .     S
O693   C705    1.287   .     S
O694   Zn700   1.908   .     S
O695   Zn699   1.981   .     S
O696   Zn700   1.953   .     S
O697   Zn699   1.908   .     S
O698   Zn700   1.949   .     S
Br701  C721    1.911   .     S
C702   C704    1.408   .     S
C702   O742    1.295   .     A
C703   C717    1.406   .     A
C703   C711    1.404   .     A
C703   C705    1.458   .     S
C704   C806    1.355   .     S
C704   H888    1.088   .     S
C705   O744    1.301   .     A
C706   C707    1.414   .     S
C706   C454    1.355   1_655 S
C707   O745    1.287   .     A
C707   O646    1.278   1_655 S
C708   O747    1.297   .     A
C708   C710    1.445   .     S
C708   O648    1.285   1_655 S
C709   C723    1.388   .     A
C710   C723    1.399   .     A
C710   C722    1.393   .     A
C711   C262    1.389   1_556 S
C712   H737    1.082   .     S
C712   C714    1.392   .     A
C713   C717    1.405   .     A
C713   C264    1.415   1_556 S
C713   C268    1.413   1_556 S
C714   H736    1.078   .     S
C715   H727    1.111   .     S
C715   H726    1.105   .     S
C715   C856    1.522   .     S
C715   H875    1.111   .     S
C716   H728    1.111   .     S
C716   H730    1.106   .     S
C716   C722    1.514   .     S
C716   H729    1.110   .     S
C717   C721    1.414   .     A
C718   C722    1.406   .     A
C719   C720    1.391   .     A
C719   C259    1.400   1_556 S
C719   C268    1.422   1_556 S
C720   H733    1.084   .     S
C720   C721    1.388   .     A
C723   H624    1.083   1_655 S
H731   N739    1.029   .     S
H732   N740    1.029   .     S
H734   C259    1.084   1_556 S
H735   C611    1.083   1_655 S
N739   N740    1.296   .     D
N739   Zn750   2.014   .     S
N740   Zn749   2.014   .     S
O741   Zn749   1.953   .     S
O741   C602    1.269   1_655 S
O742   Zn750   1.981   .     S
O743   Zn749   1.949   .     S
O743   C605    1.287   1_655 S
O744   Zn750   1.908   .     S
O745   Zn749   1.981   .     S
O746   Zn750   1.953   .     S
O747   Zn749   1.908   .     S
O748   Zn750   1.949   .     S
Br751  C771    1.911   .     S
C752   C754    1.408   .     S
C752   O792    1.295   .     A
C752   O891    1.269   1_455 S
C753   C767    1.406   .     A
C753   C761    1.404   .     A
C753   C755    1.458   .     S
C754   C556    1.355   1_465 S
C754   H488    1.088   1_565 S
C755   O794    1.301   .     A
C755   O893    1.287   1_455 S
C756   C757    1.414   .     S
C757   O795    1.287   .     A
C757   O846    1.278   .     S
C758   O797    1.297   .     A
C758   C760    1.445   .     S
C758   O848    1.285   .     S
C759   C773    1.388   .     A
C760   C773    1.399   .     A
C760   C772    1.393   .     A
C761   C312    1.389   1_556 S
C761   H885    1.083   1_455 S
C762   H787    1.082   .     S
C762   C764    1.392   .     A
C763   C767    1.405   .     A
C763   C314    1.415   1_556 S
C763   C318    1.413   1_556 S
C764   H786    1.078   .     S
C765   H777    1.111   .     S
C765   H776    1.105   .     S
C765   C456    1.522   1_565 S
C765   H475    1.111   1_565 S
C766   H778    1.111   .     S
C766   H780    1.106   .     S
C766   C772    1.514   .     S
C766   H779    1.110   .     S
C767   C771    1.414   .     A
C768   C772    1.406   .     A
C769   C770    1.391   .     A
C769   C309    1.400   1_556 S
C769   C318    1.422   1_556 S
C770   H783    1.084   .     S
C770   C771    1.388   .     A
C773   H824    1.083   .     S
H774   C873    1.083   1_455 S
H781   N789    1.029   .     S
H782   N790    1.029   .     S
H784   C309    1.084   1_556 S
H785   C811    1.083   .     S
N789   N790    1.296   .     D
N789   Zn800   2.014   .     S
N790   Zn799   2.014   .     S
O791   Zn799   1.953   .     S
O791   C802    1.269   .     S
O792   Zn800   1.981   .     S
O793   Zn799   1.949   .     S
O793   C805    1.287   .     S
O794   Zn800   1.908   .     S
O795   Zn799   1.981   .     S
O796   Zn800   1.953   .     S
O796   C857    1.278   1_455 S
O797   Zn799   1.908   .     S
O798   Zn800   1.949   .     S
O798   C858    1.285   1_455 S
Br801  C821    1.911   .     S
C802   C804    1.408   .     S
C802   O842    1.295   .     A
C803   C817    1.406   .     A
C803   C811    1.404   .     A
C803   C805    1.458   .     S
C804   C456    1.355   1_565 S
C804   H538    1.088   1_565 S
C805   O844    1.301   .     A
C806   C807    1.414   .     S
C807   O845    1.287   .     A
C807   O896    1.278   .     S
C808   O847    1.297   .     A
C808   C810    1.445   .     S
C808   O898    1.285   .     S
C809   C823    1.388   .     A
C810   C823    1.399   .     A
C810   C822    1.393   .     A
C811   C362    1.389   1_556 S
C812   H837    1.082   .     S
C812   C814    1.392   .     A
C813   C817    1.405   .     A
C813   C364    1.415   1_556 S
C813   C368    1.413   1_556 S
C814   H836    1.078   .     S
C815   H827    1.111   .     S
C815   H826    1.105   .     S
C815   C506    1.522   1_565 S
C815   H525    1.111   1_565 S
C816   H828    1.111   .     S
C816   H830    1.106   .     S
C816   C822    1.514   .     S
C816   H829    1.110   .     S
C817   C821    1.414   .     A
C818   C822    1.406   .     A
C819   C820    1.391   .     A
C819   C359    1.400   1_556 S
C819   C368    1.422   1_556 S
C820   H833    1.084   .     S
C820   C821    1.388   .     A
C823   H874    1.083   .     S
H831   N839    1.029   .     S
H832   N840    1.029   .     S
H834   C359    1.084   1_556 S
H835   C861    1.083   .     S
N839   N840    1.296   .     D
N839   Zn850   2.014   .     S
N840   Zn849   2.014   .     S
O841   Zn849   1.953   .     S
O841   C852    1.269   .     S
O842   Zn850   1.981   .     S
O843   Zn849   1.949   .     S
O843   C855    1.287   .     S
O844   Zn850   1.908   .     S
O845   Zn849   1.981   .     S
O846   Zn850   1.953   .     S
O847   Zn849   1.908   .     S
O848   Zn850   1.949   .     S
Br851  C871    1.911   .     S
C852   C854    1.408   .     S
C852   O892    1.295   .     A
C853   C867    1.406   .     A
C853   C861    1.404   .     A
C853   C855    1.458   .     S
C854   C506    1.355   1_565 S
C854   H588    1.088   1_565 S
C855   O894    1.301   .     A
C856   C857    1.414   .     S
C856   C604    1.355   1_655 S
C857   O895    1.287   .     A
C857   O796    1.278   1_655 S
C858   O897    1.297   .     A
C858   C860    1.445   .     S
C858   O798    1.285   1_655 S
C859   C873    1.388   .     A
C860   C873    1.399   .     A
C860   C872    1.393   .     A
C861   C412    1.389   1_556 S
C862   H887    1.082   .     S
C862   C864    1.392   .     A
C863   C867    1.405   .     A
C863   C414    1.415   1_556 S
C863   C418    1.413   1_556 S
C864   H886    1.078   .     S
C865   H877    1.111   .     S
C865   H876    1.105   .     S
C865   C556    1.522   1_565 S
C865   H575    1.111   1_565 S
C866   H878    1.111   .     S
C866   H880    1.106   .     S
C866   C872    1.514   .     S
C866   H879    1.110   .     S
C867   C871    1.414   .     A
C868   C872    1.406   .     A
C869   C870    1.391   .     A
C869   C409    1.400   1_556 S
C869   C418    1.422   1_556 S
C870   H883    1.084   .     S
C870   C871    1.388   .     A
C873   H774    1.083   1_655 S
H881   N889    1.029   .     S
H882   N890    1.029   .     S
H884   C409    1.084   1_556 S
H885   C761    1.083   1_655 S
N889   N890    1.296   .     D
N889   Zn900   2.014   .     S
N890   Zn899   2.014   .     S
O891   Zn899   1.953   .     S
O891   C752    1.269   1_655 S
O892   Zn900   1.981   .     S
O893   Zn899   1.949   .     S
O893   C755    1.287   1_655 S
O894   Zn900   1.908   .     S
O895   Zn899   1.981   .     S
O896   Zn900   1.953   .     S
O897   Zn899   1.908   .     S
O898   Zn900   1.949   .     S
