data_str_m3_o1_o16_pcu_sym.222
_audit_creation_date              2020-01-03
_audit_creation_method            'Materials Studio'
_symmetry_space_group_name_H-M    'P1'
_symmetry_Int_Tables_number       1
_symmetry_cell_setting            triclinic
loop_
_symmetry_equiv_pos_as_xyz
  x,y,z
_cell_length_a                    29.6973
_cell_length_b                    32.1490
_cell_length_c                    26.2338
_cell_angle_alpha                 91.4058
_cell_angle_beta                  69.6962
_cell_angle_gamma                 90.0085
loop_
_atom_site_label
_atom_site_type_symbol
_atom_site_fract_x
_atom_site_fract_y
_atom_site_fract_z
_atom_site_U_iso_or_equiv
_atom_site_adp_type
_atom_site_occupancy
O1     O     0.12846   0.22775   0.25000   0.00000  Uiso   1.00
O2     O     0.20490   0.22774   0.25000   0.00000  Uiso   1.00
C3     C     0.16707   0.24665   0.24889   0.00000  Uiso   1.00
O4     O     0.10947   0.16666   0.32681   0.00000  Uiso   1.00
O5     O     0.18591   0.16665   0.32681   0.00000  Uiso   1.00
C6     C     0.13979   0.16315   0.35208   0.00000  Uiso   1.00
Zn7    Zn    0.11562   0.16667   0.25000   0.00000  Uiso   1.00
Zn8    Zn    0.21771   0.16666   0.25000   0.00000  Uiso   1.00
O9     O     0.12843   0.10559   0.24999   0.00000  Uiso   1.00
O10    O     0.20488   0.10558   0.24999   0.00000  Uiso   1.00
O11    O     0.14742   0.16668   0.17319   0.00000  Uiso   1.00
O12    O     0.22387   0.16667   0.17319   0.00000  Uiso   1.00
C13    C     0.16686   0.08669   0.24933   0.00000  Uiso   1.00
C14    C     0.19349   0.16644   0.14782   0.00000  Uiso   1.00
C15    C     0.26050   0.12454   0.00750   0.00000  Uiso   1.00
H16    H     0.27770   0.13040   0.08033   0.00000  Uiso   1.00
H17    H     0.26410   0.09740   0.40913   0.00000  Uiso   1.00
H18    H     0.29287   0.10687   0.48602   0.00000  Uiso   1.00
C19    C     0.21024   0.16078   0.08912   0.00000  Uiso   1.00
C20    C     0.07386   0.16616   0.44442   0.00000  Uiso   1.00
C21    C     0.06299   0.17305   0.00011   0.00000  Uiso   1.00
C22    C     0.09852   0.17028   0.02296   0.00000  Uiso   1.00
C23    C     0.14556   0.15706   0.49124   0.00000  Uiso   1.00
C24    C     0.15527   0.14540   0.43637   0.00000  Uiso   1.00
C25    C     0.18271   0.15340   0.01296   0.00000  Uiso   1.00
C26    C     0.22559   0.13133   0.48361   0.00000  Uiso   1.00
C27    C     0.23216   0.11527   0.43171   0.00000  Uiso   1.00
C28    C     0.19756   0.12230   0.40827   0.00000  Uiso   1.00
C29    C     0.17798   0.17080   0.06363   0.00000  Uiso   1.00
C30    C     0.25241   0.13857   0.06071   0.00000  Uiso   1.00
C31    C     0.12197   0.15648   0.41127   0.00000  Uiso   1.00
H32    H     0.14804   0.19095   0.08538   0.00000  Uiso   1.00
H33    H     0.08723   0.17576   0.06635   0.00000  Uiso   1.00
H34    H     0.02657   0.18051   0.02619   0.00000  Uiso   1.00
H35    H     0.20349   0.10809   0.36863   0.00000  Uiso   1.00
C36    C     0.20491   0.31233   0.25701   0.00000  Uiso   1.00
H37    H     0.23366   0.29654   0.26522   0.00000  Uiso   1.00
C38    C     0.20449   0.02157   0.25791   0.00000  Uiso   1.00
H39    H     0.23261   0.03792   0.26743   0.00000  Uiso   1.00
C40    C     0.16759   0.04252   0.24742   0.00000  Uiso   1.00
C41    C     0.13195   0.02108   0.23437   0.00000  Uiso   1.00
H42    H     0.10395   0.03717   0.22475   0.00000  Uiso   1.00
C43    C     0.13243   0.31173   0.23352   0.00000  Uiso   1.00
H44    H     0.10519   0.29522   0.22265   0.00000  Uiso   1.00
C45    C     0.16812   0.29081   0.24640   0.00000  Uiso   1.00
C46    C     0.31857   0.13766   0.22008   0.00000  Uiso   1.00
H47    H     0.30796   0.11442   0.19605   0.00000  Uiso   1.00
C48    C     0.03275   0.13712   0.22105   0.00000  Uiso   1.00
H49    H     0.05784   0.11340   0.19782   0.00000  Uiso   1.00
N50    N     0.04760   0.16668   0.25001   0.00000  Uiso   1.00
C51    C     0.01545   0.19699   0.27794   0.00000  Uiso   1.00
C52    C     0.30024   0.19542   0.28071   0.00000  Uiso   1.00
N53    N     0.28573   0.16665   0.25000   0.00000  Uiso   1.00
N54    N     0.03122   0.23214   0.30154   0.00000  Uiso   1.00
O55    O     0.02476   0.26946   0.28708   0.00000  Uiso   1.00
O56    O     0.04564   0.22776   0.34248   0.00000  Uiso   1.00
I57    I     0.25072   0.23550   0.33993   0.00000  Uiso   1.00
N58    N     0.03525   0.16686   0.42333   0.00000  Uiso   1.00
O59    O     0.33297   0.19291   0.44413   0.00000  Uiso   1.00
O60    O     0.02991   0.13569   0.39339   0.00000  Uiso   1.00
O61    O     0.46179   0.22775   0.25000   0.00000  Uiso   1.00
O62    O     0.53823   0.22774   0.25000   0.00000  Uiso   1.00
C63    C     0.50040   0.24665   0.24889   0.00000  Uiso   1.00
O64    O     0.44280   0.16666   0.32681   0.00000  Uiso   1.00
O65    O     0.51924   0.16665   0.32681   0.00000  Uiso   1.00
C66    C     0.47312   0.16315   0.35208   0.00000  Uiso   1.00
Zn67   Zn    0.44896   0.16667   0.25000   0.00000  Uiso   1.00
Zn68   Zn    0.55104   0.16666   0.25000   0.00000  Uiso   1.00
O69    O     0.46177   0.10559   0.24999   0.00000  Uiso   1.00
O70    O     0.53821   0.10558   0.24999   0.00000  Uiso   1.00
O71    O     0.48076   0.16668   0.17319   0.00000  Uiso   1.00
O72    O     0.55720   0.16667   0.17319   0.00000  Uiso   1.00
C73    C     0.50019   0.08669   0.24933   0.00000  Uiso   1.00
C74    C     0.52682   0.16644   0.14782   0.00000  Uiso   1.00
C75    C     0.59383   0.12454   0.00750   0.00000  Uiso   1.00
H76    H     0.61103   0.13040   0.08033   0.00000  Uiso   1.00
H77    H     0.59744   0.09740   0.40913   0.00000  Uiso   1.00
H78    H     0.62621   0.10687   0.48602   0.00000  Uiso   1.00
C79    C     0.54358   0.16078   0.08912   0.00000  Uiso   1.00
C80    C     0.40719   0.16616   0.44442   0.00000  Uiso   1.00
C81    C     0.39632   0.17305   0.00011   0.00000  Uiso   1.00
C82    C     0.43186   0.17028   0.02296   0.00000  Uiso   1.00
C83    C     0.47889   0.15706   0.49124   0.00000  Uiso   1.00
C84    C     0.48860   0.14540   0.43637   0.00000  Uiso   1.00
C85    C     0.51604   0.15340   0.01296   0.00000  Uiso   1.00
C86    C     0.55892   0.13133   0.48361   0.00000  Uiso   1.00
C87    C     0.56549   0.11527   0.43171   0.00000  Uiso   1.00
C88    C     0.53090   0.12230   0.40827   0.00000  Uiso   1.00
C89    C     0.51132   0.17080   0.06363   0.00000  Uiso   1.00
C90    C     0.58574   0.13857   0.06071   0.00000  Uiso   1.00
C91    C     0.45530   0.15648   0.41127   0.00000  Uiso   1.00
H92    H     0.48138   0.19095   0.08538   0.00000  Uiso   1.00
H93    H     0.42056   0.17576   0.06635   0.00000  Uiso   1.00
H94    H     0.35991   0.18051   0.02619   0.00000  Uiso   1.00
H95    H     0.53682   0.10809   0.36863   0.00000  Uiso   1.00
C96    C     0.53824   0.31233   0.25701   0.00000  Uiso   1.00
H97    H     0.56699   0.29654   0.26522   0.00000  Uiso   1.00
C98    C     0.53782   0.02157   0.25791   0.00000  Uiso   1.00
H99    H     0.56595   0.03792   0.26743   0.00000  Uiso   1.00
C100   C     0.50093   0.04252   0.24742   0.00000  Uiso   1.00
C101   C     0.46528   0.02108   0.23437   0.00000  Uiso   1.00
H102   H     0.43728   0.03717   0.22475   0.00000  Uiso   1.00
C103   C     0.46576   0.31173   0.23352   0.00000  Uiso   1.00
H104   H     0.43852   0.29522   0.22265   0.00000  Uiso   1.00
C105   C     0.50146   0.29081   0.24640   0.00000  Uiso   1.00
C106   C     0.65191   0.13766   0.22008   0.00000  Uiso   1.00
H107   H     0.64129   0.11442   0.19605   0.00000  Uiso   1.00
C108   C     0.36609   0.13712   0.22105   0.00000  Uiso   1.00
H109   H     0.39117   0.11340   0.19782   0.00000  Uiso   1.00
N110   N     0.38093   0.16668   0.25001   0.00000  Uiso   1.00
C111   C     0.34878   0.19699   0.27794   0.00000  Uiso   1.00
C112   C     0.63358   0.19542   0.28071   0.00000  Uiso   1.00
N113   N     0.61906   0.16665   0.25000   0.00000  Uiso   1.00
N114   N     0.36455   0.23214   0.30154   0.00000  Uiso   1.00
O115   O     0.35810   0.26946   0.28708   0.00000  Uiso   1.00
O116   O     0.37898   0.22776   0.34248   0.00000  Uiso   1.00
I117   I     0.58405   0.23550   0.33993   0.00000  Uiso   1.00
N118   N     0.36858   0.16686   0.42333   0.00000  Uiso   1.00
O119   O     0.66630   0.19291   0.44413   0.00000  Uiso   1.00
O120   O     0.36325   0.13569   0.39339   0.00000  Uiso   1.00
O121   O     0.79512   0.22775   0.25000   0.00000  Uiso   1.00
O122   O     0.87157   0.22774   0.25000   0.00000  Uiso   1.00
C123   C     0.83374   0.24665   0.24889   0.00000  Uiso   1.00
O124   O     0.77613   0.16666   0.32681   0.00000  Uiso   1.00
O125   O     0.85258   0.16665   0.32681   0.00000  Uiso   1.00
C126   C     0.80646   0.16315   0.35208   0.00000  Uiso   1.00
Zn127  Zn    0.78229   0.16667   0.25000   0.00000  Uiso   1.00
Zn128  Zn    0.88438   0.16666   0.25000   0.00000  Uiso   1.00
O129   O     0.79510   0.10559   0.24999   0.00000  Uiso   1.00
O130   O     0.87154   0.10558   0.24999   0.00000  Uiso   1.00
O131   O     0.81409   0.16668   0.17319   0.00000  Uiso   1.00
O132   O     0.89053   0.16667   0.17319   0.00000  Uiso   1.00
C133   C     0.83353   0.08669   0.24933   0.00000  Uiso   1.00
C134   C     0.86015   0.16644   0.14782   0.00000  Uiso   1.00
C135   C     0.92716   0.12454   0.00750   0.00000  Uiso   1.00
H136   H     0.94437   0.13040   0.08033   0.00000  Uiso   1.00
H137   H     0.93077   0.09740   0.40913   0.00000  Uiso   1.00
H138   H     0.95954   0.10687   0.48602   0.00000  Uiso   1.00
C139   C     0.87691   0.16078   0.08912   0.00000  Uiso   1.00
C140   C     0.74052   0.16616   0.44442   0.00000  Uiso   1.00
C141   C     0.72965   0.17305   0.00011   0.00000  Uiso   1.00
C142   C     0.76519   0.17028   0.02296   0.00000  Uiso   1.00
C143   C     0.81222   0.15706   0.49124   0.00000  Uiso   1.00
C144   C     0.82194   0.14540   0.43637   0.00000  Uiso   1.00
C145   C     0.84937   0.15340   0.01296   0.00000  Uiso   1.00
C146   C     0.89226   0.13133   0.48361   0.00000  Uiso   1.00
C147   C     0.89882   0.11527   0.43171   0.00000  Uiso   1.00
C148   C     0.86423   0.12230   0.40827   0.00000  Uiso   1.00
C149   C     0.84465   0.17080   0.06363   0.00000  Uiso   1.00
C150   C     0.91908   0.13857   0.06071   0.00000  Uiso   1.00
C151   C     0.78863   0.15648   0.41127   0.00000  Uiso   1.00
H152   H     0.81471   0.19095   0.08538   0.00000  Uiso   1.00
H153   H     0.75390   0.17576   0.06635   0.00000  Uiso   1.00
H154   H     0.69324   0.18051   0.02619   0.00000  Uiso   1.00
H155   H     0.87015   0.10809   0.36863   0.00000  Uiso   1.00
C156   C     0.87158   0.31233   0.25701   0.00000  Uiso   1.00
H157   H     0.90033   0.29654   0.26522   0.00000  Uiso   1.00
C158   C     0.87115   0.02157   0.25791   0.00000  Uiso   1.00
H159   H     0.89928   0.03792   0.26743   0.00000  Uiso   1.00
C160   C     0.83426   0.04252   0.24742   0.00000  Uiso   1.00
C161   C     0.79861   0.02108   0.23437   0.00000  Uiso   1.00
H162   H     0.77062   0.03717   0.22475   0.00000  Uiso   1.00
C163   C     0.79909   0.31173   0.23352   0.00000  Uiso   1.00
H164   H     0.77185   0.29522   0.22265   0.00000  Uiso   1.00
C165   C     0.83479   0.29081   0.24640   0.00000  Uiso   1.00
C166   C     0.98524   0.13766   0.22008   0.00000  Uiso   1.00
H167   H     0.97462   0.11442   0.19605   0.00000  Uiso   1.00
C168   C     0.69942   0.13712   0.22105   0.00000  Uiso   1.00
H169   H     0.72450   0.11340   0.19782   0.00000  Uiso   1.00
N170   N     0.71426   0.16668   0.25001   0.00000  Uiso   1.00
C171   C     0.68212   0.19699   0.27794   0.00000  Uiso   1.00
C172   C     0.96691   0.19542   0.28071   0.00000  Uiso   1.00
N173   N     0.95239   0.16665   0.25000   0.00000  Uiso   1.00
N174   N     0.69788   0.23214   0.30154   0.00000  Uiso   1.00
O175   O     0.69143   0.26946   0.28708   0.00000  Uiso   1.00
O176   O     0.71231   0.22776   0.34248   0.00000  Uiso   1.00
I177   I     0.91738   0.23550   0.33993   0.00000  Uiso   1.00
N178   N     0.70191   0.16686   0.42333   0.00000  Uiso   1.00
O179   O     0.99964   0.19291   0.44413   0.00000  Uiso   1.00
O180   O     0.69658   0.13569   0.39339   0.00000  Uiso   1.00
O181   O     0.12846   0.56108   0.25000   0.00000  Uiso   1.00
O182   O     0.20490   0.56107   0.25000   0.00000  Uiso   1.00
C183   C     0.16707   0.57998   0.24889   0.00000  Uiso   1.00
O184   O     0.10947   0.50000   0.32681   0.00000  Uiso   1.00
O185   O     0.18591   0.49999   0.32681   0.00000  Uiso   1.00
C186   C     0.13979   0.49648   0.35208   0.00000  Uiso   1.00
Zn187  Zn    0.11562   0.50001   0.25000   0.00000  Uiso   1.00
Zn188  Zn    0.21771   0.49999   0.25000   0.00000  Uiso   1.00
O189   O     0.12843   0.43893   0.24999   0.00000  Uiso   1.00
O190   O     0.20488   0.43892   0.24999   0.00000  Uiso   1.00
O191   O     0.14742   0.50001   0.17319   0.00000  Uiso   1.00
O192   O     0.22387   0.50000   0.17319   0.00000  Uiso   1.00
C193   C     0.16686   0.42002   0.24933   0.00000  Uiso   1.00
C194   C     0.19349   0.49977   0.14782   0.00000  Uiso   1.00
C195   C     0.26050   0.45788   0.00750   0.00000  Uiso   1.00
H196   H     0.27770   0.46373   0.08033   0.00000  Uiso   1.00
H197   H     0.26410   0.43073   0.40913   0.00000  Uiso   1.00
H198   H     0.29287   0.44020   0.48602   0.00000  Uiso   1.00
C199   C     0.21024   0.49412   0.08912   0.00000  Uiso   1.00
C200   C     0.07386   0.49949   0.44442   0.00000  Uiso   1.00
C201   C     0.06299   0.50639   0.00011   0.00000  Uiso   1.00
C202   C     0.09852   0.50362   0.02296   0.00000  Uiso   1.00
C203   C     0.14556   0.49040   0.49124   0.00000  Uiso   1.00
C204   C     0.15527   0.47874   0.43637   0.00000  Uiso   1.00
C205   C     0.18271   0.48673   0.01296   0.00000  Uiso   1.00
C206   C     0.22559   0.46466   0.48361   0.00000  Uiso   1.00
C207   C     0.23216   0.44861   0.43171   0.00000  Uiso   1.00
C208   C     0.19756   0.45563   0.40827   0.00000  Uiso   1.00
C209   C     0.17798   0.50413   0.06363   0.00000  Uiso   1.00
C210   C     0.25241   0.47190   0.06071   0.00000  Uiso   1.00
C211   C     0.12197   0.48981   0.41127   0.00000  Uiso   1.00
H212   H     0.14804   0.52428   0.08538   0.00000  Uiso   1.00
H213   H     0.08723   0.50909   0.06635   0.00000  Uiso   1.00
H214   H     0.02657   0.51385   0.02619   0.00000  Uiso   1.00
H215   H     0.20349   0.44142   0.36863   0.00000  Uiso   1.00
C216   C     0.20491   0.64567   0.25701   0.00000  Uiso   1.00
H217   H     0.23366   0.62987   0.26522   0.00000  Uiso   1.00
C218   C     0.20449   0.35490   0.25791   0.00000  Uiso   1.00
H219   H     0.23261   0.37126   0.26743   0.00000  Uiso   1.00
C220   C     0.16759   0.37585   0.24742   0.00000  Uiso   1.00
C221   C     0.13195   0.35442   0.23437   0.00000  Uiso   1.00
H222   H     0.10395   0.37050   0.22475   0.00000  Uiso   1.00
C223   C     0.13243   0.64506   0.23352   0.00000  Uiso   1.00
H224   H     0.10519   0.62855   0.22265   0.00000  Uiso   1.00
C225   C     0.16812   0.62414   0.24640   0.00000  Uiso   1.00
C226   C     0.31857   0.47100   0.22008   0.00000  Uiso   1.00
H227   H     0.30796   0.44776   0.19605   0.00000  Uiso   1.00
C228   C     0.03275   0.47046   0.22105   0.00000  Uiso   1.00
H229   H     0.05784   0.44673   0.19782   0.00000  Uiso   1.00
N230   N     0.04760   0.50001   0.25001   0.00000  Uiso   1.00
C231   C     0.01545   0.53032   0.27794   0.00000  Uiso   1.00
C232   C     0.30024   0.52876   0.28071   0.00000  Uiso   1.00
N233   N     0.28573   0.49998   0.25000   0.00000  Uiso   1.00
N234   N     0.03122   0.56548   0.30154   0.00000  Uiso   1.00
O235   O     0.02476   0.60279   0.28708   0.00000  Uiso   1.00
O236   O     0.04564   0.56110   0.34248   0.00000  Uiso   1.00
I237   I     0.25072   0.56883   0.33993   0.00000  Uiso   1.00
N238   N     0.03525   0.50019   0.42333   0.00000  Uiso   1.00
O239   O     0.33297   0.52624   0.44413   0.00000  Uiso   1.00
O240   O     0.02991   0.46903   0.39339   0.00000  Uiso   1.00
O241   O     0.46179   0.56108   0.25000   0.00000  Uiso   1.00
O242   O     0.53823   0.56107   0.25000   0.00000  Uiso   1.00
C243   C     0.50040   0.57998   0.24889   0.00000  Uiso   1.00
O244   O     0.44280   0.50000   0.32681   0.00000  Uiso   1.00
O245   O     0.51924   0.49999   0.32681   0.00000  Uiso   1.00
C246   C     0.47312   0.49648   0.35208   0.00000  Uiso   1.00
Zn247  Zn    0.44896   0.50001   0.25000   0.00000  Uiso   1.00
Zn248  Zn    0.55104   0.49999   0.25000   0.00000  Uiso   1.00
O249   O     0.46177   0.43893   0.24999   0.00000  Uiso   1.00
O250   O     0.53821   0.43892   0.24999   0.00000  Uiso   1.00
O251   O     0.48076   0.50001   0.17319   0.00000  Uiso   1.00
O252   O     0.55720   0.50000   0.17319   0.00000  Uiso   1.00
C253   C     0.50019   0.42002   0.24933   0.00000  Uiso   1.00
C254   C     0.52682   0.49977   0.14782   0.00000  Uiso   1.00
C255   C     0.59383   0.45788   0.00750   0.00000  Uiso   1.00
H256   H     0.61103   0.46373   0.08033   0.00000  Uiso   1.00
H257   H     0.59744   0.43073   0.40913   0.00000  Uiso   1.00
H258   H     0.62621   0.44020   0.48602   0.00000  Uiso   1.00
C259   C     0.54358   0.49412   0.08912   0.00000  Uiso   1.00
C260   C     0.40719   0.49949   0.44442   0.00000  Uiso   1.00
C261   C     0.39632   0.50639   0.00011   0.00000  Uiso   1.00
C262   C     0.43186   0.50362   0.02296   0.00000  Uiso   1.00
C263   C     0.47889   0.49040   0.49124   0.00000  Uiso   1.00
C264   C     0.48860   0.47874   0.43637   0.00000  Uiso   1.00
C265   C     0.51604   0.48673   0.01296   0.00000  Uiso   1.00
C266   C     0.55892   0.46466   0.48361   0.00000  Uiso   1.00
C267   C     0.56549   0.44861   0.43171   0.00000  Uiso   1.00
C268   C     0.53090   0.45563   0.40827   0.00000  Uiso   1.00
C269   C     0.51132   0.50413   0.06363   0.00000  Uiso   1.00
C270   C     0.58574   0.47190   0.06071   0.00000  Uiso   1.00
C271   C     0.45530   0.48981   0.41127   0.00000  Uiso   1.00
H272   H     0.48138   0.52428   0.08538   0.00000  Uiso   1.00
H273   H     0.42056   0.50909   0.06635   0.00000  Uiso   1.00
H274   H     0.35991   0.51385   0.02619   0.00000  Uiso   1.00
H275   H     0.53682   0.44142   0.36863   0.00000  Uiso   1.00
C276   C     0.53824   0.64567   0.25701   0.00000  Uiso   1.00
H277   H     0.56699   0.62987   0.26522   0.00000  Uiso   1.00
C278   C     0.53782   0.35490   0.25791   0.00000  Uiso   1.00
H279   H     0.56595   0.37126   0.26743   0.00000  Uiso   1.00
C280   C     0.50093   0.37585   0.24742   0.00000  Uiso   1.00
C281   C     0.46528   0.35442   0.23437   0.00000  Uiso   1.00
H282   H     0.43728   0.37050   0.22475   0.00000  Uiso   1.00
C283   C     0.46576   0.64506   0.23352   0.00000  Uiso   1.00
H284   H     0.43852   0.62855   0.22265   0.00000  Uiso   1.00
C285   C     0.50146   0.62414   0.24640   0.00000  Uiso   1.00
C286   C     0.65191   0.47100   0.22008   0.00000  Uiso   1.00
H287   H     0.64129   0.44776   0.19605   0.00000  Uiso   1.00
C288   C     0.36609   0.47046   0.22105   0.00000  Uiso   1.00
H289   H     0.39117   0.44673   0.19782   0.00000  Uiso   1.00
N290   N     0.38093   0.50001   0.25001   0.00000  Uiso   1.00
C291   C     0.34878   0.53032   0.27794   0.00000  Uiso   1.00
C292   C     0.63358   0.52876   0.28071   0.00000  Uiso   1.00
N293   N     0.61906   0.49998   0.25000   0.00000  Uiso   1.00
N294   N     0.36455   0.56548   0.30154   0.00000  Uiso   1.00
O295   O     0.35810   0.60279   0.28708   0.00000  Uiso   1.00
O296   O     0.37898   0.56110   0.34248   0.00000  Uiso   1.00
I297   I     0.58405   0.56883   0.33993   0.00000  Uiso   1.00
N298   N     0.36858   0.50019   0.42333   0.00000  Uiso   1.00
O299   O     0.66630   0.52624   0.44413   0.00000  Uiso   1.00
O300   O     0.36325   0.46903   0.39339   0.00000  Uiso   1.00
O301   O     0.79512   0.56108   0.25000   0.00000  Uiso   1.00
O302   O     0.87157   0.56107   0.25000   0.00000  Uiso   1.00
C303   C     0.83374   0.57998   0.24889   0.00000  Uiso   1.00
O304   O     0.77613   0.50000   0.32681   0.00000  Uiso   1.00
O305   O     0.85258   0.49999   0.32681   0.00000  Uiso   1.00
C306   C     0.80646   0.49648   0.35208   0.00000  Uiso   1.00
Zn307  Zn    0.78229   0.50001   0.25000   0.00000  Uiso   1.00
Zn308  Zn    0.88438   0.49999   0.25000   0.00000  Uiso   1.00
O309   O     0.79510   0.43893   0.24999   0.00000  Uiso   1.00
O310   O     0.87154   0.43892   0.24999   0.00000  Uiso   1.00
O311   O     0.81409   0.50001   0.17319   0.00000  Uiso   1.00
O312   O     0.89053   0.50000   0.17319   0.00000  Uiso   1.00
C313   C     0.83353   0.42002   0.24933   0.00000  Uiso   1.00
C314   C     0.86015   0.49977   0.14782   0.00000  Uiso   1.00
C315   C     0.92716   0.45788   0.00750   0.00000  Uiso   1.00
H316   H     0.94437   0.46373   0.08033   0.00000  Uiso   1.00
H317   H     0.93077   0.43073   0.40913   0.00000  Uiso   1.00
H318   H     0.95954   0.44020   0.48602   0.00000  Uiso   1.00
C319   C     0.87691   0.49412   0.08912   0.00000  Uiso   1.00
C320   C     0.74052   0.49949   0.44442   0.00000  Uiso   1.00
C321   C     0.72965   0.50639   0.00011   0.00000  Uiso   1.00
C322   C     0.76519   0.50362   0.02296   0.00000  Uiso   1.00
C323   C     0.81222   0.49040   0.49124   0.00000  Uiso   1.00
C324   C     0.82194   0.47874   0.43637   0.00000  Uiso   1.00
C325   C     0.84937   0.48673   0.01296   0.00000  Uiso   1.00
C326   C     0.89226   0.46466   0.48361   0.00000  Uiso   1.00
C327   C     0.89882   0.44861   0.43171   0.00000  Uiso   1.00
C328   C     0.86423   0.45563   0.40827   0.00000  Uiso   1.00
C329   C     0.84465   0.50413   0.06363   0.00000  Uiso   1.00
C330   C     0.91908   0.47190   0.06071   0.00000  Uiso   1.00
C331   C     0.78863   0.48981   0.41127   0.00000  Uiso   1.00
H332   H     0.81471   0.52428   0.08538   0.00000  Uiso   1.00
H333   H     0.75390   0.50909   0.06635   0.00000  Uiso   1.00
H334   H     0.69324   0.51385   0.02619   0.00000  Uiso   1.00
H335   H     0.87015   0.44142   0.36863   0.00000  Uiso   1.00
C336   C     0.87158   0.64567   0.25701   0.00000  Uiso   1.00
H337   H     0.90033   0.62987   0.26522   0.00000  Uiso   1.00
C338   C     0.87115   0.35490   0.25791   0.00000  Uiso   1.00
H339   H     0.89928   0.37126   0.26743   0.00000  Uiso   1.00
C340   C     0.83426   0.37585   0.24742   0.00000  Uiso   1.00
C341   C     0.79861   0.35442   0.23437   0.00000  Uiso   1.00
H342   H     0.77062   0.37050   0.22475   0.00000  Uiso   1.00
C343   C     0.79909   0.64506   0.23352   0.00000  Uiso   1.00
H344   H     0.77185   0.62855   0.22265   0.00000  Uiso   1.00
C345   C     0.83479   0.62414   0.24640   0.00000  Uiso   1.00
C346   C     0.98524   0.47100   0.22008   0.00000  Uiso   1.00
H347   H     0.97462   0.44776   0.19605   0.00000  Uiso   1.00
C348   C     0.69942   0.47046   0.22105   0.00000  Uiso   1.00
H349   H     0.72450   0.44673   0.19782   0.00000  Uiso   1.00
N350   N     0.71426   0.50001   0.25001   0.00000  Uiso   1.00
C351   C     0.68212   0.53032   0.27794   0.00000  Uiso   1.00
C352   C     0.96691   0.52876   0.28071   0.00000  Uiso   1.00
N353   N     0.95239   0.49998   0.25000   0.00000  Uiso   1.00
N354   N     0.69788   0.56548   0.30154   0.00000  Uiso   1.00
O355   O     0.69143   0.60279   0.28708   0.00000  Uiso   1.00
O356   O     0.71231   0.56110   0.34248   0.00000  Uiso   1.00
I357   I     0.91738   0.56883   0.33993   0.00000  Uiso   1.00
N358   N     0.70191   0.50019   0.42333   0.00000  Uiso   1.00
O359   O     0.99964   0.52624   0.44413   0.00000  Uiso   1.00
O360   O     0.69658   0.46903   0.39339   0.00000  Uiso   1.00
O361   O     0.12846   0.89442   0.25000   0.00000  Uiso   1.00
O362   O     0.20490   0.89441   0.25000   0.00000  Uiso   1.00
C363   C     0.16707   0.91331   0.24889   0.00000  Uiso   1.00
O364   O     0.10947   0.83333   0.32681   0.00000  Uiso   1.00
O365   O     0.18591   0.83332   0.32681   0.00000  Uiso   1.00
C366   C     0.13979   0.82981   0.35208   0.00000  Uiso   1.00
Zn367  Zn    0.11562   0.83334   0.25000   0.00000  Uiso   1.00
Zn368  Zn    0.21771   0.83333   0.25000   0.00000  Uiso   1.00
O369   O     0.12843   0.77226   0.24999   0.00000  Uiso   1.00
O370   O     0.20488   0.77225   0.24999   0.00000  Uiso   1.00
O371   O     0.14742   0.83335   0.17319   0.00000  Uiso   1.00
O372   O     0.22387   0.83334   0.17319   0.00000  Uiso   1.00
C373   C     0.16686   0.75335   0.24933   0.00000  Uiso   1.00
C374   C     0.19349   0.83310   0.14782   0.00000  Uiso   1.00
C375   C     0.26050   0.79121   0.00750   0.00000  Uiso   1.00
H376   H     0.27770   0.79706   0.08033   0.00000  Uiso   1.00
H377   H     0.26410   0.76407   0.40913   0.00000  Uiso   1.00
H378   H     0.29287   0.77354   0.48602   0.00000  Uiso   1.00
C379   C     0.21024   0.82745   0.08912   0.00000  Uiso   1.00
C380   C     0.07386   0.83283   0.44442   0.00000  Uiso   1.00
C381   C     0.06299   0.83972   0.00011   0.00000  Uiso   1.00
C382   C     0.09852   0.83695   0.02296   0.00000  Uiso   1.00
C383   C     0.14556   0.82373   0.49124   0.00000  Uiso   1.00
C384   C     0.15527   0.81207   0.43637   0.00000  Uiso   1.00
C385   C     0.18271   0.82006   0.01296   0.00000  Uiso   1.00
C386   C     0.22559   0.79799   0.48361   0.00000  Uiso   1.00
C387   C     0.23216   0.78194   0.43171   0.00000  Uiso   1.00
C388   C     0.19756   0.78897   0.40827   0.00000  Uiso   1.00
C389   C     0.17798   0.83746   0.06363   0.00000  Uiso   1.00
C390   C     0.25241   0.80524   0.06071   0.00000  Uiso   1.00
C391   C     0.12197   0.82315   0.41127   0.00000  Uiso   1.00
H392   H     0.14804   0.85761   0.08538   0.00000  Uiso   1.00
H393   H     0.08723   0.84242   0.06635   0.00000  Uiso   1.00
H394   H     0.02657   0.84718   0.02619   0.00000  Uiso   1.00
H395   H     0.20349   0.77476   0.36863   0.00000  Uiso   1.00
C396   C     0.20491   0.97900   0.25701   0.00000  Uiso   1.00
H397   H     0.23366   0.96320   0.26522   0.00000  Uiso   1.00
C398   C     0.20449   0.68824   0.25791   0.00000  Uiso   1.00
H399   H     0.23261   0.70459   0.26743   0.00000  Uiso   1.00
C400   C     0.16759   0.70919   0.24742   0.00000  Uiso   1.00
C401   C     0.13195   0.68775   0.23437   0.00000  Uiso   1.00
H402   H     0.10395   0.70383   0.22475   0.00000  Uiso   1.00
C403   C     0.13243   0.97839   0.23352   0.00000  Uiso   1.00
H404   H     0.10519   0.96189   0.22265   0.00000  Uiso   1.00
C405   C     0.16812   0.95748   0.24640   0.00000  Uiso   1.00
C406   C     0.31857   0.80433   0.22008   0.00000  Uiso   1.00
H407   H     0.30796   0.78109   0.19605   0.00000  Uiso   1.00
C408   C     0.03275   0.80379   0.22105   0.00000  Uiso   1.00
H409   H     0.05784   0.78006   0.19782   0.00000  Uiso   1.00
N410   N     0.04760   0.83334   0.25001   0.00000  Uiso   1.00
C411   C     0.01545   0.86365   0.27794   0.00000  Uiso   1.00
C412   C     0.30024   0.86209   0.28071   0.00000  Uiso   1.00
N413   N     0.28573   0.83331   0.25000   0.00000  Uiso   1.00
N414   N     0.03122   0.89881   0.30154   0.00000  Uiso   1.00
O415   O     0.02476   0.93613   0.28708   0.00000  Uiso   1.00
O416   O     0.04564   0.89443   0.34248   0.00000  Uiso   1.00
I417   I     0.25072   0.90216   0.33993   0.00000  Uiso   1.00
N418   N     0.03525   0.83353   0.42333   0.00000  Uiso   1.00
O419   O     0.33297   0.85958   0.44413   0.00000  Uiso   1.00
O420   O     0.02991   0.80236   0.39339   0.00000  Uiso   1.00
O421   O     0.46179   0.89442   0.25000   0.00000  Uiso   1.00
O422   O     0.53823   0.89441   0.25000   0.00000  Uiso   1.00
C423   C     0.50040   0.91331   0.24889   0.00000  Uiso   1.00
O424   O     0.44280   0.83333   0.32681   0.00000  Uiso   1.00
O425   O     0.51924   0.83332   0.32681   0.00000  Uiso   1.00
C426   C     0.47312   0.82981   0.35208   0.00000  Uiso   1.00
Zn427  Zn    0.44896   0.83334   0.25000   0.00000  Uiso   1.00
Zn428  Zn    0.55104   0.83333   0.25000   0.00000  Uiso   1.00
O429   O     0.46177   0.77226   0.24999   0.00000  Uiso   1.00
O430   O     0.53821   0.77225   0.24999   0.00000  Uiso   1.00
O431   O     0.48076   0.83335   0.17319   0.00000  Uiso   1.00
O432   O     0.55720   0.83334   0.17319   0.00000  Uiso   1.00
C433   C     0.50019   0.75335   0.24933   0.00000  Uiso   1.00
C434   C     0.52682   0.83310   0.14782   0.00000  Uiso   1.00
C435   C     0.59383   0.79121   0.00750   0.00000  Uiso   1.00
H436   H     0.61103   0.79706   0.08033   0.00000  Uiso   1.00
H437   H     0.59744   0.76407   0.40913   0.00000  Uiso   1.00
H438   H     0.62621   0.77354   0.48602   0.00000  Uiso   1.00
C439   C     0.54358   0.82745   0.08912   0.00000  Uiso   1.00
C440   C     0.40719   0.83283   0.44442   0.00000  Uiso   1.00
C441   C     0.39632   0.83972   0.00011   0.00000  Uiso   1.00
C442   C     0.43186   0.83695   0.02296   0.00000  Uiso   1.00
C443   C     0.47889   0.82373   0.49124   0.00000  Uiso   1.00
C444   C     0.48860   0.81207   0.43637   0.00000  Uiso   1.00
C445   C     0.51604   0.82006   0.01296   0.00000  Uiso   1.00
C446   C     0.55892   0.79799   0.48361   0.00000  Uiso   1.00
C447   C     0.56549   0.78194   0.43171   0.00000  Uiso   1.00
C448   C     0.53090   0.78897   0.40827   0.00000  Uiso   1.00
C449   C     0.51132   0.83746   0.06363   0.00000  Uiso   1.00
C450   C     0.58574   0.80524   0.06071   0.00000  Uiso   1.00
C451   C     0.45530   0.82315   0.41127   0.00000  Uiso   1.00
H452   H     0.48138   0.85761   0.08538   0.00000  Uiso   1.00
H453   H     0.42056   0.84242   0.06635   0.00000  Uiso   1.00
H454   H     0.35991   0.84718   0.02619   0.00000  Uiso   1.00
H455   H     0.53682   0.77476   0.36863   0.00000  Uiso   1.00
C456   C     0.53824   0.97900   0.25701   0.00000  Uiso   1.00
H457   H     0.56699   0.96320   0.26522   0.00000  Uiso   1.00
C458   C     0.53782   0.68824   0.25791   0.00000  Uiso   1.00
H459   H     0.56595   0.70459   0.26743   0.00000  Uiso   1.00
C460   C     0.50093   0.70919   0.24742   0.00000  Uiso   1.00
C461   C     0.46528   0.68775   0.23437   0.00000  Uiso   1.00
H462   H     0.43728   0.70383   0.22475   0.00000  Uiso   1.00
C463   C     0.46576   0.97839   0.23352   0.00000  Uiso   1.00
H464   H     0.43852   0.96189   0.22265   0.00000  Uiso   1.00
C465   C     0.50146   0.95748   0.24640   0.00000  Uiso   1.00
C466   C     0.65191   0.80433   0.22008   0.00000  Uiso   1.00
H467   H     0.64129   0.78109   0.19605   0.00000  Uiso   1.00
C468   C     0.36609   0.80379   0.22105   0.00000  Uiso   1.00
H469   H     0.39117   0.78006   0.19782   0.00000  Uiso   1.00
N470   N     0.38093   0.83334   0.25001   0.00000  Uiso   1.00
C471   C     0.34878   0.86365   0.27794   0.00000  Uiso   1.00
C472   C     0.63358   0.86209   0.28071   0.00000  Uiso   1.00
N473   N     0.61906   0.83331   0.25000   0.00000  Uiso   1.00
N474   N     0.36455   0.89881   0.30154   0.00000  Uiso   1.00
O475   O     0.35810   0.93613   0.28708   0.00000  Uiso   1.00
O476   O     0.37898   0.89443   0.34248   0.00000  Uiso   1.00
I477   I     0.58405   0.90216   0.33993   0.00000  Uiso   1.00
N478   N     0.36858   0.83353   0.42333   0.00000  Uiso   1.00
O479   O     0.66630   0.85958   0.44413   0.00000  Uiso   1.00
O480   O     0.36325   0.80236   0.39339   0.00000  Uiso   1.00
O481   O     0.79512   0.89442   0.25000   0.00000  Uiso   1.00
O482   O     0.87157   0.89441   0.25000   0.00000  Uiso   1.00
C483   C     0.83374   0.91331   0.24889   0.00000  Uiso   1.00
O484   O     0.77613   0.83333   0.32681   0.00000  Uiso   1.00
O485   O     0.85258   0.83332   0.32681   0.00000  Uiso   1.00
C486   C     0.80646   0.82981   0.35208   0.00000  Uiso   1.00
Zn487  Zn    0.78229   0.83334   0.25000   0.00000  Uiso   1.00
Zn488  Zn    0.88438   0.83333   0.25000   0.00000  Uiso   1.00
O489   O     0.79510   0.77226   0.24999   0.00000  Uiso   1.00
O490   O     0.87154   0.77225   0.24999   0.00000  Uiso   1.00
O491   O     0.81409   0.83335   0.17319   0.00000  Uiso   1.00
O492   O     0.89053   0.83334   0.17319   0.00000  Uiso   1.00
C493   C     0.83353   0.75335   0.24933   0.00000  Uiso   1.00
C494   C     0.86015   0.83310   0.14782   0.00000  Uiso   1.00
C495   C     0.92716   0.79121   0.00750   0.00000  Uiso   1.00
H496   H     0.94437   0.79706   0.08033   0.00000  Uiso   1.00
H497   H     0.93077   0.76407   0.40913   0.00000  Uiso   1.00
H498   H     0.95954   0.77354   0.48602   0.00000  Uiso   1.00
C499   C     0.87691   0.82745   0.08912   0.00000  Uiso   1.00
C500   C     0.74052   0.83283   0.44442   0.00000  Uiso   1.00
C501   C     0.72965   0.83972   0.00011   0.00000  Uiso   1.00
C502   C     0.76519   0.83695   0.02296   0.00000  Uiso   1.00
C503   C     0.81222   0.82373   0.49124   0.00000  Uiso   1.00
C504   C     0.82194   0.81207   0.43637   0.00000  Uiso   1.00
C505   C     0.84937   0.82006   0.01296   0.00000  Uiso   1.00
C506   C     0.89226   0.79799   0.48361   0.00000  Uiso   1.00
C507   C     0.89882   0.78194   0.43171   0.00000  Uiso   1.00
C508   C     0.86423   0.78897   0.40827   0.00000  Uiso   1.00
C509   C     0.84465   0.83746   0.06363   0.00000  Uiso   1.00
C510   C     0.91908   0.80524   0.06071   0.00000  Uiso   1.00
C511   C     0.78863   0.82315   0.41127   0.00000  Uiso   1.00
H512   H     0.81471   0.85761   0.08538   0.00000  Uiso   1.00
H513   H     0.75390   0.84242   0.06635   0.00000  Uiso   1.00
H514   H     0.69324   0.84718   0.02619   0.00000  Uiso   1.00
H515   H     0.87015   0.77476   0.36863   0.00000  Uiso   1.00
C516   C     0.87158   0.97900   0.25701   0.00000  Uiso   1.00
H517   H     0.90033   0.96320   0.26522   0.00000  Uiso   1.00
C518   C     0.87115   0.68824   0.25791   0.00000  Uiso   1.00
H519   H     0.89928   0.70459   0.26743   0.00000  Uiso   1.00
C520   C     0.83426   0.70919   0.24742   0.00000  Uiso   1.00
C521   C     0.79861   0.68775   0.23437   0.00000  Uiso   1.00
H522   H     0.77062   0.70383   0.22475   0.00000  Uiso   1.00
C523   C     0.79909   0.97839   0.23352   0.00000  Uiso   1.00
H524   H     0.77185   0.96189   0.22265   0.00000  Uiso   1.00
C525   C     0.83479   0.95748   0.24640   0.00000  Uiso   1.00
C526   C     0.98524   0.80433   0.22008   0.00000  Uiso   1.00
H527   H     0.97462   0.78109   0.19605   0.00000  Uiso   1.00
C528   C     0.69942   0.80379   0.22105   0.00000  Uiso   1.00
H529   H     0.72450   0.78006   0.19782   0.00000  Uiso   1.00
N530   N     0.71426   0.83334   0.25001   0.00000  Uiso   1.00
C531   C     0.68212   0.86365   0.27794   0.00000  Uiso   1.00
C532   C     0.96691   0.86209   0.28071   0.00000  Uiso   1.00
N533   N     0.95239   0.83331   0.25000   0.00000  Uiso   1.00
N534   N     0.69788   0.89881   0.30154   0.00000  Uiso   1.00
O535   O     0.69143   0.93613   0.28708   0.00000  Uiso   1.00
O536   O     0.71231   0.89443   0.34248   0.00000  Uiso   1.00
I537   I     0.91738   0.90216   0.33993   0.00000  Uiso   1.00
N538   N     0.70191   0.83353   0.42333   0.00000  Uiso   1.00
O539   O     0.99964   0.85958   0.44413   0.00000  Uiso   1.00
O540   O     0.69658   0.80236   0.39339   0.00000  Uiso   1.00
O541   O     0.12846   0.22775   0.75000   0.00000  Uiso   1.00
O542   O     0.20490   0.22774   0.75000   0.00000  Uiso   1.00
C543   C     0.16707   0.24665   0.74889   0.00000  Uiso   1.00
O544   O     0.10947   0.16666   0.82681   0.00000  Uiso   1.00
O545   O     0.18591   0.16665   0.82681   0.00000  Uiso   1.00
C546   C     0.13979   0.16315   0.85208   0.00000  Uiso   1.00
Zn547  Zn    0.11562   0.16667   0.75000   0.00000  Uiso   1.00
Zn548  Zn    0.21771   0.16666   0.75000   0.00000  Uiso   1.00
O549   O     0.12843   0.10559   0.74999   0.00000  Uiso   1.00
O550   O     0.20488   0.10558   0.74999   0.00000  Uiso   1.00
O551   O     0.14742   0.16668   0.67319   0.00000  Uiso   1.00
O552   O     0.22387   0.16667   0.67319   0.00000  Uiso   1.00
C553   C     0.16686   0.08669   0.74933   0.00000  Uiso   1.00
C554   C     0.19349   0.16644   0.64782   0.00000  Uiso   1.00
C555   C     0.26050   0.12454   0.50750   0.00000  Uiso   1.00
H556   H     0.27770   0.13040   0.58033   0.00000  Uiso   1.00
H557   H     0.26410   0.09740   0.90913   0.00000  Uiso   1.00
H558   H     0.29287   0.10687   0.98602   0.00000  Uiso   1.00
C559   C     0.21024   0.16078   0.58912   0.00000  Uiso   1.00
C560   C     0.07386   0.16616   0.94442   0.00000  Uiso   1.00
C561   C     0.06299   0.17305   0.50011   0.00000  Uiso   1.00
C562   C     0.09852   0.17028   0.52296   0.00000  Uiso   1.00
C563   C     0.14556   0.15706   0.99124   0.00000  Uiso   1.00
C564   C     0.15527   0.14540   0.93637   0.00000  Uiso   1.00
C565   C     0.18271   0.15340   0.51296   0.00000  Uiso   1.00
C566   C     0.22559   0.13133   0.98361   0.00000  Uiso   1.00
C567   C     0.23216   0.11527   0.93171   0.00000  Uiso   1.00
C568   C     0.19756   0.12230   0.90827   0.00000  Uiso   1.00
C569   C     0.17798   0.17080   0.56363   0.00000  Uiso   1.00
C570   C     0.25241   0.13857   0.56071   0.00000  Uiso   1.00
C571   C     0.12197   0.15648   0.91127   0.00000  Uiso   1.00
H572   H     0.14804   0.19095   0.58538   0.00000  Uiso   1.00
H573   H     0.08723   0.17576   0.56635   0.00000  Uiso   1.00
H574   H     0.02657   0.18051   0.52619   0.00000  Uiso   1.00
H575   H     0.20349   0.10809   0.86863   0.00000  Uiso   1.00
C576   C     0.20491   0.31233   0.75701   0.00000  Uiso   1.00
H577   H     0.23366   0.29654   0.76522   0.00000  Uiso   1.00
C578   C     0.20449   0.02157   0.75791   0.00000  Uiso   1.00
H579   H     0.23261   0.03792   0.76743   0.00000  Uiso   1.00
C580   C     0.16759   0.04252   0.74742   0.00000  Uiso   1.00
C581   C     0.13195   0.02108   0.73437   0.00000  Uiso   1.00
H582   H     0.10395   0.03717   0.72475   0.00000  Uiso   1.00
C583   C     0.13243   0.31173   0.73352   0.00000  Uiso   1.00
H584   H     0.10519   0.29522   0.72265   0.00000  Uiso   1.00
C585   C     0.16812   0.29081   0.74640   0.00000  Uiso   1.00
C586   C     0.31857   0.13766   0.72008   0.00000  Uiso   1.00
H587   H     0.30796   0.11442   0.69605   0.00000  Uiso   1.00
C588   C     0.03275   0.13712   0.72105   0.00000  Uiso   1.00
H589   H     0.05784   0.11340   0.69782   0.00000  Uiso   1.00
N590   N     0.04760   0.16668   0.75001   0.00000  Uiso   1.00
C591   C     0.01545   0.19699   0.77794   0.00000  Uiso   1.00
C592   C     0.30024   0.19542   0.78071   0.00000  Uiso   1.00
N593   N     0.28573   0.16665   0.75000   0.00000  Uiso   1.00
N594   N     0.03122   0.23214   0.80154   0.00000  Uiso   1.00
O595   O     0.02476   0.26946   0.78708   0.00000  Uiso   1.00
O596   O     0.04564   0.22776   0.84248   0.00000  Uiso   1.00
I597   I     0.25072   0.23550   0.83993   0.00000  Uiso   1.00
N598   N     0.03525   0.16686   0.92333   0.00000  Uiso   1.00
O599   O     0.33297   0.19291   0.94413   0.00000  Uiso   1.00
O600   O     0.02991   0.13569   0.89339   0.00000  Uiso   1.00
O601   O     0.46179   0.22775   0.75000   0.00000  Uiso   1.00
O602   O     0.53823   0.22774   0.75000   0.00000  Uiso   1.00
C603   C     0.50040   0.24665   0.74889   0.00000  Uiso   1.00
O604   O     0.44280   0.16666   0.82681   0.00000  Uiso   1.00
O605   O     0.51924   0.16665   0.82681   0.00000  Uiso   1.00
C606   C     0.47312   0.16315   0.85208   0.00000  Uiso   1.00
Zn607  Zn    0.44896   0.16667   0.75000   0.00000  Uiso   1.00
Zn608  Zn    0.55104   0.16666   0.75000   0.00000  Uiso   1.00
O609   O     0.46177   0.10559   0.74999   0.00000  Uiso   1.00
O610   O     0.53821   0.10558   0.74999   0.00000  Uiso   1.00
O611   O     0.48076   0.16668   0.67319   0.00000  Uiso   1.00
O612   O     0.55720   0.16667   0.67319   0.00000  Uiso   1.00
C613   C     0.50019   0.08669   0.74933   0.00000  Uiso   1.00
C614   C     0.52682   0.16644   0.64782   0.00000  Uiso   1.00
C615   C     0.59383   0.12454   0.50750   0.00000  Uiso   1.00
H616   H     0.61103   0.13040   0.58033   0.00000  Uiso   1.00
H617   H     0.59744   0.09740   0.90913   0.00000  Uiso   1.00
H618   H     0.62621   0.10687   0.98602   0.00000  Uiso   1.00
C619   C     0.54358   0.16078   0.58912   0.00000  Uiso   1.00
C620   C     0.40719   0.16616   0.94442   0.00000  Uiso   1.00
C621   C     0.39632   0.17305   0.50011   0.00000  Uiso   1.00
C622   C     0.43186   0.17028   0.52296   0.00000  Uiso   1.00
C623   C     0.47889   0.15706   0.99124   0.00000  Uiso   1.00
C624   C     0.48860   0.14540   0.93637   0.00000  Uiso   1.00
C625   C     0.51604   0.15340   0.51296   0.00000  Uiso   1.00
C626   C     0.55892   0.13133   0.98361   0.00000  Uiso   1.00
C627   C     0.56549   0.11527   0.93171   0.00000  Uiso   1.00
C628   C     0.53090   0.12230   0.90827   0.00000  Uiso   1.00
C629   C     0.51132   0.17080   0.56363   0.00000  Uiso   1.00
C630   C     0.58574   0.13857   0.56071   0.00000  Uiso   1.00
C631   C     0.45530   0.15648   0.91127   0.00000  Uiso   1.00
H632   H     0.48138   0.19095   0.58538   0.00000  Uiso   1.00
H633   H     0.42056   0.17576   0.56635   0.00000  Uiso   1.00
H634   H     0.35991   0.18051   0.52619   0.00000  Uiso   1.00
H635   H     0.53682   0.10809   0.86863   0.00000  Uiso   1.00
C636   C     0.53824   0.31233   0.75701   0.00000  Uiso   1.00
H637   H     0.56699   0.29654   0.76522   0.00000  Uiso   1.00
C638   C     0.53782   0.02157   0.75791   0.00000  Uiso   1.00
H639   H     0.56595   0.03792   0.76743   0.00000  Uiso   1.00
C640   C     0.50093   0.04252   0.74742   0.00000  Uiso   1.00
C641   C     0.46528   0.02108   0.73437   0.00000  Uiso   1.00
H642   H     0.43728   0.03717   0.72475   0.00000  Uiso   1.00
C643   C     0.46576   0.31173   0.73352   0.00000  Uiso   1.00
H644   H     0.43852   0.29522   0.72265   0.00000  Uiso   1.00
C645   C     0.50146   0.29081   0.74640   0.00000  Uiso   1.00
C646   C     0.65191   0.13766   0.72008   0.00000  Uiso   1.00
H647   H     0.64129   0.11442   0.69605   0.00000  Uiso   1.00
C648   C     0.36609   0.13712   0.72105   0.00000  Uiso   1.00
H649   H     0.39117   0.11340   0.69782   0.00000  Uiso   1.00
N650   N     0.38093   0.16668   0.75001   0.00000  Uiso   1.00
C651   C     0.34878   0.19699   0.77794   0.00000  Uiso   1.00
C652   C     0.63358   0.19542   0.78071   0.00000  Uiso   1.00
N653   N     0.61906   0.16665   0.75000   0.00000  Uiso   1.00
N654   N     0.36455   0.23214   0.80154   0.00000  Uiso   1.00
O655   O     0.35810   0.26946   0.78708   0.00000  Uiso   1.00
O656   O     0.37898   0.22776   0.84248   0.00000  Uiso   1.00
I657   I     0.58405   0.23550   0.83993   0.00000  Uiso   1.00
N658   N     0.36858   0.16686   0.92333   0.00000  Uiso   1.00
O659   O     0.66630   0.19291   0.94413   0.00000  Uiso   1.00
O660   O     0.36325   0.13569   0.89339   0.00000  Uiso   1.00
O661   O     0.79512   0.22775   0.75000   0.00000  Uiso   1.00
O662   O     0.87157   0.22774   0.75000   0.00000  Uiso   1.00
C663   C     0.83374   0.24665   0.74889   0.00000  Uiso   1.00
O664   O     0.77613   0.16666   0.82681   0.00000  Uiso   1.00
O665   O     0.85258   0.16665   0.82681   0.00000  Uiso   1.00
C666   C     0.80646   0.16315   0.85208   0.00000  Uiso   1.00
Zn667  Zn    0.78229   0.16667   0.75000   0.00000  Uiso   1.00
Zn668  Zn    0.88438   0.16666   0.75000   0.00000  Uiso   1.00
O669   O     0.79510   0.10559   0.74999   0.00000  Uiso   1.00
O670   O     0.87154   0.10558   0.74999   0.00000  Uiso   1.00
O671   O     0.81409   0.16668   0.67319   0.00000  Uiso   1.00
O672   O     0.89053   0.16667   0.67319   0.00000  Uiso   1.00
C673   C     0.83353   0.08669   0.74933   0.00000  Uiso   1.00
C674   C     0.86015   0.16644   0.64782   0.00000  Uiso   1.00
C675   C     0.92716   0.12454   0.50750   0.00000  Uiso   1.00
H676   H     0.94437   0.13040   0.58033   0.00000  Uiso   1.00
H677   H     0.93077   0.09740   0.90913   0.00000  Uiso   1.00
H678   H     0.95954   0.10687   0.98602   0.00000  Uiso   1.00
C679   C     0.87691   0.16078   0.58912   0.00000  Uiso   1.00
C680   C     0.74052   0.16616   0.94442   0.00000  Uiso   1.00
C681   C     0.72965   0.17305   0.50011   0.00000  Uiso   1.00
C682   C     0.76519   0.17028   0.52296   0.00000  Uiso   1.00
C683   C     0.81222   0.15706   0.99124   0.00000  Uiso   1.00
C684   C     0.82194   0.14540   0.93637   0.00000  Uiso   1.00
C685   C     0.84937   0.15340   0.51296   0.00000  Uiso   1.00
C686   C     0.89226   0.13133   0.98361   0.00000  Uiso   1.00
C687   C     0.89882   0.11527   0.93171   0.00000  Uiso   1.00
C688   C     0.86423   0.12230   0.90827   0.00000  Uiso   1.00
C689   C     0.84465   0.17080   0.56363   0.00000  Uiso   1.00
C690   C     0.91908   0.13857   0.56071   0.00000  Uiso   1.00
C691   C     0.78863   0.15648   0.91127   0.00000  Uiso   1.00
H692   H     0.81471   0.19095   0.58538   0.00000  Uiso   1.00
H693   H     0.75390   0.17576   0.56635   0.00000  Uiso   1.00
H694   H     0.69324   0.18051   0.52619   0.00000  Uiso   1.00
H695   H     0.87015   0.10809   0.86863   0.00000  Uiso   1.00
C696   C     0.87158   0.31233   0.75701   0.00000  Uiso   1.00
H697   H     0.90033   0.29654   0.76522   0.00000  Uiso   1.00
C698   C     0.87115   0.02157   0.75791   0.00000  Uiso   1.00
H699   H     0.89928   0.03792   0.76743   0.00000  Uiso   1.00
C700   C     0.83426   0.04252   0.74742   0.00000  Uiso   1.00
C701   C     0.79861   0.02108   0.73437   0.00000  Uiso   1.00
H702   H     0.77062   0.03717   0.72475   0.00000  Uiso   1.00
C703   C     0.79909   0.31173   0.73352   0.00000  Uiso   1.00
H704   H     0.77185   0.29522   0.72265   0.00000  Uiso   1.00
C705   C     0.83479   0.29081   0.74640   0.00000  Uiso   1.00
C706   C     0.98524   0.13766   0.72008   0.00000  Uiso   1.00
H707   H     0.97462   0.11442   0.69605   0.00000  Uiso   1.00
C708   C     0.69942   0.13712   0.72105   0.00000  Uiso   1.00
H709   H     0.72450   0.11340   0.69782   0.00000  Uiso   1.00
N710   N     0.71426   0.16668   0.75001   0.00000  Uiso   1.00
C711   C     0.68212   0.19699   0.77794   0.00000  Uiso   1.00
C712   C     0.96691   0.19542   0.78071   0.00000  Uiso   1.00
N713   N     0.95239   0.16665   0.75000   0.00000  Uiso   1.00
N714   N     0.69788   0.23214   0.80154   0.00000  Uiso   1.00
O715   O     0.69143   0.26946   0.78708   0.00000  Uiso   1.00
O716   O     0.71231   0.22776   0.84248   0.00000  Uiso   1.00
I717   I     0.91738   0.23550   0.83993   0.00000  Uiso   1.00
N718   N     0.70191   0.16686   0.92333   0.00000  Uiso   1.00
O719   O     0.99964   0.19291   0.94413   0.00000  Uiso   1.00
O720   O     0.69658   0.13569   0.89339   0.00000  Uiso   1.00
O721   O     0.12846   0.56108   0.75000   0.00000  Uiso   1.00
O722   O     0.20490   0.56107   0.75000   0.00000  Uiso   1.00
C723   C     0.16707   0.57998   0.74889   0.00000  Uiso   1.00
O724   O     0.10947   0.50000   0.82681   0.00000  Uiso   1.00
O725   O     0.18591   0.49999   0.82681   0.00000  Uiso   1.00
C726   C     0.13979   0.49648   0.85208   0.00000  Uiso   1.00
Zn727  Zn    0.11562   0.50001   0.75000   0.00000  Uiso   1.00
Zn728  Zn    0.21771   0.49999   0.75000   0.00000  Uiso   1.00
O729   O     0.12843   0.43893   0.74999   0.00000  Uiso   1.00
O730   O     0.20488   0.43892   0.74999   0.00000  Uiso   1.00
O731   O     0.14742   0.50001   0.67319   0.00000  Uiso   1.00
O732   O     0.22387   0.50000   0.67319   0.00000  Uiso   1.00
C733   C     0.16686   0.42002   0.74933   0.00000  Uiso   1.00
C734   C     0.19349   0.49977   0.64782   0.00000  Uiso   1.00
C735   C     0.26050   0.45788   0.50750   0.00000  Uiso   1.00
H736   H     0.27770   0.46373   0.58033   0.00000  Uiso   1.00
H737   H     0.26410   0.43073   0.90913   0.00000  Uiso   1.00
H738   H     0.29287   0.44020   0.98602   0.00000  Uiso   1.00
C739   C     0.21024   0.49412   0.58912   0.00000  Uiso   1.00
C740   C     0.07386   0.49949   0.94442   0.00000  Uiso   1.00
C741   C     0.06299   0.50639   0.50011   0.00000  Uiso   1.00
C742   C     0.09852   0.50362   0.52296   0.00000  Uiso   1.00
C743   C     0.14556   0.49040   0.99124   0.00000  Uiso   1.00
C744   C     0.15527   0.47874   0.93637   0.00000  Uiso   1.00
C745   C     0.18271   0.48673   0.51296   0.00000  Uiso   1.00
C746   C     0.22559   0.46466   0.98361   0.00000  Uiso   1.00
C747   C     0.23216   0.44861   0.93171   0.00000  Uiso   1.00
C748   C     0.19756   0.45563   0.90827   0.00000  Uiso   1.00
C749   C     0.17798   0.50413   0.56363   0.00000  Uiso   1.00
C750   C     0.25241   0.47190   0.56071   0.00000  Uiso   1.00
C751   C     0.12197   0.48981   0.91127   0.00000  Uiso   1.00
H752   H     0.14804   0.52428   0.58538   0.00000  Uiso   1.00
H753   H     0.08723   0.50909   0.56635   0.00000  Uiso   1.00
H754   H     0.02657   0.51385   0.52619   0.00000  Uiso   1.00
H755   H     0.20349   0.44142   0.86863   0.00000  Uiso   1.00
C756   C     0.20491   0.64567   0.75701   0.00000  Uiso   1.00
H757   H     0.23366   0.62987   0.76522   0.00000  Uiso   1.00
C758   C     0.20449   0.35490   0.75791   0.00000  Uiso   1.00
H759   H     0.23261   0.37126   0.76743   0.00000  Uiso   1.00
C760   C     0.16759   0.37585   0.74742   0.00000  Uiso   1.00
C761   C     0.13195   0.35442   0.73437   0.00000  Uiso   1.00
H762   H     0.10395   0.37050   0.72475   0.00000  Uiso   1.00
C763   C     0.13243   0.64506   0.73352   0.00000  Uiso   1.00
H764   H     0.10519   0.62855   0.72265   0.00000  Uiso   1.00
C765   C     0.16812   0.62414   0.74640   0.00000  Uiso   1.00
C766   C     0.31857   0.47100   0.72008   0.00000  Uiso   1.00
H767   H     0.30796   0.44776   0.69605   0.00000  Uiso   1.00
C768   C     0.03275   0.47046   0.72105   0.00000  Uiso   1.00
H769   H     0.05784   0.44673   0.69782   0.00000  Uiso   1.00
N770   N     0.04760   0.50001   0.75001   0.00000  Uiso   1.00
C771   C     0.01545   0.53032   0.77794   0.00000  Uiso   1.00
C772   C     0.30024   0.52876   0.78071   0.00000  Uiso   1.00
N773   N     0.28573   0.49998   0.75000   0.00000  Uiso   1.00
N774   N     0.03122   0.56548   0.80154   0.00000  Uiso   1.00
O775   O     0.02476   0.60279   0.78708   0.00000  Uiso   1.00
O776   O     0.04564   0.56110   0.84248   0.00000  Uiso   1.00
I777   I     0.25072   0.56883   0.83993   0.00000  Uiso   1.00
N778   N     0.03525   0.50019   0.92333   0.00000  Uiso   1.00
O779   O     0.33297   0.52624   0.94413   0.00000  Uiso   1.00
O780   O     0.02991   0.46903   0.89339   0.00000  Uiso   1.00
O781   O     0.46179   0.56108   0.75000   0.00000  Uiso   1.00
O782   O     0.53823   0.56107   0.75000   0.00000  Uiso   1.00
C783   C     0.50040   0.57998   0.74889   0.00000  Uiso   1.00
O784   O     0.44280   0.50000   0.82681   0.00000  Uiso   1.00
O785   O     0.51924   0.49999   0.82681   0.00000  Uiso   1.00
C786   C     0.47312   0.49648   0.85208   0.00000  Uiso   1.00
Zn787  Zn    0.44896   0.50001   0.75000   0.00000  Uiso   1.00
Zn788  Zn    0.55104   0.49999   0.75000   0.00000  Uiso   1.00
O789   O     0.46177   0.43893   0.74999   0.00000  Uiso   1.00
O790   O     0.53821   0.43892   0.74999   0.00000  Uiso   1.00
O791   O     0.48076   0.50001   0.67319   0.00000  Uiso   1.00
O792   O     0.55720   0.50000   0.67319   0.00000  Uiso   1.00
C793   C     0.50019   0.42002   0.74933   0.00000  Uiso   1.00
C794   C     0.52682   0.49977   0.64782   0.00000  Uiso   1.00
C795   C     0.59383   0.45788   0.50750   0.00000  Uiso   1.00
H796   H     0.61103   0.46373   0.58033   0.00000  Uiso   1.00
H797   H     0.59744   0.43073   0.90913   0.00000  Uiso   1.00
H798   H     0.62621   0.44020   0.98602   0.00000  Uiso   1.00
C799   C     0.54358   0.49412   0.58912   0.00000  Uiso   1.00
C800   C     0.40719   0.49949   0.94442   0.00000  Uiso   1.00
C801   C     0.39632   0.50639   0.50011   0.00000  Uiso   1.00
C802   C     0.43186   0.50362   0.52296   0.00000  Uiso   1.00
C803   C     0.47889   0.49040   0.99124   0.00000  Uiso   1.00
C804   C     0.48860   0.47874   0.93637   0.00000  Uiso   1.00
C805   C     0.51604   0.48673   0.51296   0.00000  Uiso   1.00
C806   C     0.55892   0.46466   0.98361   0.00000  Uiso   1.00
C807   C     0.56549   0.44861   0.93171   0.00000  Uiso   1.00
C808   C     0.53090   0.45563   0.90827   0.00000  Uiso   1.00
C809   C     0.51132   0.50413   0.56363   0.00000  Uiso   1.00
C810   C     0.58574   0.47190   0.56071   0.00000  Uiso   1.00
C811   C     0.45530   0.48981   0.91127   0.00000  Uiso   1.00
H812   H     0.48138   0.52428   0.58538   0.00000  Uiso   1.00
H813   H     0.42056   0.50909   0.56635   0.00000  Uiso   1.00
H814   H     0.35991   0.51385   0.52619   0.00000  Uiso   1.00
H815   H     0.53682   0.44142   0.86863   0.00000  Uiso   1.00
C816   C     0.53824   0.64567   0.75701   0.00000  Uiso   1.00
H817   H     0.56699   0.62987   0.76522   0.00000  Uiso   1.00
C818   C     0.53782   0.35490   0.75791   0.00000  Uiso   1.00
H819   H     0.56595   0.37126   0.76743   0.00000  Uiso   1.00
C820   C     0.50093   0.37585   0.74742   0.00000  Uiso   1.00
C821   C     0.46528   0.35442   0.73437   0.00000  Uiso   1.00
H822   H     0.43728   0.37050   0.72475   0.00000  Uiso   1.00
C823   C     0.46576   0.64506   0.73352   0.00000  Uiso   1.00
H824   H     0.43852   0.62855   0.72265   0.00000  Uiso   1.00
C825   C     0.50146   0.62414   0.74640   0.00000  Uiso   1.00
C826   C     0.65191   0.47100   0.72008   0.00000  Uiso   1.00
H827   H     0.64129   0.44776   0.69605   0.00000  Uiso   1.00
C828   C     0.36609   0.47046   0.72105   0.00000  Uiso   1.00
H829   H     0.39117   0.44673   0.69782   0.00000  Uiso   1.00
N830   N     0.38093   0.50001   0.75001   0.00000  Uiso   1.00
C831   C     0.34878   0.53032   0.77794   0.00000  Uiso   1.00
C832   C     0.63358   0.52876   0.78071   0.00000  Uiso   1.00
N833   N     0.61906   0.49998   0.75000   0.00000  Uiso   1.00
N834   N     0.36455   0.56548   0.80154   0.00000  Uiso   1.00
O835   O     0.35810   0.60279   0.78708   0.00000  Uiso   1.00
O836   O     0.37898   0.56110   0.84248   0.00000  Uiso   1.00
I837   I     0.58405   0.56883   0.83993   0.00000  Uiso   1.00
N838   N     0.36858   0.50019   0.92333   0.00000  Uiso   1.00
O839   O     0.66630   0.52624   0.94413   0.00000  Uiso   1.00
O840   O     0.36325   0.46903   0.89339   0.00000  Uiso   1.00
O841   O     0.79512   0.56108   0.75000   0.00000  Uiso   1.00
O842   O     0.87157   0.56107   0.75000   0.00000  Uiso   1.00
C843   C     0.83374   0.57998   0.74889   0.00000  Uiso   1.00
O844   O     0.77613   0.50000   0.82681   0.00000  Uiso   1.00
O845   O     0.85258   0.49999   0.82681   0.00000  Uiso   1.00
C846   C     0.80646   0.49648   0.85208   0.00000  Uiso   1.00
Zn847  Zn    0.78229   0.50001   0.75000   0.00000  Uiso   1.00
Zn848  Zn    0.88438   0.49999   0.75000   0.00000  Uiso   1.00
O849   O     0.79510   0.43893   0.74999   0.00000  Uiso   1.00
O850   O     0.87154   0.43892   0.74999   0.00000  Uiso   1.00
O851   O     0.81409   0.50001   0.67319   0.00000  Uiso   1.00
O852   O     0.89053   0.50000   0.67319   0.00000  Uiso   1.00
C853   C     0.83353   0.42002   0.74933   0.00000  Uiso   1.00
C854   C     0.86015   0.49977   0.64782   0.00000  Uiso   1.00
C855   C     0.92716   0.45788   0.50750   0.00000  Uiso   1.00
H856   H     0.94437   0.46373   0.58033   0.00000  Uiso   1.00
H857   H     0.93077   0.43073   0.90913   0.00000  Uiso   1.00
H858   H     0.95954   0.44020   0.98602   0.00000  Uiso   1.00
C859   C     0.87691   0.49412   0.58912   0.00000  Uiso   1.00
C860   C     0.74052   0.49949   0.94442   0.00000  Uiso   1.00
C861   C     0.72965   0.50639   0.50011   0.00000  Uiso   1.00
C862   C     0.76519   0.50362   0.52296   0.00000  Uiso   1.00
C863   C     0.81222   0.49040   0.99124   0.00000  Uiso   1.00
C864   C     0.82194   0.47874   0.93637   0.00000  Uiso   1.00
C865   C     0.84937   0.48673   0.51296   0.00000  Uiso   1.00
C866   C     0.89226   0.46466   0.98361   0.00000  Uiso   1.00
C867   C     0.89882   0.44861   0.93171   0.00000  Uiso   1.00
C868   C     0.86423   0.45563   0.90827   0.00000  Uiso   1.00
C869   C     0.84465   0.50413   0.56363   0.00000  Uiso   1.00
C870   C     0.91908   0.47190   0.56071   0.00000  Uiso   1.00
C871   C     0.78863   0.48981   0.91127   0.00000  Uiso   1.00
H872   H     0.81471   0.52428   0.58538   0.00000  Uiso   1.00
H873   H     0.75390   0.50909   0.56635   0.00000  Uiso   1.00
H874   H     0.69324   0.51385   0.52619   0.00000  Uiso   1.00
H875   H     0.87015   0.44142   0.86863   0.00000  Uiso   1.00
C876   C     0.87158   0.64567   0.75701   0.00000  Uiso   1.00
H877   H     0.90033   0.62987   0.76522   0.00000  Uiso   1.00
C878   C     0.87115   0.35490   0.75791   0.00000  Uiso   1.00
H879   H     0.89928   0.37126   0.76743   0.00000  Uiso   1.00
C880   C     0.83426   0.37585   0.74742   0.00000  Uiso   1.00
C881   C     0.79861   0.35442   0.73437   0.00000  Uiso   1.00
H882   H     0.77062   0.37050   0.72475   0.00000  Uiso   1.00
C883   C     0.79909   0.64506   0.73352   0.00000  Uiso   1.00
H884   H     0.77185   0.62855   0.72265   0.00000  Uiso   1.00
C885   C     0.83479   0.62414   0.74640   0.00000  Uiso   1.00
C886   C     0.98524   0.47100   0.72008   0.00000  Uiso   1.00
H887   H     0.97462   0.44776   0.69605   0.00000  Uiso   1.00
C888   C     0.69942   0.47046   0.72105   0.00000  Uiso   1.00
H889   H     0.72450   0.44673   0.69782   0.00000  Uiso   1.00
N890   N     0.71426   0.50001   0.75001   0.00000  Uiso   1.00
C891   C     0.68212   0.53032   0.77794   0.00000  Uiso   1.00
C892   C     0.96691   0.52876   0.78071   0.00000  Uiso   1.00
N893   N     0.95239   0.49998   0.75000   0.00000  Uiso   1.00
N894   N     0.69788   0.56548   0.80154   0.00000  Uiso   1.00
O895   O     0.69143   0.60279   0.78708   0.00000  Uiso   1.00
O896   O     0.71231   0.56110   0.84248   0.00000  Uiso   1.00
I897   I     0.91738   0.56883   0.83993   0.00000  Uiso   1.00
N898   N     0.70191   0.50019   0.92333   0.00000  Uiso   1.00
O899   O     0.99964   0.52624   0.94413   0.00000  Uiso   1.00
O900   O     0.69658   0.46903   0.89339   0.00000  Uiso   1.00
O901   O     0.12846   0.89442   0.75000   0.00000  Uiso   1.00
O902   O     0.20490   0.89441   0.75000   0.00000  Uiso   1.00
C903   C     0.16707   0.91331   0.74889   0.00000  Uiso   1.00
O904   O     0.10947   0.83333   0.82681   0.00000  Uiso   1.00
O905   O     0.18591   0.83332   0.82681   0.00000  Uiso   1.00
C906   C     0.13979   0.82981   0.85208   0.00000  Uiso   1.00
Zn907  Zn    0.11562   0.83334   0.75000   0.00000  Uiso   1.00
Zn908  Zn    0.21771   0.83333   0.75000   0.00000  Uiso   1.00
O909   O     0.12843   0.77226   0.74999   0.00000  Uiso   1.00
O910   O     0.20488   0.77225   0.74999   0.00000  Uiso   1.00
O911   O     0.14742   0.83335   0.67319   0.00000  Uiso   1.00
O912   O     0.22387   0.83334   0.67319   0.00000  Uiso   1.00
C913   C     0.16686   0.75335   0.74933   0.00000  Uiso   1.00
C914   C     0.19349   0.83310   0.64782   0.00000  Uiso   1.00
C915   C     0.26050   0.79121   0.50750   0.00000  Uiso   1.00
H916   H     0.27770   0.79706   0.58033   0.00000  Uiso   1.00
H917   H     0.26410   0.76407   0.90913   0.00000  Uiso   1.00
H918   H     0.29287   0.77354   0.98602   0.00000  Uiso   1.00
C919   C     0.21024   0.82745   0.58912   0.00000  Uiso   1.00
C920   C     0.07386   0.83283   0.94442   0.00000  Uiso   1.00
C921   C     0.06299   0.83972   0.50011   0.00000  Uiso   1.00
C922   C     0.09852   0.83695   0.52296   0.00000  Uiso   1.00
C923   C     0.14556   0.82373   0.99124   0.00000  Uiso   1.00
C924   C     0.15527   0.81207   0.93637   0.00000  Uiso   1.00
C925   C     0.18271   0.82006   0.51296   0.00000  Uiso   1.00
C926   C     0.22559   0.79799   0.98361   0.00000  Uiso   1.00
C927   C     0.23216   0.78194   0.93171   0.00000  Uiso   1.00
C928   C     0.19756   0.78897   0.90827   0.00000  Uiso   1.00
C929   C     0.17798   0.83746   0.56363   0.00000  Uiso   1.00
C930   C     0.25241   0.80524   0.56071   0.00000  Uiso   1.00
C931   C     0.12197   0.82315   0.91127   0.00000  Uiso   1.00
H932   H     0.14804   0.85761   0.58538   0.00000  Uiso   1.00
H933   H     0.08723   0.84242   0.56635   0.00000  Uiso   1.00
H934   H     0.02657   0.84718   0.52619   0.00000  Uiso   1.00
H935   H     0.20349   0.77476   0.86863   0.00000  Uiso   1.00
C936   C     0.20491   0.97900   0.75701   0.00000  Uiso   1.00
H937   H     0.23366   0.96320   0.76522   0.00000  Uiso   1.00
C938   C     0.20449   0.68824   0.75791   0.00000  Uiso   1.00
H939   H     0.23261   0.70459   0.76743   0.00000  Uiso   1.00
C940   C     0.16759   0.70919   0.74742   0.00000  Uiso   1.00
C941   C     0.13195   0.68775   0.73437   0.00000  Uiso   1.00
H942   H     0.10395   0.70383   0.72475   0.00000  Uiso   1.00
C943   C     0.13243   0.97839   0.73352   0.00000  Uiso   1.00
H944   H     0.10519   0.96189   0.72265   0.00000  Uiso   1.00
C945   C     0.16812   0.95748   0.74640   0.00000  Uiso   1.00
C946   C     0.31857   0.80433   0.72008   0.00000  Uiso   1.00
H947   H     0.30796   0.78109   0.69605   0.00000  Uiso   1.00
C948   C     0.03275   0.80379   0.72105   0.00000  Uiso   1.00
H949   H     0.05784   0.78006   0.69782   0.00000  Uiso   1.00
N950   N     0.04760   0.83334   0.75001   0.00000  Uiso   1.00
C951   C     0.01545   0.86365   0.77794   0.00000  Uiso   1.00
C952   C     0.30024   0.86209   0.78071   0.00000  Uiso   1.00
N953   N     0.28573   0.83331   0.75000   0.00000  Uiso   1.00
N954   N     0.03122   0.89881   0.80154   0.00000  Uiso   1.00
O955   O     0.02476   0.93613   0.78708   0.00000  Uiso   1.00
O956   O     0.04564   0.89443   0.84248   0.00000  Uiso   1.00
I957   I     0.25072   0.90216   0.83993   0.00000  Uiso   1.00
N958   N     0.03525   0.83353   0.92333   0.00000  Uiso   1.00
O959   O     0.33297   0.85958   0.94413   0.00000  Uiso   1.00
O960   O     0.02991   0.80236   0.89339   0.00000  Uiso   1.00
O961   O     0.46179   0.89442   0.75000   0.00000  Uiso   1.00
O962   O     0.53823   0.89441   0.75000   0.00000  Uiso   1.00
C963   C     0.50040   0.91331   0.74889   0.00000  Uiso   1.00
O964   O     0.44280   0.83333   0.82681   0.00000  Uiso   1.00
O965   O     0.51924   0.83332   0.82681   0.00000  Uiso   1.00
C966   C     0.47312   0.82981   0.85208   0.00000  Uiso   1.00
Zn967  Zn    0.44896   0.83334   0.75000   0.00000  Uiso   1.00
Zn968  Zn    0.55104   0.83333   0.75000   0.00000  Uiso   1.00
O969   O     0.46177   0.77226   0.74999   0.00000  Uiso   1.00
O970   O     0.53821   0.77225   0.74999   0.00000  Uiso   1.00
O971   O     0.48076   0.83335   0.67319   0.00000  Uiso   1.00
O972   O     0.55720   0.83334   0.67319   0.00000  Uiso   1.00
C973   C     0.50019   0.75335   0.74933   0.00000  Uiso   1.00
C974   C     0.52682   0.83310   0.64782   0.00000  Uiso   1.00
C975   C     0.59383   0.79121   0.50750   0.00000  Uiso   1.00
H976   H     0.61103   0.79706   0.58033   0.00000  Uiso   1.00
H977   H     0.59744   0.76407   0.90913   0.00000  Uiso   1.00
H978   H     0.62621   0.77354   0.98602   0.00000  Uiso   1.00
C979   C     0.54358   0.82745   0.58912   0.00000  Uiso   1.00
C980   C     0.40719   0.83283   0.94442   0.00000  Uiso   1.00
C981   C     0.39632   0.83972   0.50011   0.00000  Uiso   1.00
C982   C     0.43186   0.83695   0.52296   0.00000  Uiso   1.00
C983   C     0.47889   0.82373   0.99124   0.00000  Uiso   1.00
C984   C     0.48860   0.81207   0.93637   0.00000  Uiso   1.00
C985   C     0.51604   0.82006   0.51296   0.00000  Uiso   1.00
C986   C     0.55892   0.79799   0.98361   0.00000  Uiso   1.00
C987   C     0.56549   0.78194   0.93171   0.00000  Uiso   1.00
C988   C     0.53090   0.78897   0.90827   0.00000  Uiso   1.00
C989   C     0.51132   0.83746   0.56363   0.00000  Uiso   1.00
C990   C     0.58574   0.80524   0.56071   0.00000  Uiso   1.00
C991   C     0.45530   0.82315   0.91127   0.00000  Uiso   1.00
H992   H     0.48138   0.85761   0.58538   0.00000  Uiso   1.00
H993   H     0.42056   0.84242   0.56635   0.00000  Uiso   1.00
H994   H     0.35991   0.84718   0.52619   0.00000  Uiso   1.00
H995   H     0.53682   0.77476   0.86863   0.00000  Uiso   1.00
C996   C     0.53824   0.97900   0.75701   0.00000  Uiso   1.00
H997   H     0.56699   0.96320   0.76522   0.00000  Uiso   1.00
C998   C     0.53782   0.68824   0.75791   0.00000  Uiso   1.00
H999   H     0.56595   0.70459   0.76743   0.00000  Uiso   1.00
C1000  C     0.50093   0.70919   0.74742   0.00000  Uiso   1.00
C1001  C     0.46528   0.68775   0.73437   0.00000  Uiso   1.00
H1002  H     0.43728   0.70383   0.72475   0.00000  Uiso   1.00
C1003  C     0.46576   0.97839   0.73352   0.00000  Uiso   1.00
H1004  H     0.43852   0.96189   0.72265   0.00000  Uiso   1.00
C1005  C     0.50146   0.95748   0.74640   0.00000  Uiso   1.00
C1006  C     0.65191   0.80433   0.72008   0.00000  Uiso   1.00
H1007  H     0.64129   0.78109   0.69605   0.00000  Uiso   1.00
C1008  C     0.36609   0.80379   0.72105   0.00000  Uiso   1.00
H1009  H     0.39117   0.78006   0.69782   0.00000  Uiso   1.00
N1010  N     0.38093   0.83334   0.75001   0.00000  Uiso   1.00
C1011  C     0.34878   0.86365   0.77794   0.00000  Uiso   1.00
C1012  C     0.63358   0.86209   0.78071   0.00000  Uiso   1.00
N1013  N     0.61906   0.83331   0.75000   0.00000  Uiso   1.00
N1014  N     0.36455   0.89881   0.80154   0.00000  Uiso   1.00
O1015  O     0.35810   0.93613   0.78708   0.00000  Uiso   1.00
O1016  O     0.37898   0.89443   0.84248   0.00000  Uiso   1.00
I1017  I     0.58405   0.90216   0.83993   0.00000  Uiso   1.00
N1018  N     0.36858   0.83353   0.92333   0.00000  Uiso   1.00
O1019  O     0.66630   0.85958   0.94413   0.00000  Uiso   1.00
O1020  O     0.36325   0.80236   0.89339   0.00000  Uiso   1.00
O1021  O     0.79512   0.89442   0.75000   0.00000  Uiso   1.00
O1022  O     0.87157   0.89441   0.75000   0.00000  Uiso   1.00
C1023  C     0.83374   0.91331   0.74889   0.00000  Uiso   1.00
O1024  O     0.77613   0.83333   0.82681   0.00000  Uiso   1.00
O1025  O     0.85258   0.83332   0.82681   0.00000  Uiso   1.00
C1026  C     0.80646   0.82981   0.85208   0.00000  Uiso   1.00
Zn1027 Zn    0.78229   0.83334   0.75000   0.00000  Uiso   1.00
Zn1028 Zn    0.88438   0.83333   0.75000   0.00000  Uiso   1.00
O1029  O     0.79510   0.77226   0.74999   0.00000  Uiso   1.00
O1030  O     0.87154   0.77225   0.74999   0.00000  Uiso   1.00
O1031  O     0.81409   0.83335   0.67319   0.00000  Uiso   1.00
O1032  O     0.89053   0.83334   0.67319   0.00000  Uiso   1.00
C1033  C     0.83353   0.75335   0.74933   0.00000  Uiso   1.00
C1034  C     0.86015   0.83310   0.64782   0.00000  Uiso   1.00
C1035  C     0.92716   0.79121   0.50750   0.00000  Uiso   1.00
H1036  H     0.94437   0.79706   0.58033   0.00000  Uiso   1.00
H1037  H     0.93077   0.76407   0.90913   0.00000  Uiso   1.00
H1038  H     0.95954   0.77354   0.98602   0.00000  Uiso   1.00
C1039  C     0.87691   0.82745   0.58912   0.00000  Uiso   1.00
C1040  C     0.74052   0.83283   0.94442   0.00000  Uiso   1.00
C1041  C     0.72965   0.83972   0.50011   0.00000  Uiso   1.00
C1042  C     0.76519   0.83695   0.52296   0.00000  Uiso   1.00
C1043  C     0.81222   0.82373   0.99124   0.00000  Uiso   1.00
C1044  C     0.82194   0.81207   0.93637   0.00000  Uiso   1.00
C1045  C     0.84937   0.82006   0.51296   0.00000  Uiso   1.00
C1046  C     0.89226   0.79799   0.98361   0.00000  Uiso   1.00
C1047  C     0.89882   0.78194   0.93171   0.00000  Uiso   1.00
C1048  C     0.86423   0.78897   0.90827   0.00000  Uiso   1.00
C1049  C     0.84465   0.83746   0.56363   0.00000  Uiso   1.00
C1050  C     0.91908   0.80524   0.56071   0.00000  Uiso   1.00
C1051  C     0.78863   0.82315   0.91127   0.00000  Uiso   1.00
H1052  H     0.81471   0.85761   0.58538   0.00000  Uiso   1.00
H1053  H     0.75390   0.84242   0.56635   0.00000  Uiso   1.00
H1054  H     0.69324   0.84718   0.52619   0.00000  Uiso   1.00
H1055  H     0.87015   0.77476   0.86863   0.00000  Uiso   1.00
C1056  C     0.87158   0.97900   0.75701   0.00000  Uiso   1.00
H1057  H     0.90033   0.96320   0.76522   0.00000  Uiso   1.00
C1058  C     0.87115   0.68824   0.75791   0.00000  Uiso   1.00
H1059  H     0.89928   0.70459   0.76743   0.00000  Uiso   1.00
C1060  C     0.83426   0.70919   0.74742   0.00000  Uiso   1.00
C1061  C     0.79861   0.68775   0.73437   0.00000  Uiso   1.00
H1062  H     0.77062   0.70383   0.72475   0.00000  Uiso   1.00
C1063  C     0.79909   0.97839   0.73352   0.00000  Uiso   1.00
H1064  H     0.77185   0.96189   0.72265   0.00000  Uiso   1.00
C1065  C     0.83479   0.95748   0.74640   0.00000  Uiso   1.00
C1066  C     0.98524   0.80433   0.72008   0.00000  Uiso   1.00
H1067  H     0.97462   0.78109   0.69605   0.00000  Uiso   1.00
C1068  C     0.69942   0.80379   0.72105   0.00000  Uiso   1.00
H1069  H     0.72450   0.78006   0.69782   0.00000  Uiso   1.00
N1070  N     0.71426   0.83334   0.75001   0.00000  Uiso   1.00
C1071  C     0.68212   0.86365   0.77794   0.00000  Uiso   1.00
C1072  C     0.96691   0.86209   0.78071   0.00000  Uiso   1.00
N1073  N     0.95239   0.83331   0.75000   0.00000  Uiso   1.00
N1074  N     0.69788   0.89881   0.80154   0.00000  Uiso   1.00
O1075  O     0.69143   0.93613   0.78708   0.00000  Uiso   1.00
O1076  O     0.71231   0.89443   0.84248   0.00000  Uiso   1.00
I1077  I     0.91738   0.90216   0.83993   0.00000  Uiso   1.00
N1078  N     0.70191   0.83353   0.92333   0.00000  Uiso   1.00
O1079  O     0.99964   0.85958   0.94413   0.00000  Uiso   1.00
O1080  O     0.69658   0.80236   0.89339   0.00000  Uiso   1.00
loop_
_geom_bond_atom_site_label_1
_geom_bond_atom_site_label_2
_geom_bond_distance
_geom_bond_site_symmetry_2
_ccdc_geom_bond_type
O1     C3      1.289   .     A
O1     Zn7     2.000   .     S
O2     C3      1.287   .     A
O2     Zn8     2.000   .     S
C3     C45     1.423   .     S
O4     Zn7     1.959   .     S
O4     C6      1.297   .     A
O5     Zn8     1.906   .     S
O5     C6      1.304   .     A
C6     C31     1.478   .     S
Zn7    O11     1.906   .     S
Zn7    N50     2.020   .     S
Zn7    O9      2.000   .     S
Zn8    N53     2.020   .     S
Zn8    O12     1.959   .     S
Zn8    O10     2.000   .     S
O9     C13     1.288   .     A
O10    C13     1.287   .     A
O11    C14     1.297   .     A
O12    C14     1.294   .     A
C13    C40     1.420   .     S
C14    C19     1.451   .     S
C15    C30     1.395   .     A
C15    H558    1.083   1_554 S
C15    C566    1.405   1_554 S
H16    C30     1.083   .     S
H17    C27     1.084   .     S
H18    C555    1.083   .     S
C19    C30     1.400   .     A
C19    C29     1.387   .     A
C20    N58     1.436   .     S
C20    C31     1.421   .     A
C20    C561    1.395   .     S
C21    C22     1.387   .     A
C21    H34     1.083   .     S
C21    C560    1.395   1_554 S
C22    H33     1.079   .     S
C22    C563    1.414   1_554 S
C23    C24     1.407   .     A
C23    C562    1.414   .     S
C23    C565    1.413   .     S
C24    C31     1.415   .     A
C24    C28     1.415   .     A
C25    C29     1.390   .     A
C25    C563    1.413   1_554 S
C25    C566    1.418   1_554 S
C26    C27     1.392   .     A
C26    C565    1.418   .     S
C26    C555    1.405   .     S
C27    C28     1.389   .     A
C28    H35     1.082   .     S
C29    H32     1.080   .     S
C36    C45     1.397   .     A
C36    H37     1.080   .     S
C36    C218    1.368   .     S
C38    C40     1.396   .     A
C38    H39     1.084   .     S
C38    C396    1.368   1_545 S
C40    C41     1.397   .     A
C41    H42     1.084   .     S
C41    C403    1.372   1_545 S
C43    C45     1.396   .     A
C43    H44     1.082   .     S
C43    C221    1.372   .     S
C46    N53     1.367   .     A
C46    H47     1.082   .     S
C46    C108    1.420   .     S
C48    H49     1.082   .     S
C48    N50     1.368   .     A
C48    C166    1.420   1_455 S
N50    C51     1.370   .     A
C51    N54     1.431   .     S
C51    C172    1.419   1_455 S
C52    N53     1.377   .     A
C52    I57     2.134   .     S
C52    C111    1.419   .     S
N54    O56     1.298   .     A
N54    O55     1.301   .     A
N58    O60     1.302   .     A
N58    O179    1.302   1_455 S
O59    N118    1.302   .     S
O61    C63     1.289   .     A
O61    Zn67    2.000   .     S
O62    C63     1.287   .     A
O62    Zn68    2.000   .     S
C63    C105    1.423   .     S
O64    Zn67    1.959   .     S
O64    C66     1.297   .     A
O65    Zn68    1.906   .     S
O65    C66     1.304   .     A
C66    C91     1.478   .     S
Zn67   O71     1.906   .     S
Zn67   N110    2.020   .     S
Zn67   O69     2.000   .     S
Zn68   N113    2.020   .     S
Zn68   O72     1.959   .     S
Zn68   O70     2.000   .     S
O69    C73     1.288   .     A
O70    C73     1.287   .     A
O71    C74     1.297   .     A
O72    C74     1.294   .     A
C73    C100    1.420   .     S
C74    C79     1.451   .     S
C75    C90     1.395   .     A
C75    H618    1.083   1_554 S
C75    C626    1.405   1_554 S
H76    C90     1.083   .     S
H77    C87     1.084   .     S
H78    C615    1.083   .     S
C79    C90     1.400   .     A
C79    C89     1.387   .     A
C80    N118    1.436   .     S
C80    C91     1.421   .     A
C80    C621    1.395   .     S
C81    C82     1.387   .     A
C81    H94     1.083   .     S
C81    C620    1.395   1_554 S
C82    H93     1.079   .     S
C82    C623    1.414   1_554 S
C83    C84     1.407   .     A
C83    C622    1.414   .     S
C83    C625    1.413   .     S
C84    C91     1.415   .     A
C84    C88     1.415   .     A
C85    C89     1.390   .     A
C85    C623    1.413   1_554 S
C85    C626    1.418   1_554 S
C86    C87     1.392   .     A
C86    C625    1.418   .     S
C86    C615    1.405   .     S
C87    C88     1.389   .     A
C88    H95     1.082   .     S
C89    H92     1.080   .     S
C96    C105    1.397   .     A
C96    H97     1.080   .     S
C96    C278    1.368   .     S
C98    C100    1.396   .     A
C98    H99     1.084   .     S
C98    C456    1.368   1_545 S
C100   C101    1.397   .     A
C101   H102    1.084   .     S
C101   C463    1.372   1_545 S
C103   C105    1.396   .     A
C103   H104    1.082   .     S
C103   C281    1.372   .     S
C106   N113    1.367   .     A
C106   H107    1.082   .     S
C106   C168    1.420   .     S
C108   H109    1.082   .     S
C108   N110    1.368   .     A
N110   C111    1.370   .     A
C111   N114    1.431   .     S
C112   N113    1.377   .     A
C112   I117    2.134   .     S
C112   C171    1.419   .     S
N114   O116    1.298   .     A
N114   O115    1.301   .     A
N118   O120    1.302   .     A
O119   N178    1.302   .     S
O121   C123    1.289   .     A
O121   Zn127   2.000   .     S
O122   C123    1.287   .     A
O122   Zn128   2.000   .     S
C123   C165    1.423   .     S
O124   Zn127   1.959   .     S
O124   C126    1.297   .     A
O125   Zn128   1.906   .     S
O125   C126    1.304   .     A
C126   C151    1.478   .     S
Zn127  O131    1.906   .     S
Zn127  N170    2.020   .     S
Zn127  O129    2.000   .     S
Zn128  N173    2.020   .     S
Zn128  O132    1.959   .     S
Zn128  O130    2.000   .     S
O129   C133    1.288   .     A
O130   C133    1.287   .     A
O131   C134    1.297   .     A
O132   C134    1.294   .     A
C133   C160    1.420   .     S
C134   C139    1.451   .     S
C135   C150    1.395   .     A
C135   H678    1.083   1_554 S
C135   C686    1.405   1_554 S
H136   C150    1.083   .     S
H137   C147    1.084   .     S
H138   C675    1.083   .     S
C139   C150    1.400   .     A
C139   C149    1.387   .     A
C140   N178    1.436   .     S
C140   C151    1.421   .     A
C140   C681    1.395   .     S
C141   C142    1.387   .     A
C141   H154    1.083   .     S
C141   C680    1.395   1_554 S
C142   H153    1.079   .     S
C142   C683    1.414   1_554 S
C143   C144    1.407   .     A
C143   C682    1.414   .     S
C143   C685    1.413   .     S
C144   C151    1.415   .     A
C144   C148    1.415   .     A
C145   C149    1.390   .     A
C145   C683    1.413   1_554 S
C145   C686    1.418   1_554 S
C146   C147    1.392   .     A
C146   C685    1.418   .     S
C146   C675    1.405   .     S
C147   C148    1.389   .     A
C148   H155    1.082   .     S
C149   H152    1.080   .     S
C156   C165    1.397   .     A
C156   H157    1.080   .     S
C156   C338    1.368   .     S
C158   C160    1.396   .     A
C158   H159    1.084   .     S
C158   C516    1.368   1_545 S
C160   C161    1.397   .     A
C161   H162    1.084   .     S
C161   C523    1.372   1_545 S
C163   C165    1.396   .     A
C163   H164    1.082   .     S
C163   C341    1.372   .     S
C166   N173    1.367   .     A
C166   H167    1.082   .     S
C166   C48     1.420   1_655 S
C168   H169    1.082   .     S
C168   N170    1.368   .     A
N170   C171    1.370   .     A
C171   N174    1.431   .     S
C172   N173    1.377   .     A
C172   I177    2.134   .     S
C172   C51     1.419   1_655 S
N174   O176    1.298   .     A
N174   O175    1.301   .     A
N178   O180    1.302   .     A
O179   N58     1.302   1_655 S
O181   C183    1.289   .     A
O181   Zn187   2.000   .     S
O182   C183    1.287   .     A
O182   Zn188   2.000   .     S
C183   C225    1.423   .     S
O184   Zn187   1.959   .     S
O184   C186    1.297   .     A
O185   Zn188   1.906   .     S
O185   C186    1.304   .     A
C186   C211    1.478   .     S
Zn187  O191    1.906   .     S
Zn187  N230    2.020   .     S
Zn187  O189    2.000   .     S
Zn188  N233    2.020   .     S
Zn188  O192    1.959   .     S
Zn188  O190    2.000   .     S
O189   C193    1.288   .     A
O190   C193    1.287   .     A
O191   C194    1.297   .     A
O192   C194    1.294   .     A
C193   C220    1.420   .     S
C194   C199    1.451   .     S
C195   C210    1.395   .     A
C195   H738    1.083   1_554 S
C195   C746    1.405   1_554 S
H196   C210    1.083   .     S
H197   C207    1.084   .     S
H198   C735    1.083   .     S
C199   C210    1.400   .     A
C199   C209    1.387   .     A
C200   N238    1.436   .     S
C200   C211    1.421   .     A
C200   C741    1.395   .     S
C201   C202    1.387   .     A
C201   H214    1.083   .     S
C201   C740    1.395   1_554 S
C202   H213    1.079   .     S
C202   C743    1.414   1_554 S
C203   C204    1.407   .     A
C203   C742    1.414   .     S
C203   C745    1.413   .     S
C204   C211    1.415   .     A
C204   C208    1.415   .     A
C205   C209    1.390   .     A
C205   C743    1.413   1_554 S
C205   C746    1.418   1_554 S
C206   C207    1.392   .     A
C206   C745    1.418   .     S
C206   C735    1.405   .     S
C207   C208    1.389   .     A
C208   H215    1.082   .     S
C209   H212    1.080   .     S
C216   C225    1.397   .     A
C216   H217    1.080   .     S
C216   C398    1.368   .     S
C218   C220    1.396   .     A
C218   H219    1.084   .     S
C220   C221    1.397   .     A
C221   H222    1.084   .     S
C223   C225    1.396   .     A
C223   H224    1.082   .     S
C223   C401    1.372   .     S
C226   N233    1.367   .     A
C226   H227    1.082   .     S
C226   C288    1.420   .     S
C228   H229    1.082   .     S
C228   N230    1.368   .     A
C228   C346    1.420   1_455 S
N230   C231    1.370   .     A
C231   N234    1.431   .     S
C231   C352    1.419   1_455 S
C232   N233    1.377   .     A
C232   I237    2.134   .     S
C232   C291    1.419   .     S
N234   O236    1.298   .     A
N234   O235    1.301   .     A
N238   O240    1.302   .     A
N238   O359    1.302   1_455 S
O239   N298    1.302   .     S
O241   C243    1.289   .     A
O241   Zn247   2.000   .     S
O242   C243    1.287   .     A
O242   Zn248   2.000   .     S
C243   C285    1.423   .     S
O244   Zn247   1.959   .     S
O244   C246    1.297   .     A
O245   Zn248   1.906   .     S
O245   C246    1.304   .     A
C246   C271    1.478   .     S
Zn247  O251    1.906   .     S
Zn247  N290    2.020   .     S
Zn247  O249    2.000   .     S
Zn248  N293    2.020   .     S
Zn248  O252    1.959   .     S
Zn248  O250    2.000   .     S
O249   C253    1.288   .     A
O250   C253    1.287   .     A
O251   C254    1.297   .     A
O252   C254    1.294   .     A
C253   C280    1.420   .     S
C254   C259    1.451   .     S
C255   C270    1.395   .     A
C255   H798    1.083   1_554 S
C255   C806    1.405   1_554 S
H256   C270    1.083   .     S
H257   C267    1.084   .     S
H258   C795    1.083   .     S
C259   C270    1.400   .     A
C259   C269    1.387   .     A
C260   N298    1.436   .     S
C260   C271    1.421   .     A
C260   C801    1.395   .     S
C261   C262    1.387   .     A
C261   H274    1.083   .     S
C261   C800    1.395   1_554 S
C262   H273    1.079   .     S
C262   C803    1.414   1_554 S
C263   C264    1.407   .     A
C263   C802    1.414   .     S
C263   C805    1.413   .     S
C264   C271    1.415   .     A
C264   C268    1.415   .     A
C265   C269    1.390   .     A
C265   C803    1.413   1_554 S
C265   C806    1.418   1_554 S
C266   C267    1.392   .     A
C266   C805    1.418   .     S
C266   C795    1.405   .     S
C267   C268    1.389   .     A
C268   H275    1.082   .     S
C269   H272    1.080   .     S
C276   C285    1.397   .     A
C276   H277    1.080   .     S
C276   C458    1.368   .     S
C278   C280    1.396   .     A
C278   H279    1.084   .     S
C280   C281    1.397   .     A
C281   H282    1.084   .     S
C283   C285    1.396   .     A
C283   H284    1.082   .     S
C283   C461    1.372   .     S
C286   N293    1.367   .     A
C286   H287    1.082   .     S
C286   C348    1.420   .     S
C288   H289    1.082   .     S
C288   N290    1.368   .     A
N290   C291    1.370   .     A
C291   N294    1.431   .     S
C292   N293    1.377   .     A
C292   I297    2.134   .     S
C292   C351    1.419   .     S
N294   O296    1.298   .     A
N294   O295    1.301   .     A
N298   O300    1.302   .     A
O299   N358    1.302   .     S
O301   C303    1.289   .     A
O301   Zn307   2.000   .     S
O302   C303    1.287   .     A
O302   Zn308   2.000   .     S
C303   C345    1.423   .     S
O304   Zn307   1.959   .     S
O304   C306    1.297   .     A
O305   Zn308   1.906   .     S
O305   C306    1.304   .     A
C306   C331    1.478   .     S
Zn307  O311    1.906   .     S
Zn307  N350    2.020   .     S
Zn307  O309    2.000   .     S
Zn308  N353    2.020   .     S
Zn308  O312    1.959   .     S
Zn308  O310    2.000   .     S
O309   C313    1.288   .     A
O310   C313    1.287   .     A
O311   C314    1.297   .     A
O312   C314    1.294   .     A
C313   C340    1.420   .     S
C314   C319    1.451   .     S
C315   C330    1.395   .     A
C315   H858    1.083   1_554 S
C315   C866    1.405   1_554 S
H316   C330    1.083   .     S
H317   C327    1.084   .     S
H318   C855    1.083   .     S
C319   C330    1.400   .     A
C319   C329    1.387   .     A
C320   N358    1.436   .     S
C320   C331    1.421   .     A
C320   C861    1.395   .     S
C321   C322    1.387   .     A
C321   H334    1.083   .     S
C321   C860    1.395   1_554 S
C322   H333    1.079   .     S
C322   C863    1.414   1_554 S
C323   C324    1.407   .     A
C323   C862    1.414   .     S
C323   C865    1.413   .     S
C324   C331    1.415   .     A
C324   C328    1.415   .     A
C325   C329    1.390   .     A
C325   C863    1.413   1_554 S
C325   C866    1.418   1_554 S
C326   C327    1.392   .     A
C326   C865    1.418   .     S
C326   C855    1.405   .     S
C327   C328    1.389   .     A
C328   H335    1.082   .     S
C329   H332    1.080   .     S
C336   C345    1.397   .     A
C336   H337    1.080   .     S
C336   C518    1.368   .     S
C338   C340    1.396   .     A
C338   H339    1.084   .     S
C340   C341    1.397   .     A
C341   H342    1.084   .     S
C343   C345    1.396   .     A
C343   H344    1.082   .     S
C343   C521    1.372   .     S
C346   N353    1.367   .     A
C346   H347    1.082   .     S
C346   C228    1.420   1_655 S
C348   H349    1.082   .     S
C348   N350    1.368   .     A
N350   C351    1.370   .     A
C351   N354    1.431   .     S
C352   N353    1.377   .     A
C352   I357    2.134   .     S
C352   C231    1.419   1_655 S
N354   O356    1.298   .     A
N354   O355    1.301   .     A
N358   O360    1.302   .     A
O359   N238    1.302   1_655 S
O361   C363    1.289   .     A
O361   Zn367   2.000   .     S
O362   C363    1.287   .     A
O362   Zn368   2.000   .     S
C363   C405    1.423   .     S
O364   Zn367   1.959   .     S
O364   C366    1.297   .     A
O365   Zn368   1.906   .     S
O365   C366    1.304   .     A
C366   C391    1.478   .     S
Zn367  O371    1.906   .     S
Zn367  N410    2.020   .     S
Zn367  O369    2.000   .     S
Zn368  N413    2.020   .     S
Zn368  O372    1.959   .     S
Zn368  O370    2.000   .     S
O369   C373    1.288   .     A
O370   C373    1.287   .     A
O371   C374    1.297   .     A
O372   C374    1.294   .     A
C373   C400    1.420   .     S
C374   C379    1.451   .     S
C375   C390    1.395   .     A
C375   H918    1.083   1_554 S
C375   C926    1.405   1_554 S
H376   C390    1.083   .     S
H377   C387    1.084   .     S
H378   C915    1.083   .     S
C379   C390    1.400   .     A
C379   C389    1.387   .     A
C380   N418    1.436   .     S
C380   C391    1.421   .     A
C380   C921    1.395   .     S
C381   C382    1.387   .     A
C381   H394    1.083   .     S
C381   C920    1.395   1_554 S
C382   H393    1.079   .     S
C382   C923    1.414   1_554 S
C383   C384    1.407   .     A
C383   C922    1.414   .     S
C383   C925    1.413   .     S
C384   C391    1.415   .     A
C384   C388    1.415   .     A
C385   C389    1.390   .     A
C385   C923    1.413   1_554 S
C385   C926    1.418   1_554 S
C386   C387    1.392   .     A
C386   C925    1.418   .     S
C386   C915    1.405   .     S
C387   C388    1.389   .     A
C388   H395    1.082   .     S
C389   H392    1.080   .     S
C396   C405    1.397   .     A
C396   H397    1.080   .     S
C396   C38     1.368   1_565 S
C398   C400    1.396   .     A
C398   H399    1.084   .     S
C400   C401    1.397   .     A
C401   H402    1.084   .     S
C403   C405    1.396   .     A
C403   H404    1.082   .     S
C403   C41     1.372   1_565 S
C406   N413    1.367   .     A
C406   H407    1.082   .     S
C406   C468    1.420   .     S
C408   H409    1.082   .     S
C408   N410    1.368   .     A
C408   C526    1.420   1_455 S
N410   C411    1.370   .     A
C411   N414    1.431   .     S
C411   C532    1.419   1_455 S
C412   N413    1.377   .     A
C412   I417    2.134   .     S
C412   C471    1.419   .     S
N414   O416    1.298   .     A
N414   O415    1.301   .     A
N418   O420    1.302   .     A
N418   O539    1.302   1_455 S
O419   N478    1.302   .     S
O421   C423    1.289   .     A
O421   Zn427   2.000   .     S
O422   C423    1.287   .     A
O422   Zn428   2.000   .     S
C423   C465    1.423   .     S
O424   Zn427   1.959   .     S
O424   C426    1.297   .     A
O425   Zn428   1.906   .     S
O425   C426    1.304   .     A
C426   C451    1.478   .     S
Zn427  O431    1.906   .     S
Zn427  N470    2.020   .     S
Zn427  O429    2.000   .     S
Zn428  N473    2.020   .     S
Zn428  O432    1.959   .     S
Zn428  O430    2.000   .     S
O429   C433    1.288   .     A
O430   C433    1.287   .     A
O431   C434    1.297   .     A
O432   C434    1.294   .     A
C433   C460    1.420   .     S
C434   C439    1.451   .     S
C435   C450    1.395   .     A
C435   H978    1.083   1_554 S
C435   C986    1.405   1_554 S
H436   C450    1.083   .     S
H437   C447    1.084   .     S
H438   C975    1.083   .     S
C439   C450    1.400   .     A
C439   C449    1.387   .     A
C440   N478    1.436   .     S
C440   C451    1.421   .     A
C440   C981    1.395   .     S
C441   C442    1.387   .     A
C441   H454    1.083   .     S
C441   C980    1.395   1_554 S
C442   H453    1.079   .     S
C442   C983    1.414   1_554 S
C443   C444    1.407   .     A
C443   C982    1.414   .     S
C443   C985    1.413   .     S
C444   C451    1.415   .     A
C444   C448    1.415   .     A
C445   C449    1.390   .     A
C445   C983    1.413   1_554 S
C445   C986    1.418   1_554 S
C446   C447    1.392   .     A
C446   C985    1.418   .     S
C446   C975    1.405   .     S
C447   C448    1.389   .     A
C448   H455    1.082   .     S
C449   H452    1.080   .     S
C456   C465    1.397   .     A
C456   H457    1.080   .     S
C456   C98     1.368   1_565 S
C458   C460    1.396   .     A
C458   H459    1.084   .     S
C460   C461    1.397   .     A
C461   H462    1.084   .     S
C463   C465    1.396   .     A
C463   H464    1.082   .     S
C463   C101    1.372   1_565 S
C466   N473    1.367   .     A
C466   H467    1.082   .     S
C466   C528    1.420   .     S
C468   H469    1.082   .     S
C468   N470    1.368   .     A
N470   C471    1.370   .     A
C471   N474    1.431   .     S
C472   N473    1.377   .     A
C472   I477    2.134   .     S
C472   C531    1.419   .     S
N474   O476    1.298   .     A
N474   O475    1.301   .     A
N478   O480    1.302   .     A
O479   N538    1.302   .     S
O481   C483    1.289   .     A
O481   Zn487   2.000   .     S
O482   C483    1.287   .     A
O482   Zn488   2.000   .     S
C483   C525    1.423   .     S
O484   Zn487   1.959   .     S
O484   C486    1.297   .     A
O485   Zn488   1.906   .     S
O485   C486    1.304   .     A
C486   C511    1.478   .     S
Zn487  O491    1.906   .     S
Zn487  N530    2.020   .     S
Zn487  O489    2.000   .     S
Zn488  N533    2.020   .     S
Zn488  O492    1.959   .     S
Zn488  O490    2.000   .     S
O489   C493    1.288   .     A
O490   C493    1.287   .     A
O491   C494    1.297   .     A
O492   C494    1.294   .     A
C493   C520    1.420   .     S
C494   C499    1.451   .     S
C495   C510    1.395   .     A
C495   H1038   1.083   1_554 S
C495   C1046   1.405   1_554 S
H496   C510    1.083   .     S
H497   C507    1.084   .     S
H498   C1035   1.083   .     S
C499   C510    1.400   .     A
C499   C509    1.387   .     A
C500   N538    1.436   .     S
C500   C511    1.421   .     A
C500   C1041   1.395   .     S
C501   C502    1.387   .     A
C501   H514    1.083   .     S
C501   C1040   1.395   1_554 S
C502   H513    1.079   .     S
C502   C1043   1.414   1_554 S
C503   C504    1.407   .     A
C503   C1042   1.414   .     S
C503   C1045   1.413   .     S
C504   C511    1.415   .     A
C504   C508    1.415   .     A
C505   C509    1.390   .     A
C505   C1043   1.413   1_554 S
C505   C1046   1.418   1_554 S
C506   C507    1.392   .     A
C506   C1045   1.418   .     S
C506   C1035   1.405   .     S
C507   C508    1.389   .     A
C508   H515    1.082   .     S
C509   H512    1.080   .     S
C516   C525    1.397   .     A
C516   H517    1.080   .     S
C516   C158    1.368   1_565 S
C518   C520    1.396   .     A
C518   H519    1.084   .     S
C520   C521    1.397   .     A
C521   H522    1.084   .     S
C523   C525    1.396   .     A
C523   H524    1.082   .     S
C523   C161    1.372   1_565 S
C526   N533    1.367   .     A
C526   H527    1.082   .     S
C526   C408    1.420   1_655 S
C528   H529    1.082   .     S
C528   N530    1.368   .     A
N530   C531    1.370   .     A
C531   N534    1.431   .     S
C532   N533    1.377   .     A
C532   I537    2.134   .     S
C532   C411    1.419   1_655 S
N534   O536    1.298   .     A
N534   O535    1.301   .     A
N538   O540    1.302   .     A
O539   N418    1.302   1_655 S
O541   C543    1.289   .     A
O541   Zn547   2.000   .     S
O542   C543    1.287   .     A
O542   Zn548   2.000   .     S
C543   C585    1.423   .     S
O544   Zn547   1.959   .     S
O544   C546    1.297   .     A
O545   Zn548   1.906   .     S
O545   C546    1.304   .     A
C546   C571    1.478   .     S
Zn547  O551    1.906   .     S
Zn547  N590    2.020   .     S
Zn547  O549    2.000   .     S
Zn548  N593    2.020   .     S
Zn548  O552    1.959   .     S
Zn548  O550    2.000   .     S
O549   C553    1.288   .     A
O550   C553    1.287   .     A
O551   C554    1.297   .     A
O552   C554    1.294   .     A
C553   C580    1.420   .     S
C554   C559    1.451   .     S
C555   C570    1.395   .     A
H556   C570    1.083   .     S
H557   C567    1.084   .     S
H558   C15     1.083   1_556 S
C559   C570    1.400   .     A
C559   C569    1.387   .     A
C560   N598    1.436   .     S
C560   C571    1.421   .     A
C560   C21     1.395   1_556 S
C561   C562    1.387   .     A
C561   H574    1.083   .     S
C562   H573    1.079   .     S
C563   C564    1.407   .     A
C563   C22     1.414   1_556 S
C563   C25     1.413   1_556 S
C564   C571    1.415   .     A
C564   C568    1.415   .     A
C565   C569    1.390   .     A
C566   C567    1.392   .     A
C566   C25     1.418   1_556 S
C566   C15     1.405   1_556 S
C567   C568    1.389   .     A
C568   H575    1.082   .     S
C569   H572    1.080   .     S
C576   C585    1.397   .     A
C576   H577    1.080   .     S
C576   C758    1.368   .     S
C578   C580    1.396   .     A
C578   H579    1.084   .     S
C578   C936    1.368   1_545 S
C580   C581    1.397   .     A
C581   H582    1.084   .     S
C581   C943    1.372   1_545 S
C583   C585    1.396   .     A
C583   H584    1.082   .     S
C583   C761    1.372   .     S
C586   N593    1.367   .     A
C586   H587    1.082   .     S
C586   C648    1.420   .     S
C588   H589    1.082   .     S
C588   N590    1.368   .     A
C588   C706    1.420   1_455 S
N590   C591    1.370   .     A
C591   N594    1.431   .     S
C591   C712    1.419   1_455 S
C592   N593    1.377   .     A
C592   I597    2.134   .     S
C592   C651    1.419   .     S
N594   O596    1.298   .     A
N594   O595    1.301   .     A
N598   O600    1.302   .     A
N598   O719    1.302   1_455 S
O599   N658    1.302   .     S
O601   C603    1.289   .     A
O601   Zn607   2.000   .     S
O602   C603    1.287   .     A
O602   Zn608   2.000   .     S
C603   C645    1.423   .     S
O604   Zn607   1.959   .     S
O604   C606    1.297   .     A
O605   Zn608   1.906   .     S
O605   C606    1.304   .     A
C606   C631    1.478   .     S
Zn607  O611    1.906   .     S
Zn607  N650    2.020   .     S
Zn607  O609    2.000   .     S
Zn608  N653    2.020   .     S
Zn608  O612    1.959   .     S
Zn608  O610    2.000   .     S
O609   C613    1.288   .     A
O610   C613    1.287   .     A
O611   C614    1.297   .     A
O612   C614    1.294   .     A
C613   C640    1.420   .     S
C614   C619    1.451   .     S
C615   C630    1.395   .     A
H616   C630    1.083   .     S
H617   C627    1.084   .     S
H618   C75     1.083   1_556 S
C619   C630    1.400   .     A
C619   C629    1.387   .     A
C620   N658    1.436   .     S
C620   C631    1.421   .     A
C620   C81     1.395   1_556 S
C621   C622    1.387   .     A
C621   H634    1.083   .     S
C622   H633    1.079   .     S
C623   C624    1.407   .     A
C623   C82     1.414   1_556 S
C623   C85     1.413   1_556 S
C624   C631    1.415   .     A
C624   C628    1.415   .     A
C625   C629    1.390   .     A
C626   C627    1.392   .     A
C626   C85     1.418   1_556 S
C626   C75     1.405   1_556 S
C627   C628    1.389   .     A
C628   H635    1.082   .     S
C629   H632    1.080   .     S
C636   C645    1.397   .     A
C636   H637    1.080   .     S
C636   C818    1.368   .     S
C638   C640    1.396   .     A
C638   H639    1.084   .     S
C638   C996    1.368   1_545 S
C640   C641    1.397   .     A
C641   H642    1.084   .     S
C641   C1003   1.372   1_545 S
C643   C645    1.396   .     A
C643   H644    1.082   .     S
C643   C821    1.372   .     S
C646   N653    1.367   .     A
C646   H647    1.082   .     S
C646   C708    1.420   .     S
C648   H649    1.082   .     S
C648   N650    1.368   .     A
N650   C651    1.370   .     A
C651   N654    1.431   .     S
C652   N653    1.377   .     A
C652   I657    2.134   .     S
C652   C711    1.419   .     S
N654   O656    1.298   .     A
N654   O655    1.301   .     A
N658   O660    1.302   .     A
O659   N718    1.302   .     S
O661   C663    1.289   .     A
O661   Zn667   2.000   .     S
O662   C663    1.287   .     A
O662   Zn668   2.000   .     S
C663   C705    1.423   .     S
O664   Zn667   1.959   .     S
O664   C666    1.297   .     A
O665   Zn668   1.906   .     S
O665   C666    1.304   .     A
C666   C691    1.478   .     S
Zn667  O671    1.906   .     S
Zn667  N710    2.020   .     S
Zn667  O669    2.000   .     S
Zn668  N713    2.020   .     S
Zn668  O672    1.959   .     S
Zn668  O670    2.000   .     S
O669   C673    1.288   .     A
O670   C673    1.287   .     A
O671   C674    1.297   .     A
O672   C674    1.294   .     A
C673   C700    1.420   .     S
C674   C679    1.451   .     S
C675   C690    1.395   .     A
H676   C690    1.083   .     S
H677   C687    1.084   .     S
H678   C135    1.083   1_556 S
C679   C690    1.400   .     A
C679   C689    1.387   .     A
C680   N718    1.436   .     S
C680   C691    1.421   .     A
C680   C141    1.395   1_556 S
C681   C682    1.387   .     A
C681   H694    1.083   .     S
C682   H693    1.079   .     S
C683   C684    1.407   .     A
C683   C142    1.414   1_556 S
C683   C145    1.413   1_556 S
C684   C691    1.415   .     A
C684   C688    1.415   .     A
C685   C689    1.390   .     A
C686   C687    1.392   .     A
C686   C145    1.418   1_556 S
C686   C135    1.405   1_556 S
C687   C688    1.389   .     A
C688   H695    1.082   .     S
C689   H692    1.080   .     S
C696   C705    1.397   .     A
C696   H697    1.080   .     S
C696   C878    1.368   .     S
C698   C700    1.396   .     A
C698   H699    1.084   .     S
C698   C1056   1.368   1_545 S
C700   C701    1.397   .     A
C701   H702    1.084   .     S
C701   C1063   1.372   1_545 S
C703   C705    1.396   .     A
C703   H704    1.082   .     S
C703   C881    1.372   .     S
C706   N713    1.367   .     A
C706   H707    1.082   .     S
C706   C588    1.420   1_655 S
C708   H709    1.082   .     S
C708   N710    1.368   .     A
N710   C711    1.370   .     A
C711   N714    1.431   .     S
C712   N713    1.377   .     A
C712   I717    2.134   .     S
C712   C591    1.419   1_655 S
N714   O716    1.298   .     A
N714   O715    1.301   .     A
N718   O720    1.302   .     A
O719   N598    1.302   1_655 S
O721   C723    1.289   .     A
O721   Zn727   2.000   .     S
O722   C723    1.287   .     A
O722   Zn728   2.000   .     S
C723   C765    1.423   .     S
O724   Zn727   1.959   .     S
O724   C726    1.297   .     A
O725   Zn728   1.906   .     S
O725   C726    1.304   .     A
C726   C751    1.478   .     S
Zn727  O731    1.906   .     S
Zn727  N770    2.020   .     S
Zn727  O729    2.000   .     S
Zn728  N773    2.020   .     S
Zn728  O732    1.959   .     S
Zn728  O730    2.000   .     S
O729   C733    1.288   .     A
O730   C733    1.287   .     A
O731   C734    1.297   .     A
O732   C734    1.294   .     A
C733   C760    1.420   .     S
C734   C739    1.451   .     S
C735   C750    1.395   .     A
H736   C750    1.083   .     S
H737   C747    1.084   .     S
H738   C195    1.083   1_556 S
C739   C750    1.400   .     A
C739   C749    1.387   .     A
C740   N778    1.436   .     S
C740   C751    1.421   .     A
C740   C201    1.395   1_556 S
C741   C742    1.387   .     A
C741   H754    1.083   .     S
C742   H753    1.079   .     S
C743   C744    1.407   .     A
C743   C202    1.414   1_556 S
C743   C205    1.413   1_556 S
C744   C751    1.415   .     A
C744   C748    1.415   .     A
C745   C749    1.390   .     A
C746   C747    1.392   .     A
C746   C205    1.418   1_556 S
C746   C195    1.405   1_556 S
C747   C748    1.389   .     A
C748   H755    1.082   .     S
C749   H752    1.080   .     S
C756   C765    1.397   .     A
C756   H757    1.080   .     S
C756   C938    1.368   .     S
C758   C760    1.396   .     A
C758   H759    1.084   .     S
C760   C761    1.397   .     A
C761   H762    1.084   .     S
C763   C765    1.396   .     A
C763   H764    1.082   .     S
C763   C941    1.372   .     S
C766   N773    1.367   .     A
C766   H767    1.082   .     S
C766   C828    1.420   .     S
C768   H769    1.082   .     S
C768   N770    1.368   .     A
C768   C886    1.420   1_455 S
N770   C771    1.370   .     A
C771   N774    1.431   .     S
C771   C892    1.419   1_455 S
C772   N773    1.377   .     A
C772   I777    2.134   .     S
C772   C831    1.419   .     S
N774   O776    1.298   .     A
N774   O775    1.301   .     A
N778   O780    1.302   .     A
N778   O899    1.302   1_455 S
O779   N838    1.302   .     S
O781   C783    1.289   .     A
O781   Zn787   2.000   .     S
O782   C783    1.287   .     A
O782   Zn788   2.000   .     S
C783   C825    1.423   .     S
O784   Zn787   1.959   .     S
O784   C786    1.297   .     A
O785   Zn788   1.906   .     S
O785   C786    1.304   .     A
C786   C811    1.478   .     S
Zn787  O791    1.906   .     S
Zn787  N830    2.020   .     S
Zn787  O789    2.000   .     S
Zn788  N833    2.020   .     S
Zn788  O792    1.959   .     S
Zn788  O790    2.000   .     S
O789   C793    1.288   .     A
O790   C793    1.287   .     A
O791   C794    1.297   .     A
O792   C794    1.294   .     A
C793   C820    1.420   .     S
C794   C799    1.451   .     S
C795   C810    1.395   .     A
H796   C810    1.083   .     S
H797   C807    1.084   .     S
H798   C255    1.083   1_556 S
C799   C810    1.400   .     A
C799   C809    1.387   .     A
C800   N838    1.436   .     S
C800   C811    1.421   .     A
C800   C261    1.395   1_556 S
C801   C802    1.387   .     A
C801   H814    1.083   .     S
C802   H813    1.079   .     S
C803   C804    1.407   .     A
C803   C262    1.414   1_556 S
C803   C265    1.413   1_556 S
C804   C811    1.415   .     A
C804   C808    1.415   .     A
C805   C809    1.390   .     A
C806   C807    1.392   .     A
C806   C265    1.418   1_556 S
C806   C255    1.405   1_556 S
C807   C808    1.389   .     A
C808   H815    1.082   .     S
C809   H812    1.080   .     S
C816   C825    1.397   .     A
C816   H817    1.080   .     S
C816   C998    1.368   .     S
C818   C820    1.396   .     A
C818   H819    1.084   .     S
C820   C821    1.397   .     A
C821   H822    1.084   .     S
C823   C825    1.396   .     A
C823   H824    1.082   .     S
C823   C1001   1.372   .     S
C826   N833    1.367   .     A
C826   H827    1.082   .     S
C826   C888    1.420   .     S
C828   H829    1.082   .     S
C828   N830    1.368   .     A
N830   C831    1.370   .     A
C831   N834    1.431   .     S
C832   N833    1.377   .     A
C832   I837    2.134   .     S
C832   C891    1.419   .     S
N834   O836    1.298   .     A
N834   O835    1.301   .     A
N838   O840    1.302   .     A
O839   N898    1.302   .     S
O841   C843    1.289   .     A
O841   Zn847   2.000   .     S
O842   C843    1.287   .     A
O842   Zn848   2.000   .     S
C843   C885    1.423   .     S
O844   Zn847   1.959   .     S
O844   C846    1.297   .     A
O845   Zn848   1.906   .     S
O845   C846    1.304   .     A
C846   C871    1.478   .     S
Zn847  O851    1.906   .     S
Zn847  N890    2.020   .     S
Zn847  O849    2.000   .     S
Zn848  N893    2.020   .     S
Zn848  O852    1.959   .     S
Zn848  O850    2.000   .     S
O849   C853    1.288   .     A
O850   C853    1.287   .     A
O851   C854    1.297   .     A
O852   C854    1.294   .     A
C853   C880    1.420   .     S
C854   C859    1.451   .     S
C855   C870    1.395   .     A
H856   C870    1.083   .     S
H857   C867    1.084   .     S
H858   C315    1.083   1_556 S
C859   C870    1.400   .     A
C859   C869    1.387   .     A
C860   N898    1.436   .     S
C860   C871    1.421   .     A
C860   C321    1.395   1_556 S
C861   C862    1.387   .     A
C861   H874    1.083   .     S
C862   H873    1.079   .     S
C863   C864    1.407   .     A
C863   C322    1.414   1_556 S
C863   C325    1.413   1_556 S
C864   C871    1.415   .     A
C864   C868    1.415   .     A
C865   C869    1.390   .     A
C866   C867    1.392   .     A
C866   C325    1.418   1_556 S
C866   C315    1.405   1_556 S
C867   C868    1.389   .     A
C868   H875    1.082   .     S
C869   H872    1.080   .     S
C876   C885    1.397   .     A
C876   H877    1.080   .     S
C876   C1058   1.368   .     S
C878   C880    1.396   .     A
C878   H879    1.084   .     S
C880   C881    1.397   .     A
C881   H882    1.084   .     S
C883   C885    1.396   .     A
C883   H884    1.082   .     S
C883   C1061   1.372   .     S
C886   N893    1.367   .     A
C886   H887    1.082   .     S
C886   C768    1.420   1_655 S
C888   H889    1.082   .     S
C888   N890    1.368   .     A
N890   C891    1.370   .     A
C891   N894    1.431   .     S
C892   N893    1.377   .     A
C892   I897    2.134   .     S
C892   C771    1.419   1_655 S
N894   O896    1.298   .     A
N894   O895    1.301   .     A
N898   O900    1.302   .     A
O899   N778    1.302   1_655 S
O901   C903    1.289   .     A
O901   Zn907   2.000   .     S
O902   C903    1.287   .     A
O902   Zn908   2.000   .     S
C903   C945    1.423   .     S
O904   Zn907   1.959   .     S
O904   C906    1.297   .     A
O905   Zn908   1.906   .     S
O905   C906    1.304   .     A
C906   C931    1.478   .     S
Zn907  O911    1.906   .     S
Zn907  N950    2.020   .     S
Zn907  O909    2.000   .     S
Zn908  N953    2.020   .     S
Zn908  O912    1.959   .     S
Zn908  O910    2.000   .     S
O909   C913    1.288   .     A
O910   C913    1.287   .     A
O911   C914    1.297   .     A
O912   C914    1.294   .     A
C913   C940    1.420   .     S
C914   C919    1.451   .     S
C915   C930    1.395   .     A
H916   C930    1.083   .     S
H917   C927    1.084   .     S
H918   C375    1.083   1_556 S
C919   C930    1.400   .     A
C919   C929    1.387   .     A
C920   N958    1.436   .     S
C920   C931    1.421   .     A
C920   C381    1.395   1_556 S
C921   C922    1.387   .     A
C921   H934    1.083   .     S
C922   H933    1.079   .     S
C923   C924    1.407   .     A
C923   C382    1.414   1_556 S
C923   C385    1.413   1_556 S
C924   C931    1.415   .     A
C924   C928    1.415   .     A
C925   C929    1.390   .     A
C926   C927    1.392   .     A
C926   C385    1.418   1_556 S
C926   C375    1.405   1_556 S
C927   C928    1.389   .     A
C928   H935    1.082   .     S
C929   H932    1.080   .     S
C936   C945    1.397   .     A
C936   H937    1.080   .     S
C936   C578    1.368   1_565 S
C938   C940    1.396   .     A
C938   H939    1.084   .     S
C940   C941    1.397   .     A
C941   H942    1.084   .     S
C943   C945    1.396   .     A
C943   H944    1.082   .     S
C943   C581    1.372   1_565 S
C946   N953    1.367   .     A
C946   H947    1.082   .     S
C946   C1008   1.420   .     S
C948   H949    1.082   .     S
C948   N950    1.368   .     A
C948   C1066   1.420   1_455 S
N950   C951    1.370   .     A
C951   N954    1.431   .     S
C951   C1072   1.419   1_455 S
C952   N953    1.377   .     A
C952   I957    2.134   .     S
C952   C1011   1.419   .     S
N954   O956    1.298   .     A
N954   O955    1.301   .     A
N958   O960    1.302   .     A
N958   O1079   1.302   1_455 S
O959   N1018   1.302   .     S
O961   C963    1.289   .     A
O961   Zn967   2.000   .     S
O962   C963    1.287   .     A
O962   Zn968   2.000   .     S
C963   C1005   1.423   .     S
O964   Zn967   1.959   .     S
O964   C966    1.297   .     A
O965   Zn968   1.906   .     S
O965   C966    1.304   .     A
C966   C991    1.478   .     S
Zn967  O971    1.906   .     S
Zn967  N1010   2.020   .     S
Zn967  O969    2.000   .     S
Zn968  N1013   2.020   .     S
Zn968  O972    1.959   .     S
Zn968  O970    2.000   .     S
O969   C973    1.288   .     A
O970   C973    1.287   .     A
O971   C974    1.297   .     A
O972   C974    1.294   .     A
C973   C1000   1.420   .     S
C974   C979    1.451   .     S
C975   C990    1.395   .     A
H976   C990    1.083   .     S
H977   C987    1.084   .     S
H978   C435    1.083   1_556 S
C979   C990    1.400   .     A
C979   C989    1.387   .     A
C980   N1018   1.436   .     S
C980   C991    1.421   .     A
C980   C441    1.395   1_556 S
C981   C982    1.387   .     A
C981   H994    1.083   .     S
C982   H993    1.079   .     S
C983   C984    1.407   .     A
C983   C442    1.414   1_556 S
C983   C445    1.413   1_556 S
C984   C991    1.415   .     A
C984   C988    1.415   .     A
C985   C989    1.390   .     A
C986   C987    1.392   .     A
C986   C445    1.418   1_556 S
C986   C435    1.405   1_556 S
C987   C988    1.389   .     A
C988   H995    1.082   .     S
C989   H992    1.080   .     S
C996   C1005   1.397   .     A
C996   H997    1.080   .     S
C996   C638    1.368   1_565 S
C998   C1000   1.396   .     A
C998   H999    1.084   .     S
C1000  C1001   1.397   .     A
C1001  H1002   1.084   .     S
C1003  C1005   1.396   .     A
C1003  H1004   1.082   .     S
C1003  C641    1.372   1_565 S
C1006  N1013   1.367   .     A
C1006  H1007   1.082   .     S
C1006  C1068   1.420   .     S
C1008  H1009   1.082   .     S
C1008  N1010   1.368   .     A
N1010  C1011   1.370   .     A
C1011  N1014   1.431   .     S
C1012  N1013   1.377   .     A
C1012  I1017   2.134   .     S
C1012  C1071   1.419   .     S
N1014  O1016   1.298   .     A
N1014  O1015   1.301   .     A
N1018  O1020   1.302   .     A
O1019  N1078   1.302   .     S
O1021  C1023   1.289   .     A
O1021  Zn1027  2.000   .     S
O1022  C1023   1.287   .     A
O1022  Zn1028  2.000   .     S
C1023  C1065   1.423   .     S
O1024  Zn1027  1.959   .     S
O1024  C1026   1.297   .     A
O1025  Zn1028  1.906   .     S
O1025  C1026   1.304   .     A
C1026  C1051   1.478   .     S
Zn1027 O1031   1.906   .     S
Zn1027 N1070   2.020   .     S
Zn1027 O1029   2.000   .     S
Zn1028 N1073   2.020   .     S
Zn1028 O1032   1.959   .     S
Zn1028 O1030   2.000   .     S
O1029  C1033   1.288   .     A
O1030  C1033   1.287   .     A
O1031  C1034   1.297   .     A
O1032  C1034   1.294   .     A
C1033  C1060   1.420   .     S
C1034  C1039   1.451   .     S
C1035  C1050   1.395   .     A
H1036  C1050   1.083   .     S
H1037  C1047   1.084   .     S
H1038  C495    1.083   1_556 S
C1039  C1050   1.400   .     A
C1039  C1049   1.387   .     A
C1040  N1078   1.436   .     S
C1040  C1051   1.421   .     A
C1040  C501    1.395   1_556 S
C1041  C1042   1.387   .     A
C1041  H1054   1.083   .     S
C1042  H1053   1.079   .     S
C1043  C1044   1.407   .     A
C1043  C502    1.414   1_556 S
C1043  C505    1.413   1_556 S
C1044  C1051   1.415   .     A
C1044  C1048   1.415   .     A
C1045  C1049   1.390   .     A
C1046  C1047   1.392   .     A
C1046  C505    1.418   1_556 S
C1046  C495    1.405   1_556 S
C1047  C1048   1.389   .     A
C1048  H1055   1.082   .     S
C1049  H1052   1.080   .     S
C1056  C1065   1.397   .     A
C1056  H1057   1.080   .     S
C1056  C698    1.368   1_565 S
C1058  C1060   1.396   .     A
C1058  H1059   1.084   .     S
C1060  C1061   1.397   .     A
C1061  H1062   1.084   .     S
C1063  C1065   1.396   .     A
C1063  H1064   1.082   .     S
C1063  C701    1.372   1_565 S
C1066  N1073   1.367   .     A
C1066  H1067   1.082   .     S
C1066  C948    1.420   1_655 S
C1068  H1069   1.082   .     S
C1068  N1070   1.368   .     A
N1070  C1071   1.370   .     A
C1071  N1074   1.431   .     S
C1072  N1073   1.377   .     A
C1072  I1077   2.134   .     S
C1072  C951    1.419   1_655 S
N1074  O1076   1.298   .     A
N1074  O1075   1.301   .     A
N1078  O1080   1.302   .     A
O1079  N958    1.302   1_655 S
