data_str_m2_o2_o10_pcu_sym.202
_audit_creation_date              2020-01-03
_audit_creation_method            'Materials Studio'
_symmetry_space_group_name_H-M    'P1'
_symmetry_Int_Tables_number       1
_symmetry_cell_setting            triclinic
loop_
_symmetry_equiv_pos_as_xyz
  x,y,z
_cell_length_a                    26.1624
_cell_length_b                    30.1842
_cell_length_c                    27.7279
_cell_angle_alpha                 90.4216
_cell_angle_beta                  97.9712
_cell_angle_gamma                 90.0472
loop_
_atom_site_label
_atom_site_type_symbol
_atom_site_fract_x
_atom_site_fract_y
_atom_site_fract_z
_atom_site_U_iso_or_equiv
_atom_site_adp_type
_atom_site_occupancy
C1     C     0.16752   0.16495   0.24988   0.00000  Uiso   1.00
C2     C     0.16760   0.33518   0.25034   0.00000  Uiso   1.00
C3     C     0.19452   0.28187   0.05784   0.00000  Uiso   1.00
C4     C     0.12444   0.23345   0.44051   0.00000  Uiso   1.00
C5     C     0.19417   0.28121   0.10853   0.00000  Uiso   1.00
C6     C     0.12531   0.23356   0.38988   0.00000  Uiso   1.00
C7     C     0.13925   0.21871   0.10093   0.00000  Uiso   1.00
C8     C     0.20828   0.26592   0.40099   0.00000  Uiso   1.00
C9     C     0.13904   0.21786   0.05015   0.00000  Uiso   1.00
C10    C     0.20919   0.26600   0.45184   0.00000  Uiso   1.00
C11    C     0.16679   0.24982   0.02741   0.00000  Uiso   1.00
C12    C     0.16679   0.24978   0.47277   0.00000  Uiso   1.00
C13    C     0.06789   0.24999   0.23754   0.00000  Uiso   1.00
C14    C     0.26544   0.25019   0.26246   0.00000  Uiso   1.00
C15    C     0.01260   0.25000   0.23067   0.00000  Uiso   1.00
C16    C     0.32072   0.25033   0.26935   0.00000  Uiso   1.00
C17    C     0.12638   0.04934   0.27406   0.00000  Uiso   1.00
C18    C     0.13363   0.45074   0.20847   0.00000  Uiso   1.00
C19    C     0.13098   0.09539   0.27489   0.00000  Uiso   1.00
C20    C     0.13792   0.40470   0.21029   0.00000  Uiso   1.00
C21    C     0.16633   0.11663   0.24912   0.00000  Uiso   1.00
C22    C     0.16646   0.38373   0.25036   0.00000  Uiso   1.00
C23    C     0.19862   0.09144   0.22261   0.00000  Uiso   1.00
C24    C     0.19234   0.40959   0.28909   0.00000  Uiso   1.00
C25    C     0.19371   0.04545   0.22165   0.00000  Uiso   1.00
C26    C     0.18725   0.45553   0.28738   0.00000  Uiso   1.00
C27    C     0.15804   0.02442   0.24697   0.00000  Uiso   1.00
C28    C     0.15824   0.47608   0.24773   0.00000  Uiso   1.00
Cu29   Cu    0.16667   0.25000   0.29822   0.00000  Uiso   1.00
Cu30   Cu    0.16667   0.25001   0.20179   0.00000  Uiso   1.00
H31    H     0.32590   0.24967   0.19359   0.00000  Uiso   1.00
H32    H     0.00740   0.25064   0.30643   0.00000  Uiso   1.00
H33    H     0.10656   0.11500   0.29529   0.00000  Uiso   1.00
H34    H     0.11852   0.38494   0.18046   0.00000  Uiso   1.00
H35    H     0.21852   0.02554   0.20198   0.00000  Uiso   1.00
H36    H     0.20680   0.47582   0.31670   0.00000  Uiso   1.00
H37    H     0.21589   0.30781   0.04276   0.00000  Uiso   1.00
H38    H     0.09031   0.22111   0.45400   0.00000  Uiso   1.00
H39    H     0.21589   0.30595   0.13124   0.00000  Uiso   1.00
H40    H     0.09254   0.22039   0.36607   0.00000  Uiso   1.00
H41    H     0.11760   0.19398   0.11764   0.00000  Uiso   1.00
H42    H     0.24120   0.27878   0.38596   0.00000  Uiso   1.00
H43    H     0.11775   0.19182   0.02914   0.00000  Uiso   1.00
H44    H     0.24339   0.27821   0.47446   0.00000  Uiso   1.00
N45    N     0.16667   0.25001   0.12935   0.00000  Uiso   1.00
N46    N     0.16667   0.24999   0.37066   0.00000  Uiso   1.00
O47    O     0.16667   0.18573   0.29072   0.00000  Uiso   1.00
O48    O     0.16666   0.31428   0.20929   0.00000  Uiso   1.00
O49    O     0.16667   0.18573   0.20928   0.00000  Uiso   1.00
O50    O     0.16666   0.31427   0.29072   0.00000  Uiso   1.00
O51    O     0.09161   0.25000   0.28132   0.00000  Uiso   1.00
O52    O     0.24172   0.25001   0.21868   0.00000  Uiso   1.00
O53    O     0.09161   0.25000   0.19989   0.00000  Uiso   1.00
O54    O     0.24172   0.25000   0.30012   0.00000  Uiso   1.00
S55    S     0.08149   0.02390   0.30749   0.00000  Uiso   1.00
O56    O     0.11026   0.00476   0.35328   0.00000  Uiso   1.00
O57    O     0.04313   0.05737   0.32071   0.00000  Uiso   1.00
O58    O     0.04984   0.48297   0.27434   0.00000  Uiso   1.00
H59    H     0.02748   0.46934   0.29621   0.00000  Uiso   1.00
S60    S     0.09807   0.47569   0.15673   0.00000  Uiso   1.00
O61    O     0.13529   0.49465   0.12564   0.00000  Uiso   1.00
O62    O     0.06429   0.44197   0.12754   0.00000  Uiso   1.00
O63    O     0.06098   0.01668   0.17413   0.00000  Uiso   1.00
H64    H     0.04659   0.03163   0.14356   0.00000  Uiso   1.00
S65    S     0.24763   0.11570   0.19316   0.00000  Uiso   1.00
O66    O     0.27652   0.14964   0.22632   0.00000  Uiso   1.00
O67    O     0.28486   0.08101   0.18048   0.00000  Uiso   1.00
O68    O     0.22039   0.14028   0.14172   0.00000  Uiso   1.00
H69    H     0.24752   0.16000   0.13220   0.00000  Uiso   1.00
S70    S     0.23312   0.38669   0.33910   0.00000  Uiso   1.00
O71    O     0.26547   0.35029   0.32184   0.00000  Uiso   1.00
O72    O     0.26836   0.42156   0.36449   0.00000  Uiso   1.00
O73    O     0.19654   0.36591   0.37884   0.00000  Uiso   1.00
H74    H     0.17514   0.39110   0.38731   0.00000  Uiso   1.00
C75    C     0.50086   0.16495   0.24988   0.00000  Uiso   1.00
C76    C     0.50094   0.33518   0.25034   0.00000  Uiso   1.00
C77    C     0.52785   0.28187   0.05784   0.00000  Uiso   1.00
C78    C     0.45777   0.23345   0.44051   0.00000  Uiso   1.00
C79    C     0.52750   0.28121   0.10853   0.00000  Uiso   1.00
C80    C     0.45864   0.23356   0.38988   0.00000  Uiso   1.00
C81    C     0.47258   0.21871   0.10093   0.00000  Uiso   1.00
C82    C     0.54161   0.26592   0.40099   0.00000  Uiso   1.00
C83    C     0.47237   0.21786   0.05015   0.00000  Uiso   1.00
C84    C     0.54252   0.26600   0.45184   0.00000  Uiso   1.00
C85    C     0.50012   0.24982   0.02741   0.00000  Uiso   1.00
C86    C     0.50013   0.24978   0.47277   0.00000  Uiso   1.00
C87    C     0.40122   0.24999   0.23754   0.00000  Uiso   1.00
C88    C     0.59878   0.25019   0.26246   0.00000  Uiso   1.00
C89    C     0.34593   0.25000   0.23067   0.00000  Uiso   1.00
C90    C     0.65406   0.25033   0.26935   0.00000  Uiso   1.00
C91    C     0.45971   0.04934   0.27406   0.00000  Uiso   1.00
C92    C     0.46696   0.45074   0.20847   0.00000  Uiso   1.00
C93    C     0.46431   0.09539   0.27489   0.00000  Uiso   1.00
C94    C     0.47125   0.40470   0.21029   0.00000  Uiso   1.00
C95    C     0.49966   0.11663   0.24912   0.00000  Uiso   1.00
C96    C     0.49980   0.38373   0.25036   0.00000  Uiso   1.00
C97    C     0.53195   0.09144   0.22261   0.00000  Uiso   1.00
C98    C     0.52568   0.40959   0.28909   0.00000  Uiso   1.00
C99    C     0.52704   0.04545   0.22165   0.00000  Uiso   1.00
C100   C     0.52058   0.45553   0.28738   0.00000  Uiso   1.00
C101   C     0.49138   0.02442   0.24697   0.00000  Uiso   1.00
C102   C     0.49158   0.47608   0.24773   0.00000  Uiso   1.00
Cu103  Cu    0.50000   0.25000   0.29822   0.00000  Uiso   1.00
Cu104  Cu    0.50000   0.25001   0.20179   0.00000  Uiso   1.00
H105   H     0.65923   0.24967   0.19359   0.00000  Uiso   1.00
H106   H     0.34074   0.25064   0.30643   0.00000  Uiso   1.00
H107   H     0.43990   0.11500   0.29529   0.00000  Uiso   1.00
H108   H     0.45186   0.38494   0.18046   0.00000  Uiso   1.00
H109   H     0.55185   0.02554   0.20198   0.00000  Uiso   1.00
H110   H     0.54013   0.47582   0.31670   0.00000  Uiso   1.00
H111   H     0.54922   0.30781   0.04276   0.00000  Uiso   1.00
H112   H     0.42365   0.22111   0.45400   0.00000  Uiso   1.00
H113   H     0.54922   0.30595   0.13124   0.00000  Uiso   1.00
H114   H     0.42587   0.22039   0.36607   0.00000  Uiso   1.00
H115   H     0.45093   0.19398   0.11764   0.00000  Uiso   1.00
H116   H     0.57453   0.27878   0.38596   0.00000  Uiso   1.00
H117   H     0.45108   0.19182   0.02914   0.00000  Uiso   1.00
H118   H     0.57672   0.27821   0.47446   0.00000  Uiso   1.00
N119   N     0.50000   0.25001   0.12935   0.00000  Uiso   1.00
N120   N     0.50000   0.24999   0.37066   0.00000  Uiso   1.00
O121   O     0.50000   0.18573   0.29072   0.00000  Uiso   1.00
O122   O     0.50000   0.31428   0.20929   0.00000  Uiso   1.00
O123   O     0.50000   0.18573   0.20928   0.00000  Uiso   1.00
O124   O     0.50000   0.31427   0.29072   0.00000  Uiso   1.00
O125   O     0.42495   0.25000   0.28132   0.00000  Uiso   1.00
O126   O     0.57505   0.25001   0.21868   0.00000  Uiso   1.00
O127   O     0.42495   0.25000   0.19989   0.00000  Uiso   1.00
O128   O     0.57505   0.25000   0.30012   0.00000  Uiso   1.00
S129   S     0.41483   0.02390   0.30749   0.00000  Uiso   1.00
O130   O     0.44360   0.00476   0.35328   0.00000  Uiso   1.00
O131   O     0.37646   0.05737   0.32071   0.00000  Uiso   1.00
O132   O     0.38317   0.48297   0.27434   0.00000  Uiso   1.00
H133   H     0.36081   0.46934   0.29621   0.00000  Uiso   1.00
S134   S     0.43140   0.47569   0.15673   0.00000  Uiso   1.00
O135   O     0.46863   0.49465   0.12564   0.00000  Uiso   1.00
O136   O     0.39762   0.44197   0.12754   0.00000  Uiso   1.00
O137   O     0.39431   0.01668   0.17413   0.00000  Uiso   1.00
H138   H     0.37992   0.03163   0.14356   0.00000  Uiso   1.00
S139   S     0.58096   0.11570   0.19316   0.00000  Uiso   1.00
O140   O     0.60986   0.14964   0.22632   0.00000  Uiso   1.00
O141   O     0.61820   0.08101   0.18048   0.00000  Uiso   1.00
O142   O     0.55372   0.14028   0.14172   0.00000  Uiso   1.00
H143   H     0.58085   0.16000   0.13220   0.00000  Uiso   1.00
S144   S     0.56645   0.38669   0.33910   0.00000  Uiso   1.00
O145   O     0.59880   0.35029   0.32184   0.00000  Uiso   1.00
O146   O     0.60169   0.42156   0.36449   0.00000  Uiso   1.00
O147   O     0.52988   0.36591   0.37884   0.00000  Uiso   1.00
H148   H     0.50848   0.39110   0.38731   0.00000  Uiso   1.00
C149   C     0.83419   0.16495   0.24988   0.00000  Uiso   1.00
C150   C     0.83427   0.33518   0.25034   0.00000  Uiso   1.00
C151   C     0.86118   0.28187   0.05784   0.00000  Uiso   1.00
C152   C     0.79110   0.23345   0.44051   0.00000  Uiso   1.00
C153   C     0.86083   0.28121   0.10853   0.00000  Uiso   1.00
C154   C     0.79198   0.23356   0.38988   0.00000  Uiso   1.00
C155   C     0.80592   0.21871   0.10093   0.00000  Uiso   1.00
C156   C     0.87494   0.26592   0.40099   0.00000  Uiso   1.00
C157   C     0.80570   0.21786   0.05015   0.00000  Uiso   1.00
C158   C     0.87585   0.26600   0.45184   0.00000  Uiso   1.00
C159   C     0.83346   0.24982   0.02741   0.00000  Uiso   1.00
C160   C     0.83346   0.24978   0.47277   0.00000  Uiso   1.00
C161   C     0.73455   0.24999   0.23754   0.00000  Uiso   1.00
C162   C     0.93211   0.25019   0.26246   0.00000  Uiso   1.00
C163   C     0.67927   0.25000   0.23067   0.00000  Uiso   1.00
C164   C     0.98739   0.25033   0.26935   0.00000  Uiso   1.00
C165   C     0.79305   0.04934   0.27406   0.00000  Uiso   1.00
C166   C     0.80030   0.45074   0.20847   0.00000  Uiso   1.00
C167   C     0.79764   0.09539   0.27489   0.00000  Uiso   1.00
C168   C     0.80459   0.40470   0.21029   0.00000  Uiso   1.00
C169   C     0.83299   0.11663   0.24912   0.00000  Uiso   1.00
C170   C     0.83313   0.38373   0.25036   0.00000  Uiso   1.00
C171   C     0.86529   0.09144   0.22261   0.00000  Uiso   1.00
C172   C     0.85901   0.40959   0.28909   0.00000  Uiso   1.00
C173   C     0.86037   0.04545   0.22165   0.00000  Uiso   1.00
C174   C     0.85392   0.45553   0.28738   0.00000  Uiso   1.00
C175   C     0.82471   0.02442   0.24697   0.00000  Uiso   1.00
C176   C     0.82491   0.47608   0.24773   0.00000  Uiso   1.00
Cu177  Cu    0.83333   0.25000   0.29822   0.00000  Uiso   1.00
Cu178  Cu    0.83333   0.25001   0.20179   0.00000  Uiso   1.00
H179   H     0.99256   0.24967   0.19359   0.00000  Uiso   1.00
H180   H     0.67407   0.25064   0.30643   0.00000  Uiso   1.00
H181   H     0.77323   0.11500   0.29529   0.00000  Uiso   1.00
H182   H     0.78519   0.38494   0.18046   0.00000  Uiso   1.00
H183   H     0.88519   0.02554   0.20198   0.00000  Uiso   1.00
H184   H     0.87347   0.47582   0.31670   0.00000  Uiso   1.00
H185   H     0.88255   0.30781   0.04276   0.00000  Uiso   1.00
H186   H     0.75698   0.22111   0.45400   0.00000  Uiso   1.00
H187   H     0.88255   0.30595   0.13124   0.00000  Uiso   1.00
H188   H     0.75921   0.22039   0.36607   0.00000  Uiso   1.00
H189   H     0.78426   0.19398   0.11764   0.00000  Uiso   1.00
H190   H     0.90786   0.27878   0.38596   0.00000  Uiso   1.00
H191   H     0.78441   0.19182   0.02914   0.00000  Uiso   1.00
H192   H     0.91005   0.27821   0.47446   0.00000  Uiso   1.00
N193   N     0.83333   0.25001   0.12935   0.00000  Uiso   1.00
N194   N     0.83333   0.24999   0.37066   0.00000  Uiso   1.00
O195   O     0.83334   0.18573   0.29072   0.00000  Uiso   1.00
O196   O     0.83333   0.31428   0.20929   0.00000  Uiso   1.00
O197   O     0.83334   0.18573   0.20928   0.00000  Uiso   1.00
O198   O     0.83333   0.31427   0.29072   0.00000  Uiso   1.00
O199   O     0.75828   0.25000   0.28132   0.00000  Uiso   1.00
O200   O     0.90839   0.25001   0.21868   0.00000  Uiso   1.00
O201   O     0.75828   0.25000   0.19989   0.00000  Uiso   1.00
O202   O     0.90839   0.25000   0.30012   0.00000  Uiso   1.00
S203   S     0.74816   0.02390   0.30749   0.00000  Uiso   1.00
O204   O     0.77693   0.00476   0.35328   0.00000  Uiso   1.00
O205   O     0.70980   0.05737   0.32071   0.00000  Uiso   1.00
O206   O     0.71650   0.48297   0.27434   0.00000  Uiso   1.00
H207   H     0.69414   0.46934   0.29621   0.00000  Uiso   1.00
S208   S     0.76473   0.47569   0.15673   0.00000  Uiso   1.00
O209   O     0.80196   0.49465   0.12564   0.00000  Uiso   1.00
O210   O     0.73095   0.44197   0.12754   0.00000  Uiso   1.00
O211   O     0.72764   0.01668   0.17413   0.00000  Uiso   1.00
H212   H     0.71326   0.03163   0.14356   0.00000  Uiso   1.00
S213   S     0.91430   0.11570   0.19316   0.00000  Uiso   1.00
O214   O     0.94319   0.14964   0.22632   0.00000  Uiso   1.00
O215   O     0.95153   0.08101   0.18048   0.00000  Uiso   1.00
O216   O     0.88706   0.14028   0.14172   0.00000  Uiso   1.00
H217   H     0.91419   0.16000   0.13220   0.00000  Uiso   1.00
S218   S     0.89978   0.38669   0.33910   0.00000  Uiso   1.00
O219   O     0.93213   0.35029   0.32184   0.00000  Uiso   1.00
O220   O     0.93502   0.42156   0.36449   0.00000  Uiso   1.00
O221   O     0.86321   0.36591   0.37884   0.00000  Uiso   1.00
H222   H     0.84181   0.39110   0.38731   0.00000  Uiso   1.00
C223   C     0.16752   0.66495   0.24988   0.00000  Uiso   1.00
C224   C     0.16760   0.83518   0.25034   0.00000  Uiso   1.00
C225   C     0.19452   0.78187   0.05784   0.00000  Uiso   1.00
C226   C     0.12444   0.73345   0.44051   0.00000  Uiso   1.00
C227   C     0.19417   0.78121   0.10853   0.00000  Uiso   1.00
C228   C     0.12531   0.73356   0.38988   0.00000  Uiso   1.00
C229   C     0.13925   0.71871   0.10093   0.00000  Uiso   1.00
C230   C     0.20828   0.76592   0.40099   0.00000  Uiso   1.00
C231   C     0.13904   0.71786   0.05015   0.00000  Uiso   1.00
C232   C     0.20919   0.76600   0.45184   0.00000  Uiso   1.00
C233   C     0.16679   0.74982   0.02741   0.00000  Uiso   1.00
C234   C     0.16679   0.74978   0.47277   0.00000  Uiso   1.00
C235   C     0.06789   0.74999   0.23754   0.00000  Uiso   1.00
C236   C     0.26544   0.75019   0.26246   0.00000  Uiso   1.00
C237   C     0.01260   0.75000   0.23067   0.00000  Uiso   1.00
C238   C     0.32072   0.75033   0.26935   0.00000  Uiso   1.00
C239   C     0.12638   0.54934   0.27406   0.00000  Uiso   1.00
C240   C     0.13363   0.95074   0.20847   0.00000  Uiso   1.00
C241   C     0.13098   0.59539   0.27489   0.00000  Uiso   1.00
C242   C     0.13792   0.90470   0.21029   0.00000  Uiso   1.00
C243   C     0.16633   0.61663   0.24912   0.00000  Uiso   1.00
C244   C     0.16646   0.88373   0.25036   0.00000  Uiso   1.00
C245   C     0.19862   0.59144   0.22261   0.00000  Uiso   1.00
C246   C     0.19234   0.90959   0.28909   0.00000  Uiso   1.00
C247   C     0.19371   0.54545   0.22165   0.00000  Uiso   1.00
C248   C     0.18725   0.95553   0.28738   0.00000  Uiso   1.00
C249   C     0.15804   0.52442   0.24697   0.00000  Uiso   1.00
C250   C     0.15824   0.97608   0.24773   0.00000  Uiso   1.00
Cu251  Cu    0.16667   0.75000   0.29822   0.00000  Uiso   1.00
Cu252  Cu    0.16667   0.75001   0.20179   0.00000  Uiso   1.00
H253   H     0.32590   0.74967   0.19359   0.00000  Uiso   1.00
H254   H     0.00740   0.75064   0.30643   0.00000  Uiso   1.00
H255   H     0.10656   0.61500   0.29529   0.00000  Uiso   1.00
H256   H     0.11852   0.88494   0.18046   0.00000  Uiso   1.00
H257   H     0.21852   0.52554   0.20198   0.00000  Uiso   1.00
H258   H     0.20680   0.97582   0.31670   0.00000  Uiso   1.00
H259   H     0.21589   0.80781   0.04276   0.00000  Uiso   1.00
H260   H     0.09031   0.72111   0.45400   0.00000  Uiso   1.00
H261   H     0.21589   0.80595   0.13124   0.00000  Uiso   1.00
H262   H     0.09254   0.72039   0.36607   0.00000  Uiso   1.00
H263   H     0.11760   0.69398   0.11764   0.00000  Uiso   1.00
H264   H     0.24120   0.77878   0.38596   0.00000  Uiso   1.00
H265   H     0.11775   0.69182   0.02914   0.00000  Uiso   1.00
H266   H     0.24339   0.77821   0.47446   0.00000  Uiso   1.00
N267   N     0.16667   0.75001   0.12935   0.00000  Uiso   1.00
N268   N     0.16667   0.74999   0.37066   0.00000  Uiso   1.00
O269   O     0.16667   0.68573   0.29072   0.00000  Uiso   1.00
O270   O     0.16666   0.81428   0.20929   0.00000  Uiso   1.00
O271   O     0.16667   0.68573   0.20928   0.00000  Uiso   1.00
O272   O     0.16666   0.81427   0.29072   0.00000  Uiso   1.00
O273   O     0.09161   0.75000   0.28132   0.00000  Uiso   1.00
O274   O     0.24172   0.75001   0.21868   0.00000  Uiso   1.00
O275   O     0.09161   0.75000   0.19989   0.00000  Uiso   1.00
O276   O     0.24172   0.75000   0.30012   0.00000  Uiso   1.00
S277   S     0.08149   0.52390   0.30749   0.00000  Uiso   1.00
O278   O     0.11026   0.50476   0.35328   0.00000  Uiso   1.00
O279   O     0.04313   0.55737   0.32071   0.00000  Uiso   1.00
O280   O     0.04984   0.98297   0.27434   0.00000  Uiso   1.00
H281   H     0.02748   0.96934   0.29621   0.00000  Uiso   1.00
S282   S     0.09807   0.97569   0.15673   0.00000  Uiso   1.00
O283   O     0.13529   0.99465   0.12564   0.00000  Uiso   1.00
O284   O     0.06429   0.94197   0.12754   0.00000  Uiso   1.00
O285   O     0.06098   0.51668   0.17413   0.00000  Uiso   1.00
H286   H     0.04659   0.53163   0.14356   0.00000  Uiso   1.00
S287   S     0.24763   0.61570   0.19316   0.00000  Uiso   1.00
O288   O     0.27652   0.64964   0.22632   0.00000  Uiso   1.00
O289   O     0.28486   0.58101   0.18048   0.00000  Uiso   1.00
O290   O     0.22039   0.64028   0.14172   0.00000  Uiso   1.00
H291   H     0.24752   0.66000   0.13220   0.00000  Uiso   1.00
S292   S     0.23312   0.88669   0.33910   0.00000  Uiso   1.00
O293   O     0.26547   0.85029   0.32184   0.00000  Uiso   1.00
O294   O     0.26836   0.92156   0.36449   0.00000  Uiso   1.00
O295   O     0.19654   0.86591   0.37884   0.00000  Uiso   1.00
H296   H     0.17514   0.89110   0.38731   0.00000  Uiso   1.00
C297   C     0.50086   0.66495   0.24988   0.00000  Uiso   1.00
C298   C     0.50094   0.83518   0.25034   0.00000  Uiso   1.00
C299   C     0.52785   0.78187   0.05784   0.00000  Uiso   1.00
C300   C     0.45777   0.73345   0.44051   0.00000  Uiso   1.00
C301   C     0.52750   0.78121   0.10853   0.00000  Uiso   1.00
C302   C     0.45864   0.73356   0.38988   0.00000  Uiso   1.00
C303   C     0.47258   0.71871   0.10093   0.00000  Uiso   1.00
C304   C     0.54161   0.76592   0.40099   0.00000  Uiso   1.00
C305   C     0.47237   0.71786   0.05015   0.00000  Uiso   1.00
C306   C     0.54252   0.76600   0.45184   0.00000  Uiso   1.00
C307   C     0.50012   0.74982   0.02741   0.00000  Uiso   1.00
C308   C     0.50013   0.74978   0.47277   0.00000  Uiso   1.00
C309   C     0.40122   0.74999   0.23754   0.00000  Uiso   1.00
C310   C     0.59878   0.75019   0.26246   0.00000  Uiso   1.00
C311   C     0.34593   0.75000   0.23067   0.00000  Uiso   1.00
C312   C     0.65406   0.75033   0.26935   0.00000  Uiso   1.00
C313   C     0.45971   0.54934   0.27406   0.00000  Uiso   1.00
C314   C     0.46696   0.95074   0.20847   0.00000  Uiso   1.00
C315   C     0.46431   0.59539   0.27489   0.00000  Uiso   1.00
C316   C     0.47125   0.90470   0.21029   0.00000  Uiso   1.00
C317   C     0.49966   0.61663   0.24912   0.00000  Uiso   1.00
C318   C     0.49980   0.88373   0.25036   0.00000  Uiso   1.00
C319   C     0.53195   0.59144   0.22261   0.00000  Uiso   1.00
C320   C     0.52568   0.90959   0.28909   0.00000  Uiso   1.00
C321   C     0.52704   0.54545   0.22165   0.00000  Uiso   1.00
C322   C     0.52058   0.95553   0.28738   0.00000  Uiso   1.00
C323   C     0.49138   0.52442   0.24697   0.00000  Uiso   1.00
C324   C     0.49158   0.97608   0.24773   0.00000  Uiso   1.00
Cu325  Cu    0.50000   0.75000   0.29822   0.00000  Uiso   1.00
Cu326  Cu    0.50000   0.75001   0.20179   0.00000  Uiso   1.00
H327   H     0.65923   0.74967   0.19359   0.00000  Uiso   1.00
H328   H     0.34074   0.75064   0.30643   0.00000  Uiso   1.00
H329   H     0.43990   0.61500   0.29529   0.00000  Uiso   1.00
H330   H     0.45186   0.88494   0.18046   0.00000  Uiso   1.00
H331   H     0.55185   0.52554   0.20198   0.00000  Uiso   1.00
H332   H     0.54013   0.97582   0.31670   0.00000  Uiso   1.00
H333   H     0.54922   0.80781   0.04276   0.00000  Uiso   1.00
H334   H     0.42365   0.72111   0.45400   0.00000  Uiso   1.00
H335   H     0.54922   0.80595   0.13124   0.00000  Uiso   1.00
H336   H     0.42587   0.72039   0.36607   0.00000  Uiso   1.00
H337   H     0.45093   0.69398   0.11764   0.00000  Uiso   1.00
H338   H     0.57453   0.77878   0.38596   0.00000  Uiso   1.00
H339   H     0.45108   0.69182   0.02914   0.00000  Uiso   1.00
H340   H     0.57672   0.77821   0.47446   0.00000  Uiso   1.00
N341   N     0.50000   0.75001   0.12935   0.00000  Uiso   1.00
N342   N     0.50000   0.74999   0.37066   0.00000  Uiso   1.00
O343   O     0.50000   0.68573   0.29072   0.00000  Uiso   1.00
O344   O     0.50000   0.81428   0.20929   0.00000  Uiso   1.00
O345   O     0.50000   0.68573   0.20928   0.00000  Uiso   1.00
O346   O     0.50000   0.81427   0.29072   0.00000  Uiso   1.00
O347   O     0.42495   0.75000   0.28132   0.00000  Uiso   1.00
O348   O     0.57505   0.75001   0.21868   0.00000  Uiso   1.00
O349   O     0.42495   0.75000   0.19989   0.00000  Uiso   1.00
O350   O     0.57505   0.75000   0.30012   0.00000  Uiso   1.00
S351   S     0.41483   0.52390   0.30749   0.00000  Uiso   1.00
O352   O     0.44360   0.50476   0.35328   0.00000  Uiso   1.00
O353   O     0.37646   0.55737   0.32071   0.00000  Uiso   1.00
O354   O     0.38317   0.98297   0.27434   0.00000  Uiso   1.00
H355   H     0.36081   0.96934   0.29621   0.00000  Uiso   1.00
S356   S     0.43140   0.97569   0.15673   0.00000  Uiso   1.00
O357   O     0.46863   0.99465   0.12564   0.00000  Uiso   1.00
O358   O     0.39762   0.94197   0.12754   0.00000  Uiso   1.00
O359   O     0.39431   0.51668   0.17413   0.00000  Uiso   1.00
H360   H     0.37992   0.53163   0.14356   0.00000  Uiso   1.00
S361   S     0.58096   0.61570   0.19316   0.00000  Uiso   1.00
O362   O     0.60986   0.64964   0.22632   0.00000  Uiso   1.00
O363   O     0.61820   0.58101   0.18048   0.00000  Uiso   1.00
O364   O     0.55372   0.64028   0.14172   0.00000  Uiso   1.00
H365   H     0.58085   0.66000   0.13220   0.00000  Uiso   1.00
S366   S     0.56645   0.88669   0.33910   0.00000  Uiso   1.00
O367   O     0.59880   0.85029   0.32184   0.00000  Uiso   1.00
O368   O     0.60169   0.92156   0.36449   0.00000  Uiso   1.00
O369   O     0.52988   0.86591   0.37884   0.00000  Uiso   1.00
H370   H     0.50848   0.89110   0.38731   0.00000  Uiso   1.00
C371   C     0.83419   0.66495   0.24988   0.00000  Uiso   1.00
C372   C     0.83427   0.83518   0.25034   0.00000  Uiso   1.00
C373   C     0.86118   0.78187   0.05784   0.00000  Uiso   1.00
C374   C     0.79110   0.73345   0.44051   0.00000  Uiso   1.00
C375   C     0.86083   0.78121   0.10853   0.00000  Uiso   1.00
C376   C     0.79198   0.73356   0.38988   0.00000  Uiso   1.00
C377   C     0.80592   0.71871   0.10093   0.00000  Uiso   1.00
C378   C     0.87494   0.76592   0.40099   0.00000  Uiso   1.00
C379   C     0.80570   0.71786   0.05015   0.00000  Uiso   1.00
C380   C     0.87585   0.76600   0.45184   0.00000  Uiso   1.00
C381   C     0.83346   0.74982   0.02741   0.00000  Uiso   1.00
C382   C     0.83346   0.74978   0.47277   0.00000  Uiso   1.00
C383   C     0.73455   0.74999   0.23754   0.00000  Uiso   1.00
C384   C     0.93211   0.75019   0.26246   0.00000  Uiso   1.00
C385   C     0.67927   0.75000   0.23067   0.00000  Uiso   1.00
C386   C     0.98739   0.75033   0.26935   0.00000  Uiso   1.00
C387   C     0.79305   0.54934   0.27406   0.00000  Uiso   1.00
C388   C     0.80030   0.95074   0.20847   0.00000  Uiso   1.00
C389   C     0.79764   0.59539   0.27489   0.00000  Uiso   1.00
C390   C     0.80459   0.90470   0.21029   0.00000  Uiso   1.00
C391   C     0.83299   0.61663   0.24912   0.00000  Uiso   1.00
C392   C     0.83313   0.88373   0.25036   0.00000  Uiso   1.00
C393   C     0.86529   0.59144   0.22261   0.00000  Uiso   1.00
C394   C     0.85901   0.90959   0.28909   0.00000  Uiso   1.00
C395   C     0.86037   0.54545   0.22165   0.00000  Uiso   1.00
C396   C     0.85392   0.95553   0.28738   0.00000  Uiso   1.00
C397   C     0.82471   0.52442   0.24697   0.00000  Uiso   1.00
C398   C     0.82491   0.97608   0.24773   0.00000  Uiso   1.00
Cu399  Cu    0.83333   0.75000   0.29822   0.00000  Uiso   1.00
Cu400  Cu    0.83333   0.75001   0.20179   0.00000  Uiso   1.00
H401   H     0.99256   0.74967   0.19359   0.00000  Uiso   1.00
H402   H     0.67407   0.75064   0.30643   0.00000  Uiso   1.00
H403   H     0.77323   0.61500   0.29529   0.00000  Uiso   1.00
H404   H     0.78519   0.88494   0.18046   0.00000  Uiso   1.00
H405   H     0.88519   0.52554   0.20198   0.00000  Uiso   1.00
H406   H     0.87347   0.97582   0.31670   0.00000  Uiso   1.00
H407   H     0.88255   0.80781   0.04276   0.00000  Uiso   1.00
H408   H     0.75698   0.72111   0.45400   0.00000  Uiso   1.00
H409   H     0.88255   0.80595   0.13124   0.00000  Uiso   1.00
H410   H     0.75921   0.72039   0.36607   0.00000  Uiso   1.00
H411   H     0.78426   0.69398   0.11764   0.00000  Uiso   1.00
H412   H     0.90786   0.77878   0.38596   0.00000  Uiso   1.00
H413   H     0.78441   0.69182   0.02914   0.00000  Uiso   1.00
H414   H     0.91005   0.77821   0.47446   0.00000  Uiso   1.00
N415   N     0.83333   0.75001   0.12935   0.00000  Uiso   1.00
N416   N     0.83333   0.74999   0.37066   0.00000  Uiso   1.00
O417   O     0.83334   0.68573   0.29072   0.00000  Uiso   1.00
O418   O     0.83333   0.81428   0.20929   0.00000  Uiso   1.00
O419   O     0.83334   0.68573   0.20928   0.00000  Uiso   1.00
O420   O     0.83333   0.81427   0.29072   0.00000  Uiso   1.00
O421   O     0.75828   0.75000   0.28132   0.00000  Uiso   1.00
O422   O     0.90839   0.75001   0.21868   0.00000  Uiso   1.00
O423   O     0.75828   0.75000   0.19989   0.00000  Uiso   1.00
O424   O     0.90839   0.75000   0.30012   0.00000  Uiso   1.00
S425   S     0.74816   0.52390   0.30749   0.00000  Uiso   1.00
O426   O     0.77693   0.50476   0.35328   0.00000  Uiso   1.00
O427   O     0.70980   0.55737   0.32071   0.00000  Uiso   1.00
O428   O     0.71650   0.98297   0.27434   0.00000  Uiso   1.00
H429   H     0.69414   0.96934   0.29621   0.00000  Uiso   1.00
S430   S     0.76473   0.97569   0.15673   0.00000  Uiso   1.00
O431   O     0.80196   0.99465   0.12564   0.00000  Uiso   1.00
O432   O     0.73095   0.94197   0.12754   0.00000  Uiso   1.00
O433   O     0.72764   0.51668   0.17413   0.00000  Uiso   1.00
H434   H     0.71326   0.53163   0.14356   0.00000  Uiso   1.00
S435   S     0.91430   0.61570   0.19316   0.00000  Uiso   1.00
O436   O     0.94319   0.64964   0.22632   0.00000  Uiso   1.00
O437   O     0.95153   0.58101   0.18048   0.00000  Uiso   1.00
O438   O     0.88706   0.64028   0.14172   0.00000  Uiso   1.00
H439   H     0.91419   0.66000   0.13220   0.00000  Uiso   1.00
S440   S     0.89978   0.88669   0.33910   0.00000  Uiso   1.00
O441   O     0.93213   0.85029   0.32184   0.00000  Uiso   1.00
O442   O     0.93502   0.92156   0.36449   0.00000  Uiso   1.00
O443   O     0.86321   0.86591   0.37884   0.00000  Uiso   1.00
H444   H     0.84181   0.89110   0.38731   0.00000  Uiso   1.00
C445   C     0.16752   0.16495   0.74988   0.00000  Uiso   1.00
C446   C     0.16760   0.33518   0.75034   0.00000  Uiso   1.00
C447   C     0.19452   0.28187   0.55784   0.00000  Uiso   1.00
C448   C     0.12444   0.23345   0.94051   0.00000  Uiso   1.00
C449   C     0.19417   0.28121   0.60853   0.00000  Uiso   1.00
C450   C     0.12531   0.23356   0.88988   0.00000  Uiso   1.00
C451   C     0.13925   0.21871   0.60093   0.00000  Uiso   1.00
C452   C     0.20828   0.26592   0.90099   0.00000  Uiso   1.00
C453   C     0.13904   0.21786   0.55015   0.00000  Uiso   1.00
C454   C     0.20919   0.26600   0.95184   0.00000  Uiso   1.00
C455   C     0.16679   0.24982   0.52741   0.00000  Uiso   1.00
C456   C     0.16679   0.24978   0.97277   0.00000  Uiso   1.00
C457   C     0.06789   0.24999   0.73754   0.00000  Uiso   1.00
C458   C     0.26544   0.25019   0.76246   0.00000  Uiso   1.00
C459   C     0.01260   0.25000   0.73067   0.00000  Uiso   1.00
C460   C     0.32072   0.25033   0.76935   0.00000  Uiso   1.00
C461   C     0.12638   0.04934   0.77406   0.00000  Uiso   1.00
C462   C     0.13363   0.45074   0.70847   0.00000  Uiso   1.00
C463   C     0.13098   0.09539   0.77489   0.00000  Uiso   1.00
C464   C     0.13792   0.40470   0.71029   0.00000  Uiso   1.00
C465   C     0.16633   0.11663   0.74912   0.00000  Uiso   1.00
C466   C     0.16646   0.38373   0.75036   0.00000  Uiso   1.00
C467   C     0.19862   0.09144   0.72261   0.00000  Uiso   1.00
C468   C     0.19234   0.40959   0.78909   0.00000  Uiso   1.00
C469   C     0.19371   0.04545   0.72165   0.00000  Uiso   1.00
C470   C     0.18725   0.45553   0.78738   0.00000  Uiso   1.00
C471   C     0.15804   0.02442   0.74697   0.00000  Uiso   1.00
C472   C     0.15824   0.47608   0.74773   0.00000  Uiso   1.00
Cu473  Cu    0.16667   0.25000   0.79822   0.00000  Uiso   1.00
Cu474  Cu    0.16667   0.25001   0.70179   0.00000  Uiso   1.00
H475   H     0.32590   0.24967   0.69359   0.00000  Uiso   1.00
H476   H     0.00740   0.25064   0.80643   0.00000  Uiso   1.00
H477   H     0.10656   0.11500   0.79529   0.00000  Uiso   1.00
H478   H     0.11852   0.38494   0.68046   0.00000  Uiso   1.00
H479   H     0.21852   0.02554   0.70198   0.00000  Uiso   1.00
H480   H     0.20680   0.47582   0.81670   0.00000  Uiso   1.00
H481   H     0.21589   0.30781   0.54276   0.00000  Uiso   1.00
H482   H     0.09031   0.22111   0.95400   0.00000  Uiso   1.00
H483   H     0.21589   0.30595   0.63124   0.00000  Uiso   1.00
H484   H     0.09254   0.22039   0.86607   0.00000  Uiso   1.00
H485   H     0.11760   0.19398   0.61764   0.00000  Uiso   1.00
H486   H     0.24120   0.27878   0.88596   0.00000  Uiso   1.00
H487   H     0.11775   0.19182   0.52914   0.00000  Uiso   1.00
H488   H     0.24339   0.27821   0.97446   0.00000  Uiso   1.00
N489   N     0.16667   0.25001   0.62935   0.00000  Uiso   1.00
N490   N     0.16667   0.24999   0.87066   0.00000  Uiso   1.00
O491   O     0.16667   0.18573   0.79072   0.00000  Uiso   1.00
O492   O     0.16666   0.31428   0.70929   0.00000  Uiso   1.00
O493   O     0.16667   0.18573   0.70928   0.00000  Uiso   1.00
O494   O     0.16666   0.31427   0.79072   0.00000  Uiso   1.00
O495   O     0.09161   0.25000   0.78132   0.00000  Uiso   1.00
O496   O     0.24172   0.25001   0.71868   0.00000  Uiso   1.00
O497   O     0.09161   0.25000   0.69989   0.00000  Uiso   1.00
O498   O     0.24172   0.25000   0.80012   0.00000  Uiso   1.00
S499   S     0.08149   0.02390   0.80749   0.00000  Uiso   1.00
O500   O     0.11026   0.00476   0.85328   0.00000  Uiso   1.00
O501   O     0.04313   0.05737   0.82071   0.00000  Uiso   1.00
O502   O     0.04984   0.48297   0.77434   0.00000  Uiso   1.00
H503   H     0.02748   0.46934   0.79621   0.00000  Uiso   1.00
S504   S     0.09807   0.47569   0.65673   0.00000  Uiso   1.00
O505   O     0.13529   0.49465   0.62564   0.00000  Uiso   1.00
O506   O     0.06429   0.44197   0.62754   0.00000  Uiso   1.00
O507   O     0.06098   0.01668   0.67413   0.00000  Uiso   1.00
H508   H     0.04659   0.03163   0.64356   0.00000  Uiso   1.00
S509   S     0.24763   0.11570   0.69316   0.00000  Uiso   1.00
O510   O     0.27652   0.14964   0.72632   0.00000  Uiso   1.00
O511   O     0.28486   0.08101   0.68048   0.00000  Uiso   1.00
O512   O     0.22039   0.14028   0.64172   0.00000  Uiso   1.00
H513   H     0.24752   0.16000   0.63220   0.00000  Uiso   1.00
S514   S     0.23312   0.38669   0.83910   0.00000  Uiso   1.00
O515   O     0.26547   0.35029   0.82184   0.00000  Uiso   1.00
O516   O     0.26836   0.42156   0.86449   0.00000  Uiso   1.00
O517   O     0.19654   0.36591   0.87884   0.00000  Uiso   1.00
H518   H     0.17514   0.39110   0.88731   0.00000  Uiso   1.00
C519   C     0.50086   0.16495   0.74988   0.00000  Uiso   1.00
C520   C     0.50094   0.33518   0.75034   0.00000  Uiso   1.00
C521   C     0.52785   0.28187   0.55784   0.00000  Uiso   1.00
C522   C     0.45777   0.23345   0.94051   0.00000  Uiso   1.00
C523   C     0.52750   0.28121   0.60853   0.00000  Uiso   1.00
C524   C     0.45864   0.23356   0.88988   0.00000  Uiso   1.00
C525   C     0.47258   0.21871   0.60093   0.00000  Uiso   1.00
C526   C     0.54161   0.26592   0.90099   0.00000  Uiso   1.00
C527   C     0.47237   0.21786   0.55015   0.00000  Uiso   1.00
C528   C     0.54252   0.26600   0.95184   0.00000  Uiso   1.00
C529   C     0.50012   0.24982   0.52741   0.00000  Uiso   1.00
C530   C     0.50013   0.24978   0.97277   0.00000  Uiso   1.00
C531   C     0.40122   0.24999   0.73754   0.00000  Uiso   1.00
C532   C     0.59878   0.25019   0.76246   0.00000  Uiso   1.00
C533   C     0.34593   0.25000   0.73067   0.00000  Uiso   1.00
C534   C     0.65406   0.25033   0.76935   0.00000  Uiso   1.00
C535   C     0.45971   0.04934   0.77406   0.00000  Uiso   1.00
C536   C     0.46696   0.45074   0.70847   0.00000  Uiso   1.00
C537   C     0.46431   0.09539   0.77489   0.00000  Uiso   1.00
C538   C     0.47125   0.40470   0.71029   0.00000  Uiso   1.00
C539   C     0.49966   0.11663   0.74912   0.00000  Uiso   1.00
C540   C     0.49980   0.38373   0.75036   0.00000  Uiso   1.00
C541   C     0.53195   0.09144   0.72261   0.00000  Uiso   1.00
C542   C     0.52568   0.40959   0.78909   0.00000  Uiso   1.00
C543   C     0.52704   0.04545   0.72165   0.00000  Uiso   1.00
C544   C     0.52058   0.45553   0.78738   0.00000  Uiso   1.00
C545   C     0.49138   0.02442   0.74697   0.00000  Uiso   1.00
C546   C     0.49158   0.47608   0.74773   0.00000  Uiso   1.00
Cu547  Cu    0.50000   0.25000   0.79822   0.00000  Uiso   1.00
Cu548  Cu    0.50000   0.25001   0.70179   0.00000  Uiso   1.00
H549   H     0.65923   0.24967   0.69359   0.00000  Uiso   1.00
H550   H     0.34074   0.25064   0.80643   0.00000  Uiso   1.00
H551   H     0.43990   0.11500   0.79529   0.00000  Uiso   1.00
H552   H     0.45186   0.38494   0.68046   0.00000  Uiso   1.00
H553   H     0.55185   0.02554   0.70198   0.00000  Uiso   1.00
H554   H     0.54013   0.47582   0.81670   0.00000  Uiso   1.00
H555   H     0.54922   0.30781   0.54276   0.00000  Uiso   1.00
H556   H     0.42365   0.22111   0.95400   0.00000  Uiso   1.00
H557   H     0.54922   0.30595   0.63124   0.00000  Uiso   1.00
H558   H     0.42587   0.22039   0.86607   0.00000  Uiso   1.00
H559   H     0.45093   0.19398   0.61764   0.00000  Uiso   1.00
H560   H     0.57453   0.27878   0.88596   0.00000  Uiso   1.00
H561   H     0.45108   0.19182   0.52914   0.00000  Uiso   1.00
H562   H     0.57672   0.27821   0.97446   0.00000  Uiso   1.00
N563   N     0.50000   0.25001   0.62935   0.00000  Uiso   1.00
N564   N     0.50000   0.24999   0.87066   0.00000  Uiso   1.00
O565   O     0.50000   0.18573   0.79072   0.00000  Uiso   1.00
O566   O     0.50000   0.31428   0.70929   0.00000  Uiso   1.00
O567   O     0.50000   0.18573   0.70928   0.00000  Uiso   1.00
O568   O     0.50000   0.31427   0.79072   0.00000  Uiso   1.00
O569   O     0.42495   0.25000   0.78132   0.00000  Uiso   1.00
O570   O     0.57505   0.25001   0.71868   0.00000  Uiso   1.00
O571   O     0.42495   0.25000   0.69989   0.00000  Uiso   1.00
O572   O     0.57505   0.25000   0.80012   0.00000  Uiso   1.00
S573   S     0.41483   0.02390   0.80749   0.00000  Uiso   1.00
O574   O     0.44360   0.00476   0.85328   0.00000  Uiso   1.00
O575   O     0.37646   0.05737   0.82071   0.00000  Uiso   1.00
O576   O     0.38317   0.48297   0.77434   0.00000  Uiso   1.00
H577   H     0.36081   0.46934   0.79621   0.00000  Uiso   1.00
S578   S     0.43140   0.47569   0.65673   0.00000  Uiso   1.00
O579   O     0.46863   0.49465   0.62564   0.00000  Uiso   1.00
O580   O     0.39762   0.44197   0.62754   0.00000  Uiso   1.00
O581   O     0.39431   0.01668   0.67413   0.00000  Uiso   1.00
H582   H     0.37992   0.03163   0.64356   0.00000  Uiso   1.00
S583   S     0.58096   0.11570   0.69316   0.00000  Uiso   1.00
O584   O     0.60986   0.14964   0.72632   0.00000  Uiso   1.00
O585   O     0.61820   0.08101   0.68048   0.00000  Uiso   1.00
O586   O     0.55372   0.14028   0.64172   0.00000  Uiso   1.00
H587   H     0.58085   0.16000   0.63220   0.00000  Uiso   1.00
S588   S     0.56645   0.38669   0.83910   0.00000  Uiso   1.00
O589   O     0.59880   0.35029   0.82184   0.00000  Uiso   1.00
O590   O     0.60169   0.42156   0.86449   0.00000  Uiso   1.00
O591   O     0.52988   0.36591   0.87884   0.00000  Uiso   1.00
H592   H     0.50848   0.39110   0.88731   0.00000  Uiso   1.00
C593   C     0.83419   0.16495   0.74988   0.00000  Uiso   1.00
C594   C     0.83427   0.33518   0.75034   0.00000  Uiso   1.00
C595   C     0.86118   0.28187   0.55784   0.00000  Uiso   1.00
C596   C     0.79110   0.23345   0.94051   0.00000  Uiso   1.00
C597   C     0.86083   0.28121   0.60853   0.00000  Uiso   1.00
C598   C     0.79198   0.23356   0.88988   0.00000  Uiso   1.00
C599   C     0.80592   0.21871   0.60093   0.00000  Uiso   1.00
C600   C     0.87494   0.26592   0.90099   0.00000  Uiso   1.00
C601   C     0.80570   0.21786   0.55015   0.00000  Uiso   1.00
C602   C     0.87585   0.26600   0.95184   0.00000  Uiso   1.00
C603   C     0.83346   0.24982   0.52741   0.00000  Uiso   1.00
C604   C     0.83346   0.24978   0.97277   0.00000  Uiso   1.00
C605   C     0.73455   0.24999   0.73754   0.00000  Uiso   1.00
C606   C     0.93211   0.25019   0.76246   0.00000  Uiso   1.00
C607   C     0.67927   0.25000   0.73067   0.00000  Uiso   1.00
C608   C     0.98739   0.25033   0.76935   0.00000  Uiso   1.00
C609   C     0.79305   0.04934   0.77406   0.00000  Uiso   1.00
C610   C     0.80030   0.45074   0.70847   0.00000  Uiso   1.00
C611   C     0.79764   0.09539   0.77489   0.00000  Uiso   1.00
C612   C     0.80459   0.40470   0.71029   0.00000  Uiso   1.00
C613   C     0.83299   0.11663   0.74912   0.00000  Uiso   1.00
C614   C     0.83313   0.38373   0.75036   0.00000  Uiso   1.00
C615   C     0.86529   0.09144   0.72261   0.00000  Uiso   1.00
C616   C     0.85901   0.40959   0.78909   0.00000  Uiso   1.00
C617   C     0.86037   0.04545   0.72165   0.00000  Uiso   1.00
C618   C     0.85392   0.45553   0.78738   0.00000  Uiso   1.00
C619   C     0.82471   0.02442   0.74697   0.00000  Uiso   1.00
C620   C     0.82491   0.47608   0.74773   0.00000  Uiso   1.00
Cu621  Cu    0.83333   0.25000   0.79822   0.00000  Uiso   1.00
Cu622  Cu    0.83333   0.25001   0.70179   0.00000  Uiso   1.00
H623   H     0.99256   0.24967   0.69359   0.00000  Uiso   1.00
H624   H     0.67407   0.25064   0.80643   0.00000  Uiso   1.00
H625   H     0.77323   0.11500   0.79529   0.00000  Uiso   1.00
H626   H     0.78519   0.38494   0.68046   0.00000  Uiso   1.00
H627   H     0.88519   0.02554   0.70198   0.00000  Uiso   1.00
H628   H     0.87347   0.47582   0.81670   0.00000  Uiso   1.00
H629   H     0.88255   0.30781   0.54276   0.00000  Uiso   1.00
H630   H     0.75698   0.22111   0.95400   0.00000  Uiso   1.00
H631   H     0.88255   0.30595   0.63124   0.00000  Uiso   1.00
H632   H     0.75921   0.22039   0.86607   0.00000  Uiso   1.00
H633   H     0.78426   0.19398   0.61764   0.00000  Uiso   1.00
H634   H     0.90786   0.27878   0.88596   0.00000  Uiso   1.00
H635   H     0.78441   0.19182   0.52914   0.00000  Uiso   1.00
H636   H     0.91005   0.27821   0.97446   0.00000  Uiso   1.00
N637   N     0.83333   0.25001   0.62935   0.00000  Uiso   1.00
N638   N     0.83333   0.24999   0.87066   0.00000  Uiso   1.00
O639   O     0.83334   0.18573   0.79072   0.00000  Uiso   1.00
O640   O     0.83333   0.31428   0.70929   0.00000  Uiso   1.00
O641   O     0.83334   0.18573   0.70928   0.00000  Uiso   1.00
O642   O     0.83333   0.31427   0.79072   0.00000  Uiso   1.00
O643   O     0.75828   0.25000   0.78132   0.00000  Uiso   1.00
O644   O     0.90839   0.25001   0.71868   0.00000  Uiso   1.00
O645   O     0.75828   0.25000   0.69989   0.00000  Uiso   1.00
O646   O     0.90839   0.25000   0.80012   0.00000  Uiso   1.00
S647   S     0.74816   0.02390   0.80749   0.00000  Uiso   1.00
O648   O     0.77693   0.00476   0.85328   0.00000  Uiso   1.00
O649   O     0.70980   0.05737   0.82071   0.00000  Uiso   1.00
O650   O     0.71650   0.48297   0.77434   0.00000  Uiso   1.00
H651   H     0.69414   0.46934   0.79621   0.00000  Uiso   1.00
S652   S     0.76473   0.47569   0.65673   0.00000  Uiso   1.00
O653   O     0.80196   0.49465   0.62564   0.00000  Uiso   1.00
O654   O     0.73095   0.44197   0.62754   0.00000  Uiso   1.00
O655   O     0.72764   0.01668   0.67413   0.00000  Uiso   1.00
H656   H     0.71326   0.03163   0.64356   0.00000  Uiso   1.00
S657   S     0.91430   0.11570   0.69316   0.00000  Uiso   1.00
O658   O     0.94319   0.14964   0.72632   0.00000  Uiso   1.00
O659   O     0.95153   0.08101   0.68048   0.00000  Uiso   1.00
O660   O     0.88706   0.14028   0.64172   0.00000  Uiso   1.00
H661   H     0.91419   0.16000   0.63220   0.00000  Uiso   1.00
S662   S     0.89978   0.38669   0.83910   0.00000  Uiso   1.00
O663   O     0.93213   0.35029   0.82184   0.00000  Uiso   1.00
O664   O     0.93502   0.42156   0.86449   0.00000  Uiso   1.00
O665   O     0.86321   0.36591   0.87884   0.00000  Uiso   1.00
H666   H     0.84181   0.39110   0.88731   0.00000  Uiso   1.00
C667   C     0.16752   0.66495   0.74988   0.00000  Uiso   1.00
C668   C     0.16760   0.83518   0.75034   0.00000  Uiso   1.00
C669   C     0.19452   0.78187   0.55784   0.00000  Uiso   1.00
C670   C     0.12444   0.73345   0.94051   0.00000  Uiso   1.00
C671   C     0.19417   0.78121   0.60853   0.00000  Uiso   1.00
C672   C     0.12531   0.73356   0.88988   0.00000  Uiso   1.00
C673   C     0.13925   0.71871   0.60093   0.00000  Uiso   1.00
C674   C     0.20828   0.76592   0.90099   0.00000  Uiso   1.00
C675   C     0.13904   0.71786   0.55015   0.00000  Uiso   1.00
C676   C     0.20919   0.76600   0.95184   0.00000  Uiso   1.00
C677   C     0.16679   0.74982   0.52741   0.00000  Uiso   1.00
C678   C     0.16679   0.74978   0.97277   0.00000  Uiso   1.00
C679   C     0.06789   0.74999   0.73754   0.00000  Uiso   1.00
C680   C     0.26544   0.75019   0.76246   0.00000  Uiso   1.00
C681   C     0.01260   0.75000   0.73067   0.00000  Uiso   1.00
C682   C     0.32072   0.75033   0.76935   0.00000  Uiso   1.00
C683   C     0.12638   0.54934   0.77406   0.00000  Uiso   1.00
C684   C     0.13363   0.95074   0.70847   0.00000  Uiso   1.00
C685   C     0.13098   0.59539   0.77489   0.00000  Uiso   1.00
C686   C     0.13792   0.90470   0.71029   0.00000  Uiso   1.00
C687   C     0.16633   0.61663   0.74912   0.00000  Uiso   1.00
C688   C     0.16646   0.88373   0.75036   0.00000  Uiso   1.00
C689   C     0.19862   0.59144   0.72261   0.00000  Uiso   1.00
C690   C     0.19234   0.90959   0.78909   0.00000  Uiso   1.00
C691   C     0.19371   0.54545   0.72165   0.00000  Uiso   1.00
C692   C     0.18725   0.95553   0.78738   0.00000  Uiso   1.00
C693   C     0.15804   0.52442   0.74697   0.00000  Uiso   1.00
C694   C     0.15824   0.97608   0.74773   0.00000  Uiso   1.00
Cu695  Cu    0.16667   0.75000   0.79822   0.00000  Uiso   1.00
Cu696  Cu    0.16667   0.75001   0.70179   0.00000  Uiso   1.00
H697   H     0.32590   0.74967   0.69359   0.00000  Uiso   1.00
H698   H     0.00740   0.75064   0.80643   0.00000  Uiso   1.00
H699   H     0.10656   0.61500   0.79529   0.00000  Uiso   1.00
H700   H     0.11852   0.88494   0.68046   0.00000  Uiso   1.00
H701   H     0.21852   0.52554   0.70198   0.00000  Uiso   1.00
H702   H     0.20680   0.97582   0.81670   0.00000  Uiso   1.00
H703   H     0.21589   0.80781   0.54276   0.00000  Uiso   1.00
H704   H     0.09031   0.72111   0.95400   0.00000  Uiso   1.00
H705   H     0.21589   0.80595   0.63124   0.00000  Uiso   1.00
H706   H     0.09254   0.72039   0.86607   0.00000  Uiso   1.00
H707   H     0.11760   0.69398   0.61764   0.00000  Uiso   1.00
H708   H     0.24120   0.77878   0.88596   0.00000  Uiso   1.00
H709   H     0.11775   0.69182   0.52914   0.00000  Uiso   1.00
H710   H     0.24339   0.77821   0.97446   0.00000  Uiso   1.00
N711   N     0.16667   0.75001   0.62935   0.00000  Uiso   1.00
N712   N     0.16667   0.74999   0.87066   0.00000  Uiso   1.00
O713   O     0.16667   0.68573   0.79072   0.00000  Uiso   1.00
O714   O     0.16666   0.81428   0.70929   0.00000  Uiso   1.00
O715   O     0.16667   0.68573   0.70928   0.00000  Uiso   1.00
O716   O     0.16666   0.81427   0.79072   0.00000  Uiso   1.00
O717   O     0.09161   0.75000   0.78132   0.00000  Uiso   1.00
O718   O     0.24172   0.75001   0.71868   0.00000  Uiso   1.00
O719   O     0.09161   0.75000   0.69989   0.00000  Uiso   1.00
O720   O     0.24172   0.75000   0.80012   0.00000  Uiso   1.00
S721   S     0.08149   0.52390   0.80749   0.00000  Uiso   1.00
O722   O     0.11026   0.50476   0.85328   0.00000  Uiso   1.00
O723   O     0.04313   0.55737   0.82071   0.00000  Uiso   1.00
O724   O     0.04984   0.98297   0.77434   0.00000  Uiso   1.00
H725   H     0.02748   0.96934   0.79621   0.00000  Uiso   1.00
S726   S     0.09807   0.97569   0.65673   0.00000  Uiso   1.00
O727   O     0.13529   0.99465   0.62564   0.00000  Uiso   1.00
O728   O     0.06429   0.94197   0.62754   0.00000  Uiso   1.00
O729   O     0.06098   0.51668   0.67413   0.00000  Uiso   1.00
H730   H     0.04659   0.53163   0.64356   0.00000  Uiso   1.00
S731   S     0.24763   0.61570   0.69316   0.00000  Uiso   1.00
O732   O     0.27652   0.64964   0.72632   0.00000  Uiso   1.00
O733   O     0.28486   0.58101   0.68048   0.00000  Uiso   1.00
O734   O     0.22039   0.64028   0.64172   0.00000  Uiso   1.00
H735   H     0.24752   0.66000   0.63220   0.00000  Uiso   1.00
S736   S     0.23312   0.88669   0.83910   0.00000  Uiso   1.00
O737   O     0.26547   0.85029   0.82184   0.00000  Uiso   1.00
O738   O     0.26836   0.92156   0.86449   0.00000  Uiso   1.00
O739   O     0.19654   0.86591   0.87884   0.00000  Uiso   1.00
H740   H     0.17514   0.89110   0.88731   0.00000  Uiso   1.00
C741   C     0.50086   0.66495   0.74988   0.00000  Uiso   1.00
C742   C     0.50094   0.83518   0.75034   0.00000  Uiso   1.00
C743   C     0.52785   0.78187   0.55784   0.00000  Uiso   1.00
C744   C     0.45777   0.73345   0.94051   0.00000  Uiso   1.00
C745   C     0.52750   0.78121   0.60853   0.00000  Uiso   1.00
C746   C     0.45864   0.73356   0.88988   0.00000  Uiso   1.00
C747   C     0.47258   0.71871   0.60093   0.00000  Uiso   1.00
C748   C     0.54161   0.76592   0.90099   0.00000  Uiso   1.00
C749   C     0.47237   0.71786   0.55015   0.00000  Uiso   1.00
C750   C     0.54252   0.76600   0.95184   0.00000  Uiso   1.00
C751   C     0.50012   0.74982   0.52741   0.00000  Uiso   1.00
C752   C     0.50013   0.74978   0.97277   0.00000  Uiso   1.00
C753   C     0.40122   0.74999   0.73754   0.00000  Uiso   1.00
C754   C     0.59878   0.75019   0.76246   0.00000  Uiso   1.00
C755   C     0.34593   0.75000   0.73067   0.00000  Uiso   1.00
C756   C     0.65406   0.75033   0.76935   0.00000  Uiso   1.00
C757   C     0.45971   0.54934   0.77406   0.00000  Uiso   1.00
C758   C     0.46696   0.95074   0.70847   0.00000  Uiso   1.00
C759   C     0.46431   0.59539   0.77489   0.00000  Uiso   1.00
C760   C     0.47125   0.90470   0.71029   0.00000  Uiso   1.00
C761   C     0.49966   0.61663   0.74912   0.00000  Uiso   1.00
C762   C     0.49980   0.88373   0.75036   0.00000  Uiso   1.00
C763   C     0.53195   0.59144   0.72261   0.00000  Uiso   1.00
C764   C     0.52568   0.90959   0.78909   0.00000  Uiso   1.00
C765   C     0.52704   0.54545   0.72165   0.00000  Uiso   1.00
C766   C     0.52058   0.95553   0.78738   0.00000  Uiso   1.00
C767   C     0.49138   0.52442   0.74697   0.00000  Uiso   1.00
C768   C     0.49158   0.97608   0.74773   0.00000  Uiso   1.00
Cu769  Cu    0.50000   0.75000   0.79822   0.00000  Uiso   1.00
Cu770  Cu    0.50000   0.75001   0.70179   0.00000  Uiso   1.00
H771   H     0.65923   0.74967   0.69359   0.00000  Uiso   1.00
H772   H     0.34074   0.75064   0.80643   0.00000  Uiso   1.00
H773   H     0.43990   0.61500   0.79529   0.00000  Uiso   1.00
H774   H     0.45186   0.88494   0.68046   0.00000  Uiso   1.00
H775   H     0.55185   0.52554   0.70198   0.00000  Uiso   1.00
H776   H     0.54013   0.97582   0.81670   0.00000  Uiso   1.00
H777   H     0.54922   0.80781   0.54276   0.00000  Uiso   1.00
H778   H     0.42365   0.72111   0.95400   0.00000  Uiso   1.00
H779   H     0.54922   0.80595   0.63124   0.00000  Uiso   1.00
H780   H     0.42587   0.72039   0.86607   0.00000  Uiso   1.00
H781   H     0.45093   0.69398   0.61764   0.00000  Uiso   1.00
H782   H     0.57453   0.77878   0.88596   0.00000  Uiso   1.00
H783   H     0.45108   0.69182   0.52914   0.00000  Uiso   1.00
H784   H     0.57672   0.77821   0.97446   0.00000  Uiso   1.00
N785   N     0.50000   0.75001   0.62935   0.00000  Uiso   1.00
N786   N     0.50000   0.74999   0.87066   0.00000  Uiso   1.00
O787   O     0.50000   0.68573   0.79072   0.00000  Uiso   1.00
O788   O     0.50000   0.81428   0.70929   0.00000  Uiso   1.00
O789   O     0.50000   0.68573   0.70928   0.00000  Uiso   1.00
O790   O     0.50000   0.81427   0.79072   0.00000  Uiso   1.00
O791   O     0.42495   0.75000   0.78132   0.00000  Uiso   1.00
O792   O     0.57505   0.75001   0.71868   0.00000  Uiso   1.00
O793   O     0.42495   0.75000   0.69989   0.00000  Uiso   1.00
O794   O     0.57505   0.75000   0.80012   0.00000  Uiso   1.00
S795   S     0.41483   0.52390   0.80749   0.00000  Uiso   1.00
O796   O     0.44360   0.50476   0.85328   0.00000  Uiso   1.00
O797   O     0.37646   0.55737   0.82071   0.00000  Uiso   1.00
O798   O     0.38317   0.98297   0.77434   0.00000  Uiso   1.00
H799   H     0.36081   0.96934   0.79621   0.00000  Uiso   1.00
S800   S     0.43140   0.97569   0.65673   0.00000  Uiso   1.00
O801   O     0.46863   0.99465   0.62564   0.00000  Uiso   1.00
O802   O     0.39762   0.94197   0.62754   0.00000  Uiso   1.00
O803   O     0.39431   0.51668   0.67413   0.00000  Uiso   1.00
H804   H     0.37992   0.53163   0.64356   0.00000  Uiso   1.00
S805   S     0.58096   0.61570   0.69316   0.00000  Uiso   1.00
O806   O     0.60986   0.64964   0.72632   0.00000  Uiso   1.00
O807   O     0.61820   0.58101   0.68048   0.00000  Uiso   1.00
O808   O     0.55372   0.64028   0.64172   0.00000  Uiso   1.00
H809   H     0.58085   0.66000   0.63220   0.00000  Uiso   1.00
S810   S     0.56645   0.88669   0.83910   0.00000  Uiso   1.00
O811   O     0.59880   0.85029   0.82184   0.00000  Uiso   1.00
O812   O     0.60169   0.92156   0.86449   0.00000  Uiso   1.00
O813   O     0.52988   0.86591   0.87884   0.00000  Uiso   1.00
H814   H     0.50848   0.89110   0.88731   0.00000  Uiso   1.00
C815   C     0.83419   0.66495   0.74988   0.00000  Uiso   1.00
C816   C     0.83427   0.83518   0.75034   0.00000  Uiso   1.00
C817   C     0.86118   0.78187   0.55784   0.00000  Uiso   1.00
C818   C     0.79110   0.73345   0.94051   0.00000  Uiso   1.00
C819   C     0.86083   0.78121   0.60853   0.00000  Uiso   1.00
C820   C     0.79198   0.73356   0.88988   0.00000  Uiso   1.00
C821   C     0.80592   0.71871   0.60093   0.00000  Uiso   1.00
C822   C     0.87494   0.76592   0.90099   0.00000  Uiso   1.00
C823   C     0.80570   0.71786   0.55015   0.00000  Uiso   1.00
C824   C     0.87585   0.76600   0.95184   0.00000  Uiso   1.00
C825   C     0.83346   0.74982   0.52741   0.00000  Uiso   1.00
C826   C     0.83346   0.74978   0.97277   0.00000  Uiso   1.00
C827   C     0.73455   0.74999   0.73754   0.00000  Uiso   1.00
C828   C     0.93211   0.75019   0.76246   0.00000  Uiso   1.00
C829   C     0.67927   0.75000   0.73067   0.00000  Uiso   1.00
C830   C     0.98739   0.75033   0.76935   0.00000  Uiso   1.00
C831   C     0.79305   0.54934   0.77406   0.00000  Uiso   1.00
C832   C     0.80030   0.95074   0.70847   0.00000  Uiso   1.00
C833   C     0.79764   0.59539   0.77489   0.00000  Uiso   1.00
C834   C     0.80459   0.90470   0.71029   0.00000  Uiso   1.00
C835   C     0.83299   0.61663   0.74912   0.00000  Uiso   1.00
C836   C     0.83313   0.88373   0.75036   0.00000  Uiso   1.00
C837   C     0.86529   0.59144   0.72261   0.00000  Uiso   1.00
C838   C     0.85901   0.90959   0.78909   0.00000  Uiso   1.00
C839   C     0.86037   0.54545   0.72165   0.00000  Uiso   1.00
C840   C     0.85392   0.95553   0.78738   0.00000  Uiso   1.00
C841   C     0.82471   0.52442   0.74697   0.00000  Uiso   1.00
C842   C     0.82491   0.97608   0.74773   0.00000  Uiso   1.00
Cu843  Cu    0.83333   0.75000   0.79822   0.00000  Uiso   1.00
Cu844  Cu    0.83333   0.75001   0.70179   0.00000  Uiso   1.00
H845   H     0.99256   0.74967   0.69359   0.00000  Uiso   1.00
H846   H     0.67407   0.75064   0.80643   0.00000  Uiso   1.00
H847   H     0.77323   0.61500   0.79529   0.00000  Uiso   1.00
H848   H     0.78519   0.88494   0.68046   0.00000  Uiso   1.00
H849   H     0.88519   0.52554   0.70198   0.00000  Uiso   1.00
H850   H     0.87347   0.97582   0.81670   0.00000  Uiso   1.00
H851   H     0.88255   0.80781   0.54276   0.00000  Uiso   1.00
H852   H     0.75698   0.72111   0.95400   0.00000  Uiso   1.00
H853   H     0.88255   0.80595   0.63124   0.00000  Uiso   1.00
H854   H     0.75921   0.72039   0.86607   0.00000  Uiso   1.00
H855   H     0.78426   0.69398   0.61764   0.00000  Uiso   1.00
H856   H     0.90786   0.77878   0.88596   0.00000  Uiso   1.00
H857   H     0.78441   0.69182   0.52914   0.00000  Uiso   1.00
H858   H     0.91005   0.77821   0.97446   0.00000  Uiso   1.00
N859   N     0.83333   0.75001   0.62935   0.00000  Uiso   1.00
N860   N     0.83333   0.74999   0.87066   0.00000  Uiso   1.00
O861   O     0.83334   0.68573   0.79072   0.00000  Uiso   1.00
O862   O     0.83333   0.81428   0.70929   0.00000  Uiso   1.00
O863   O     0.83334   0.68573   0.70928   0.00000  Uiso   1.00
O864   O     0.83333   0.81427   0.79072   0.00000  Uiso   1.00
O865   O     0.75828   0.75000   0.78132   0.00000  Uiso   1.00
O866   O     0.90839   0.75001   0.71868   0.00000  Uiso   1.00
O867   O     0.75828   0.75000   0.69989   0.00000  Uiso   1.00
O868   O     0.90839   0.75000   0.80012   0.00000  Uiso   1.00
S869   S     0.74816   0.52390   0.80749   0.00000  Uiso   1.00
O870   O     0.77693   0.50476   0.85328   0.00000  Uiso   1.00
O871   O     0.70980   0.55737   0.82071   0.00000  Uiso   1.00
O872   O     0.71650   0.98297   0.77434   0.00000  Uiso   1.00
H873   H     0.69414   0.96934   0.79621   0.00000  Uiso   1.00
S874   S     0.76473   0.97569   0.65673   0.00000  Uiso   1.00
O875   O     0.80196   0.99465   0.62564   0.00000  Uiso   1.00
O876   O     0.73095   0.94197   0.62754   0.00000  Uiso   1.00
O877   O     0.72764   0.51668   0.67413   0.00000  Uiso   1.00
H878   H     0.71326   0.53163   0.64356   0.00000  Uiso   1.00
S879   S     0.91430   0.61570   0.69316   0.00000  Uiso   1.00
O880   O     0.94319   0.64964   0.72632   0.00000  Uiso   1.00
O881   O     0.95153   0.58101   0.68048   0.00000  Uiso   1.00
O882   O     0.88706   0.64028   0.64172   0.00000  Uiso   1.00
H883   H     0.91419   0.66000   0.63220   0.00000  Uiso   1.00
S884   S     0.89978   0.88669   0.83910   0.00000  Uiso   1.00
O885   O     0.93213   0.85029   0.82184   0.00000  Uiso   1.00
O886   O     0.93502   0.92156   0.86449   0.00000  Uiso   1.00
O887   O     0.86321   0.86591   0.87884   0.00000  Uiso   1.00
H888   H     0.84181   0.89110   0.88731   0.00000  Uiso   1.00
loop_
_geom_bond_atom_site_label_1
_geom_bond_atom_site_label_2
_geom_bond_distance
_geom_bond_site_symmetry_2
_ccdc_geom_bond_type
C1     C21     1.459   .     S
C1     O47     1.293   .     A
C1     O49     1.290   .     A
C2     C22     1.466   .     S
C2     O50     1.293   .     A
C2     O48     1.295   .     A
C3     C5      1.407   .     A
C3     C11     1.411   .     A
C3     H37     1.082   .     S
C4     C12     1.410   .     A
C4     C6      1.407   .     A
C4     H38     1.082   .     S
C5     H39     1.082   .     S
C5     N45     1.364   .     A
C6     H40     1.081   .     S
C6     N46     1.365   .     A
C7     N45     1.364   .     A
C7     C9      1.407   .     A
C7     H41     1.082   .     S
C8     H42     1.080   .     S
C8     N46     1.365   .     A
C8     C10     1.407   .     A
C9     C11     1.411   .     A
C9     H43     1.082   .     S
C10    C12     1.410   .     A
C10    H44     1.082   .     S
C11    C456    1.515   1_554 S
C12    C455    1.515   .     S
C13    O51     1.284   .     A
C13    O53     1.287   .     A
C13    C15     1.432   .     S
C14    O54     1.286   .     A
C14    C16     1.432   .     S
C14    O52     1.285   .     A
C15    C164    1.335   1_455 S
C15    H179    1.087   1_455 S
C16    C89     1.335   .     S
C16    H106    1.087   .     S
C17    S55     1.772   .     S
C17    C27     1.408   .     A
C17    C19     1.395   .     A
C18    C28     1.406   .     A
C18    C20     1.395   .     A
C18    S60     1.771   .     S
C19    C21     1.402   .     A
C19    H33     1.084   .     S
C20    H34     1.083   .     S
C20    C22     1.405   .     A
C21    C23     1.413   .     A
C22    C24     1.416   .     A
C23    S65     1.773   .     S
C23    C25     1.394   .     A
C24    S70     1.773   .     S
C24    C26     1.394   .     A
C25    H35     1.084   .     S
C25    C27     1.398   .     A
C26    C28     1.396   .     A
C26    H36     1.084   .     S
C27    C250    1.460   1_545 S
C28    C249    1.460   .     S
Cu29   Cu30    2.674   .     S
Cu29   N46     2.009   .     S
Cu29   O47     1.950   .     S
Cu29   O50     1.953   .     S
Cu29   O51     1.954   .     S
Cu29   O54     1.957   .     S
Cu30   N45     2.009   .     S
Cu30   O48     1.950   .     S
Cu30   O49     1.953   .     S
Cu30   O53     1.957   .     S
Cu30   O52     1.954   .     S
H31    C89     1.087   .     S
H32    C164    1.087   1_455 S
S55    O56     1.503   .     D
S55    O57     1.503   .     D
S55    O280    1.682   1_545 S
O58    H59     0.991   .     S
O58    S277    1.682   .     S
S60    O62     1.503   .     D
S60    O61     1.503   .     D
S60    O285    1.682   .     S
O63    H64     0.990   .     S
O63    S282    1.682   1_545 S
S65    O68     1.681   .     S
S65    O66     1.503   .     D
S65    O67     1.503   .     D
O68    H69     0.991   .     S
S70    O73     1.681   .     S
S70    O71     1.503   .     D
S70    O72     1.504   .     D
O73    H74     0.991   .     S
C75    C95     1.459   .     S
C75    O121    1.293   .     A
C75    O123    1.290   .     A
C76    C96     1.466   .     S
C76    O124    1.293   .     A
C76    O122    1.295   .     A
C77    C79     1.407   .     A
C77    C85     1.411   .     A
C77    H111    1.082   .     S
C78    C86     1.410   .     A
C78    C80     1.407   .     A
C78    H112    1.082   .     S
C79    H113    1.082   .     S
C79    N119    1.364   .     A
C80    H114    1.081   .     S
C80    N120    1.365   .     A
C81    N119    1.364   .     A
C81    C83     1.407   .     A
C81    H115    1.082   .     S
C82    H116    1.080   .     S
C82    N120    1.365   .     A
C82    C84     1.407   .     A
C83    C85     1.411   .     A
C83    H117    1.082   .     S
C84    C86     1.410   .     A
C84    H118    1.082   .     S
C85    C530    1.515   1_554 S
C86    C529    1.515   .     S
C87    O125    1.284   .     A
C87    O127    1.287   .     A
C87    C89     1.432   .     S
C88    O128    1.286   .     A
C88    C90     1.432   .     S
C88    O126    1.285   .     A
C90    C163    1.335   .     S
C90    H180    1.087   .     S
C91    S129    1.772   .     S
C91    C101    1.408   .     A
C91    C93     1.395   .     A
C92    C102    1.406   .     A
C92    C94     1.395   .     A
C92    S134    1.771   .     S
C93    C95     1.402   .     A
C93    H107    1.084   .     S
C94    H108    1.083   .     S
C94    C96     1.405   .     A
C95    C97     1.413   .     A
C96    C98     1.416   .     A
C97    S139    1.773   .     S
C97    C99     1.394   .     A
C98    S144    1.773   .     S
C98    C100    1.394   .     A
C99    H109    1.084   .     S
C99    C101    1.398   .     A
C100   C102    1.396   .     A
C100   H110    1.084   .     S
C101   C324    1.460   1_545 S
C102   C323    1.460   .     S
Cu103  Cu104   2.674   .     S
Cu103  N120    2.009   .     S
Cu103  O121    1.950   .     S
Cu103  O124    1.953   .     S
Cu103  O125    1.954   .     S
Cu103  O128    1.957   .     S
Cu104  N119    2.009   .     S
Cu104  O122    1.950   .     S
Cu104  O123    1.953   .     S
Cu104  O127    1.957   .     S
Cu104  O126    1.954   .     S
H105   C163    1.087   .     S
S129   O130    1.503   .     D
S129   O131    1.503   .     D
S129   O354    1.682   1_545 S
O132   H133    0.991   .     S
O132   S351    1.682   .     S
S134   O136    1.503   .     D
S134   O135    1.503   .     D
S134   O359    1.682   .     S
O137   H138    0.990   .     S
O137   S356    1.682   1_545 S
S139   O142    1.681   .     S
S139   O140    1.503   .     D
S139   O141    1.503   .     D
O142   H143    0.991   .     S
S144   O147    1.681   .     S
S144   O145    1.503   .     D
S144   O146    1.504   .     D
O147   H148    0.991   .     S
C149   C169    1.459   .     S
C149   O195    1.293   .     A
C149   O197    1.290   .     A
C150   C170    1.466   .     S
C150   O198    1.293   .     A
C150   O196    1.295   .     A
C151   C153    1.407   .     A
C151   C159    1.411   .     A
C151   H185    1.082   .     S
C152   C160    1.410   .     A
C152   C154    1.407   .     A
C152   H186    1.082   .     S
C153   H187    1.082   .     S
C153   N193    1.364   .     A
C154   H188    1.081   .     S
C154   N194    1.365   .     A
C155   N193    1.364   .     A
C155   C157    1.407   .     A
C155   H189    1.082   .     S
C156   H190    1.080   .     S
C156   N194    1.365   .     A
C156   C158    1.407   .     A
C157   C159    1.411   .     A
C157   H191    1.082   .     S
C158   C160    1.410   .     A
C158   H192    1.082   .     S
C159   C604    1.515   1_554 S
C160   C603    1.515   .     S
C161   O199    1.284   .     A
C161   O201    1.287   .     A
C161   C163    1.432   .     S
C162   O202    1.286   .     A
C162   C164    1.432   .     S
C162   O200    1.285   .     A
C164   C15     1.335   1_655 S
C164   H32     1.087   1_655 S
C165   S203    1.772   .     S
C165   C175    1.408   .     A
C165   C167    1.395   .     A
C166   C176    1.406   .     A
C166   C168    1.395   .     A
C166   S208    1.771   .     S
C167   C169    1.402   .     A
C167   H181    1.084   .     S
C168   H182    1.083   .     S
C168   C170    1.405   .     A
C169   C171    1.413   .     A
C170   C172    1.416   .     A
C171   S213    1.773   .     S
C171   C173    1.394   .     A
C172   S218    1.773   .     S
C172   C174    1.394   .     A
C173   H183    1.084   .     S
C173   C175    1.398   .     A
C174   C176    1.396   .     A
C174   H184    1.084   .     S
C175   C398    1.460   1_545 S
C176   C397    1.460   .     S
Cu177  Cu178   2.674   .     S
Cu177  N194    2.009   .     S
Cu177  O195    1.950   .     S
Cu177  O198    1.953   .     S
Cu177  O199    1.954   .     S
Cu177  O202    1.957   .     S
Cu178  N193    2.009   .     S
Cu178  O196    1.950   .     S
Cu178  O197    1.953   .     S
Cu178  O201    1.957   .     S
Cu178  O200    1.954   .     S
H179   C15     1.087   1_655 S
S203   O204    1.503   .     D
S203   O205    1.503   .     D
S203   O428    1.682   1_545 S
O206   H207    0.991   .     S
O206   S425    1.682   .     S
S208   O210    1.503   .     D
S208   O209    1.503   .     D
S208   O433    1.682   .     S
O211   H212    0.990   .     S
O211   S430    1.682   1_545 S
S213   O216    1.681   .     S
S213   O214    1.503   .     D
S213   O215    1.503   .     D
O216   H217    0.991   .     S
S218   O221    1.681   .     S
S218   O219    1.503   .     D
S218   O220    1.504   .     D
O221   H222    0.991   .     S
C223   C243    1.459   .     S
C223   O269    1.293   .     A
C223   O271    1.290   .     A
C224   C244    1.466   .     S
C224   O272    1.293   .     A
C224   O270    1.295   .     A
C225   C227    1.407   .     A
C225   C233    1.411   .     A
C225   H259    1.082   .     S
C226   C234    1.410   .     A
C226   C228    1.407   .     A
C226   H260    1.082   .     S
C227   H261    1.082   .     S
C227   N267    1.364   .     A
C228   H262    1.081   .     S
C228   N268    1.365   .     A
C229   N267    1.364   .     A
C229   C231    1.407   .     A
C229   H263    1.082   .     S
C230   H264    1.080   .     S
C230   N268    1.365   .     A
C230   C232    1.407   .     A
C231   C233    1.411   .     A
C231   H265    1.082   .     S
C232   C234    1.410   .     A
C232   H266    1.082   .     S
C233   C678    1.515   1_554 S
C234   C677    1.515   .     S
C235   O273    1.284   .     A
C235   O275    1.287   .     A
C235   C237    1.432   .     S
C236   O276    1.286   .     A
C236   C238    1.432   .     S
C236   O274    1.285   .     A
C237   C386    1.335   1_455 S
C237   H401    1.087   1_455 S
C238   C311    1.335   .     S
C238   H328    1.087   .     S
C239   S277    1.772   .     S
C239   C249    1.408   .     A
C239   C241    1.395   .     A
C240   C250    1.406   .     A
C240   C242    1.395   .     A
C240   S282    1.771   .     S
C241   C243    1.402   .     A
C241   H255    1.084   .     S
C242   H256    1.083   .     S
C242   C244    1.405   .     A
C243   C245    1.413   .     A
C244   C246    1.416   .     A
C245   S287    1.773   .     S
C245   C247    1.394   .     A
C246   S292    1.773   .     S
C246   C248    1.394   .     A
C247   H257    1.084   .     S
C247   C249    1.398   .     A
C248   C250    1.396   .     A
C248   H258    1.084   .     S
C250   C27     1.460   1_565 S
Cu251  Cu252   2.674   .     S
Cu251  N268    2.009   .     S
Cu251  O269    1.950   .     S
Cu251  O272    1.953   .     S
Cu251  O273    1.954   .     S
Cu251  O276    1.957   .     S
Cu252  N267    2.009   .     S
Cu252  O270    1.950   .     S
Cu252  O271    1.953   .     S
Cu252  O275    1.957   .     S
Cu252  O274    1.954   .     S
H253   C311    1.087   .     S
H254   C386    1.087   1_455 S
S277   O278    1.503   .     D
S277   O279    1.503   .     D
O280   H281    0.991   .     S
O280   S55     1.682   1_565 S
S282   O284    1.503   .     D
S282   O283    1.503   .     D
S282   O63     1.682   1_565 S
O285   H286    0.990   .     S
S287   O290    1.681   .     S
S287   O288    1.503   .     D
S287   O289    1.503   .     D
O290   H291    0.991   .     S
S292   O295    1.681   .     S
S292   O293    1.503   .     D
S292   O294    1.504   .     D
O295   H296    0.991   .     S
C297   C317    1.459   .     S
C297   O343    1.293   .     A
C297   O345    1.290   .     A
C298   C318    1.466   .     S
C298   O346    1.293   .     A
C298   O344    1.295   .     A
C299   C301    1.407   .     A
C299   C307    1.411   .     A
C299   H333    1.082   .     S
C300   C308    1.410   .     A
C300   C302    1.407   .     A
C300   H334    1.082   .     S
C301   H335    1.082   .     S
C301   N341    1.364   .     A
C302   H336    1.081   .     S
C302   N342    1.365   .     A
C303   N341    1.364   .     A
C303   C305    1.407   .     A
C303   H337    1.082   .     S
C304   H338    1.080   .     S
C304   N342    1.365   .     A
C304   C306    1.407   .     A
C305   C307    1.411   .     A
C305   H339    1.082   .     S
C306   C308    1.410   .     A
C306   H340    1.082   .     S
C307   C752    1.515   1_554 S
C308   C751    1.515   .     S
C309   O347    1.284   .     A
C309   O349    1.287   .     A
C309   C311    1.432   .     S
C310   O350    1.286   .     A
C310   C312    1.432   .     S
C310   O348    1.285   .     A
C312   C385    1.335   .     S
C312   H402    1.087   .     S
C313   S351    1.772   .     S
C313   C323    1.408   .     A
C313   C315    1.395   .     A
C314   C324    1.406   .     A
C314   C316    1.395   .     A
C314   S356    1.771   .     S
C315   C317    1.402   .     A
C315   H329    1.084   .     S
C316   H330    1.083   .     S
C316   C318    1.405   .     A
C317   C319    1.413   .     A
C318   C320    1.416   .     A
C319   S361    1.773   .     S
C319   C321    1.394   .     A
C320   S366    1.773   .     S
C320   C322    1.394   .     A
C321   H331    1.084   .     S
C321   C323    1.398   .     A
C322   C324    1.396   .     A
C322   H332    1.084   .     S
C324   C101    1.460   1_565 S
Cu325  Cu326   2.674   .     S
Cu325  N342    2.009   .     S
Cu325  O343    1.950   .     S
Cu325  O346    1.953   .     S
Cu325  O347    1.954   .     S
Cu325  O350    1.957   .     S
Cu326  N341    2.009   .     S
Cu326  O344    1.950   .     S
Cu326  O345    1.953   .     S
Cu326  O349    1.957   .     S
Cu326  O348    1.954   .     S
H327   C385    1.087   .     S
S351   O352    1.503   .     D
S351   O353    1.503   .     D
O354   H355    0.991   .     S
O354   S129    1.682   1_565 S
S356   O358    1.503   .     D
S356   O357    1.503   .     D
S356   O137    1.682   1_565 S
O359   H360    0.990   .     S
S361   O364    1.681   .     S
S361   O362    1.503   .     D
S361   O363    1.503   .     D
O364   H365    0.991   .     S
S366   O369    1.681   .     S
S366   O367    1.503   .     D
S366   O368    1.504   .     D
O369   H370    0.991   .     S
C371   C391    1.459   .     S
C371   O417    1.293   .     A
C371   O419    1.290   .     A
C372   C392    1.466   .     S
C372   O420    1.293   .     A
C372   O418    1.295   .     A
C373   C375    1.407   .     A
C373   C381    1.411   .     A
C373   H407    1.082   .     S
C374   C382    1.410   .     A
C374   C376    1.407   .     A
C374   H408    1.082   .     S
C375   H409    1.082   .     S
C375   N415    1.364   .     A
C376   H410    1.081   .     S
C376   N416    1.365   .     A
C377   N415    1.364   .     A
C377   C379    1.407   .     A
C377   H411    1.082   .     S
C378   H412    1.080   .     S
C378   N416    1.365   .     A
C378   C380    1.407   .     A
C379   C381    1.411   .     A
C379   H413    1.082   .     S
C380   C382    1.410   .     A
C380   H414    1.082   .     S
C381   C826    1.515   1_554 S
C382   C825    1.515   .     S
C383   O421    1.284   .     A
C383   O423    1.287   .     A
C383   C385    1.432   .     S
C384   O424    1.286   .     A
C384   C386    1.432   .     S
C384   O422    1.285   .     A
C386   C237    1.335   1_655 S
C386   H254    1.087   1_655 S
C387   S425    1.772   .     S
C387   C397    1.408   .     A
C387   C389    1.395   .     A
C388   C398    1.406   .     A
C388   C390    1.395   .     A
C388   S430    1.771   .     S
C389   C391    1.402   .     A
C389   H403    1.084   .     S
C390   H404    1.083   .     S
C390   C392    1.405   .     A
C391   C393    1.413   .     A
C392   C394    1.416   .     A
C393   S435    1.773   .     S
C393   C395    1.394   .     A
C394   S440    1.773   .     S
C394   C396    1.394   .     A
C395   H405    1.084   .     S
C395   C397    1.398   .     A
C396   C398    1.396   .     A
C396   H406    1.084   .     S
C398   C175    1.460   1_565 S
Cu399  Cu400   2.674   .     S
Cu399  N416    2.009   .     S
Cu399  O417    1.950   .     S
Cu399  O420    1.953   .     S
Cu399  O421    1.954   .     S
Cu399  O424    1.957   .     S
Cu400  N415    2.009   .     S
Cu400  O418    1.950   .     S
Cu400  O419    1.953   .     S
Cu400  O423    1.957   .     S
Cu400  O422    1.954   .     S
H401   C237    1.087   1_655 S
S425   O426    1.503   .     D
S425   O427    1.503   .     D
O428   H429    0.991   .     S
O428   S203    1.682   1_565 S
S430   O432    1.503   .     D
S430   O431    1.503   .     D
S430   O211    1.682   1_565 S
O433   H434    0.990   .     S
S435   O438    1.681   .     S
S435   O436    1.503   .     D
S435   O437    1.503   .     D
O438   H439    0.991   .     S
S440   O443    1.681   .     S
S440   O441    1.503   .     D
S440   O442    1.504   .     D
O443   H444    0.991   .     S
C445   C465    1.459   .     S
C445   O491    1.293   .     A
C445   O493    1.290   .     A
C446   C466    1.466   .     S
C446   O494    1.293   .     A
C446   O492    1.295   .     A
C447   C449    1.407   .     A
C447   C455    1.411   .     A
C447   H481    1.082   .     S
C448   C456    1.410   .     A
C448   C450    1.407   .     A
C448   H482    1.082   .     S
C449   H483    1.082   .     S
C449   N489    1.364   .     A
C450   H484    1.081   .     S
C450   N490    1.365   .     A
C451   N489    1.364   .     A
C451   C453    1.407   .     A
C451   H485    1.082   .     S
C452   H486    1.080   .     S
C452   N490    1.365   .     A
C452   C454    1.407   .     A
C453   C455    1.411   .     A
C453   H487    1.082   .     S
C454   C456    1.410   .     A
C454   H488    1.082   .     S
C456   C11     1.515   1_556 S
C457   O495    1.284   .     A
C457   O497    1.287   .     A
C457   C459    1.432   .     S
C458   O498    1.286   .     A
C458   C460    1.432   .     S
C458   O496    1.285   .     A
C459   C608    1.335   1_455 S
C459   H623    1.087   1_455 S
C460   C533    1.335   .     S
C460   H550    1.087   .     S
C461   S499    1.772   .     S
C461   C471    1.408   .     A
C461   C463    1.395   .     A
C462   C472    1.406   .     A
C462   C464    1.395   .     A
C462   S504    1.771   .     S
C463   C465    1.402   .     A
C463   H477    1.084   .     S
C464   H478    1.083   .     S
C464   C466    1.405   .     A
C465   C467    1.413   .     A
C466   C468    1.416   .     A
C467   S509    1.773   .     S
C467   C469    1.394   .     A
C468   S514    1.773   .     S
C468   C470    1.394   .     A
C469   H479    1.084   .     S
C469   C471    1.398   .     A
C470   C472    1.396   .     A
C470   H480    1.084   .     S
C471   C694    1.460   1_545 S
C472   C693    1.460   .     S
Cu473  Cu474   2.674   .     S
Cu473  N490    2.009   .     S
Cu473  O491    1.950   .     S
Cu473  O494    1.953   .     S
Cu473  O495    1.954   .     S
Cu473  O498    1.957   .     S
Cu474  N489    2.009   .     S
Cu474  O492    1.950   .     S
Cu474  O493    1.953   .     S
Cu474  O497    1.957   .     S
Cu474  O496    1.954   .     S
H475   C533    1.087   .     S
H476   C608    1.087   1_455 S
S499   O500    1.503   .     D
S499   O501    1.503   .     D
S499   O724    1.682   1_545 S
O502   H503    0.991   .     S
O502   S721    1.682   .     S
S504   O506    1.503   .     D
S504   O505    1.503   .     D
S504   O729    1.682   .     S
O507   H508    0.990   .     S
O507   S726    1.682   1_545 S
S509   O512    1.681   .     S
S509   O510    1.503   .     D
S509   O511    1.503   .     D
O512   H513    0.991   .     S
S514   O517    1.681   .     S
S514   O515    1.503   .     D
S514   O516    1.504   .     D
O517   H518    0.991   .     S
C519   C539    1.459   .     S
C519   O565    1.293   .     A
C519   O567    1.290   .     A
C520   C540    1.466   .     S
C520   O568    1.293   .     A
C520   O566    1.295   .     A
C521   C523    1.407   .     A
C521   C529    1.411   .     A
C521   H555    1.082   .     S
C522   C530    1.410   .     A
C522   C524    1.407   .     A
C522   H556    1.082   .     S
C523   H557    1.082   .     S
C523   N563    1.364   .     A
C524   H558    1.081   .     S
C524   N564    1.365   .     A
C525   N563    1.364   .     A
C525   C527    1.407   .     A
C525   H559    1.082   .     S
C526   H560    1.080   .     S
C526   N564    1.365   .     A
C526   C528    1.407   .     A
C527   C529    1.411   .     A
C527   H561    1.082   .     S
C528   C530    1.410   .     A
C528   H562    1.082   .     S
C530   C85     1.515   1_556 S
C531   O569    1.284   .     A
C531   O571    1.287   .     A
C531   C533    1.432   .     S
C532   O572    1.286   .     A
C532   C534    1.432   .     S
C532   O570    1.285   .     A
C534   C607    1.335   .     S
C534   H624    1.087   .     S
C535   S573    1.772   .     S
C535   C545    1.408   .     A
C535   C537    1.395   .     A
C536   C546    1.406   .     A
C536   C538    1.395   .     A
C536   S578    1.771   .     S
C537   C539    1.402   .     A
C537   H551    1.084   .     S
C538   H552    1.083   .     S
C538   C540    1.405   .     A
C539   C541    1.413   .     A
C540   C542    1.416   .     A
C541   S583    1.773   .     S
C541   C543    1.394   .     A
C542   S588    1.773   .     S
C542   C544    1.394   .     A
C543   H553    1.084   .     S
C543   C545    1.398   .     A
C544   C546    1.396   .     A
C544   H554    1.084   .     S
C545   C768    1.460   1_545 S
C546   C767    1.460   .     S
Cu547  Cu548   2.674   .     S
Cu547  N564    2.009   .     S
Cu547  O565    1.950   .     S
Cu547  O568    1.953   .     S
Cu547  O569    1.954   .     S
Cu547  O572    1.957   .     S
Cu548  N563    2.009   .     S
Cu548  O566    1.950   .     S
Cu548  O567    1.953   .     S
Cu548  O571    1.957   .     S
Cu548  O570    1.954   .     S
H549   C607    1.087   .     S
S573   O574    1.503   .     D
S573   O575    1.503   .     D
S573   O798    1.682   1_545 S
O576   H577    0.991   .     S
O576   S795    1.682   .     S
S578   O580    1.503   .     D
S578   O579    1.503   .     D
S578   O803    1.682   .     S
O581   H582    0.990   .     S
O581   S800    1.682   1_545 S
S583   O586    1.681   .     S
S583   O584    1.503   .     D
S583   O585    1.503   .     D
O586   H587    0.991   .     S
S588   O591    1.681   .     S
S588   O589    1.503   .     D
S588   O590    1.504   .     D
O591   H592    0.991   .     S
C593   C613    1.459   .     S
C593   O639    1.293   .     A
C593   O641    1.290   .     A
C594   C614    1.466   .     S
C594   O642    1.293   .     A
C594   O640    1.295   .     A
C595   C597    1.407   .     A
C595   C603    1.411   .     A
C595   H629    1.082   .     S
C596   C604    1.410   .     A
C596   C598    1.407   .     A
C596   H630    1.082   .     S
C597   H631    1.082   .     S
C597   N637    1.364   .     A
C598   H632    1.081   .     S
C598   N638    1.365   .     A
C599   N637    1.364   .     A
C599   C601    1.407   .     A
C599   H633    1.082   .     S
C600   H634    1.080   .     S
C600   N638    1.365   .     A
C600   C602    1.407   .     A
C601   C603    1.411   .     A
C601   H635    1.082   .     S
C602   C604    1.410   .     A
C602   H636    1.082   .     S
C604   C159    1.515   1_556 S
C605   O643    1.284   .     A
C605   O645    1.287   .     A
C605   C607    1.432   .     S
C606   O646    1.286   .     A
C606   C608    1.432   .     S
C606   O644    1.285   .     A
C608   C459    1.335   1_655 S
C608   H476    1.087   1_655 S
C609   S647    1.772   .     S
C609   C619    1.408   .     A
C609   C611    1.395   .     A
C610   C620    1.406   .     A
C610   C612    1.395   .     A
C610   S652    1.771   .     S
C611   C613    1.402   .     A
C611   H625    1.084   .     S
C612   H626    1.083   .     S
C612   C614    1.405   .     A
C613   C615    1.413   .     A
C614   C616    1.416   .     A
C615   S657    1.773   .     S
C615   C617    1.394   .     A
C616   S662    1.773   .     S
C616   C618    1.394   .     A
C617   H627    1.084   .     S
C617   C619    1.398   .     A
C618   C620    1.396   .     A
C618   H628    1.084   .     S
C619   C842    1.460   1_545 S
C620   C841    1.460   .     S
Cu621  Cu622   2.674   .     S
Cu621  N638    2.009   .     S
Cu621  O639    1.950   .     S
Cu621  O642    1.953   .     S
Cu621  O643    1.954   .     S
Cu621  O646    1.957   .     S
Cu622  N637    2.009   .     S
Cu622  O640    1.950   .     S
Cu622  O641    1.953   .     S
Cu622  O645    1.957   .     S
Cu622  O644    1.954   .     S
H623   C459    1.087   1_655 S
S647   O648    1.503   .     D
S647   O649    1.503   .     D
S647   O872    1.682   1_545 S
O650   H651    0.991   .     S
O650   S869    1.682   .     S
S652   O654    1.503   .     D
S652   O653    1.503   .     D
S652   O877    1.682   .     S
O655   H656    0.990   .     S
O655   S874    1.682   1_545 S
S657   O660    1.681   .     S
S657   O658    1.503   .     D
S657   O659    1.503   .     D
O660   H661    0.991   .     S
S662   O665    1.681   .     S
S662   O663    1.503   .     D
S662   O664    1.504   .     D
O665   H666    0.991   .     S
C667   C687    1.459   .     S
C667   O713    1.293   .     A
C667   O715    1.290   .     A
C668   C688    1.466   .     S
C668   O716    1.293   .     A
C668   O714    1.295   .     A
C669   C671    1.407   .     A
C669   C677    1.411   .     A
C669   H703    1.082   .     S
C670   C678    1.410   .     A
C670   C672    1.407   .     A
C670   H704    1.082   .     S
C671   H705    1.082   .     S
C671   N711    1.364   .     A
C672   H706    1.081   .     S
C672   N712    1.365   .     A
C673   N711    1.364   .     A
C673   C675    1.407   .     A
C673   H707    1.082   .     S
C674   H708    1.080   .     S
C674   N712    1.365   .     A
C674   C676    1.407   .     A
C675   C677    1.411   .     A
C675   H709    1.082   .     S
C676   C678    1.410   .     A
C676   H710    1.082   .     S
C678   C233    1.515   1_556 S
C679   O717    1.284   .     A
C679   O719    1.287   .     A
C679   C681    1.432   .     S
C680   O720    1.286   .     A
C680   C682    1.432   .     S
C680   O718    1.285   .     A
C681   C830    1.335   1_455 S
C681   H845    1.087   1_455 S
C682   C755    1.335   .     S
C682   H772    1.087   .     S
C683   S721    1.772   .     S
C683   C693    1.408   .     A
C683   C685    1.395   .     A
C684   C694    1.406   .     A
C684   C686    1.395   .     A
C684   S726    1.771   .     S
C685   C687    1.402   .     A
C685   H699    1.084   .     S
C686   H700    1.083   .     S
C686   C688    1.405   .     A
C687   C689    1.413   .     A
C688   C690    1.416   .     A
C689   S731    1.773   .     S
C689   C691    1.394   .     A
C690   S736    1.773   .     S
C690   C692    1.394   .     A
C691   H701    1.084   .     S
C691   C693    1.398   .     A
C692   C694    1.396   .     A
C692   H702    1.084   .     S
C694   C471    1.460   1_565 S
Cu695  Cu696   2.674   .     S
Cu695  N712    2.009   .     S
Cu695  O713    1.950   .     S
Cu695  O716    1.953   .     S
Cu695  O717    1.954   .     S
Cu695  O720    1.957   .     S
Cu696  N711    2.009   .     S
Cu696  O714    1.950   .     S
Cu696  O715    1.953   .     S
Cu696  O719    1.957   .     S
Cu696  O718    1.954   .     S
H697   C755    1.087   .     S
H698   C830    1.087   1_455 S
S721   O722    1.503   .     D
S721   O723    1.503   .     D
O724   H725    0.991   .     S
O724   S499    1.682   1_565 S
S726   O728    1.503   .     D
S726   O727    1.503   .     D
S726   O507    1.682   1_565 S
O729   H730    0.990   .     S
S731   O734    1.681   .     S
S731   O732    1.503   .     D
S731   O733    1.503   .     D
O734   H735    0.991   .     S
S736   O739    1.681   .     S
S736   O737    1.503   .     D
S736   O738    1.504   .     D
O739   H740    0.991   .     S
C741   C761    1.459   .     S
C741   O787    1.293   .     A
C741   O789    1.290   .     A
C742   C762    1.466   .     S
C742   O790    1.293   .     A
C742   O788    1.295   .     A
C743   C745    1.407   .     A
C743   C751    1.411   .     A
C743   H777    1.082   .     S
C744   C752    1.410   .     A
C744   C746    1.407   .     A
C744   H778    1.082   .     S
C745   H779    1.082   .     S
C745   N785    1.364   .     A
C746   H780    1.081   .     S
C746   N786    1.365   .     A
C747   N785    1.364   .     A
C747   C749    1.407   .     A
C747   H781    1.082   .     S
C748   H782    1.080   .     S
C748   N786    1.365   .     A
C748   C750    1.407   .     A
C749   C751    1.411   .     A
C749   H783    1.082   .     S
C750   C752    1.410   .     A
C750   H784    1.082   .     S
C752   C307    1.515   1_556 S
C753   O791    1.284   .     A
C753   O793    1.287   .     A
C753   C755    1.432   .     S
C754   O794    1.286   .     A
C754   C756    1.432   .     S
C754   O792    1.285   .     A
C756   C829    1.335   .     S
C756   H846    1.087   .     S
C757   S795    1.772   .     S
C757   C767    1.408   .     A
C757   C759    1.395   .     A
C758   C768    1.406   .     A
C758   C760    1.395   .     A
C758   S800    1.771   .     S
C759   C761    1.402   .     A
C759   H773    1.084   .     S
C760   H774    1.083   .     S
C760   C762    1.405   .     A
C761   C763    1.413   .     A
C762   C764    1.416   .     A
C763   S805    1.773   .     S
C763   C765    1.394   .     A
C764   S810    1.773   .     S
C764   C766    1.394   .     A
C765   H775    1.084   .     S
C765   C767    1.398   .     A
C766   C768    1.396   .     A
C766   H776    1.084   .     S
C768   C545    1.460   1_565 S
Cu769  Cu770   2.674   .     S
Cu769  N786    2.009   .     S
Cu769  O787    1.950   .     S
Cu769  O790    1.953   .     S
Cu769  O791    1.954   .     S
Cu769  O794    1.957   .     S
Cu770  N785    2.009   .     S
Cu770  O788    1.950   .     S
Cu770  O789    1.953   .     S
Cu770  O793    1.957   .     S
Cu770  O792    1.954   .     S
H771   C829    1.087   .     S
S795   O796    1.503   .     D
S795   O797    1.503   .     D
O798   H799    0.991   .     S
O798   S573    1.682   1_565 S
S800   O802    1.503   .     D
S800   O801    1.503   .     D
S800   O581    1.682   1_565 S
O803   H804    0.990   .     S
S805   O808    1.681   .     S
S805   O806    1.503   .     D
S805   O807    1.503   .     D
O808   H809    0.991   .     S
S810   O813    1.681   .     S
S810   O811    1.503   .     D
S810   O812    1.504   .     D
O813   H814    0.991   .     S
C815   C835    1.459   .     S
C815   O861    1.293   .     A
C815   O863    1.290   .     A
C816   C836    1.466   .     S
C816   O864    1.293   .     A
C816   O862    1.295   .     A
C817   C819    1.407   .     A
C817   C825    1.411   .     A
C817   H851    1.082   .     S
C818   C826    1.410   .     A
C818   C820    1.407   .     A
C818   H852    1.082   .     S
C819   H853    1.082   .     S
C819   N859    1.364   .     A
C820   H854    1.081   .     S
C820   N860    1.365   .     A
C821   N859    1.364   .     A
C821   C823    1.407   .     A
C821   H855    1.082   .     S
C822   H856    1.080   .     S
C822   N860    1.365   .     A
C822   C824    1.407   .     A
C823   C825    1.411   .     A
C823   H857    1.082   .     S
C824   C826    1.410   .     A
C824   H858    1.082   .     S
C826   C381    1.515   1_556 S
C827   O865    1.284   .     A
C827   O867    1.287   .     A
C827   C829    1.432   .     S
C828   O868    1.286   .     A
C828   C830    1.432   .     S
C828   O866    1.285   .     A
C830   C681    1.335   1_655 S
C830   H698    1.087   1_655 S
C831   S869    1.772   .     S
C831   C841    1.408   .     A
C831   C833    1.395   .     A
C832   C842    1.406   .     A
C832   C834    1.395   .     A
C832   S874    1.771   .     S
C833   C835    1.402   .     A
C833   H847    1.084   .     S
C834   H848    1.083   .     S
C834   C836    1.405   .     A
C835   C837    1.413   .     A
C836   C838    1.416   .     A
C837   S879    1.773   .     S
C837   C839    1.394   .     A
C838   S884    1.773   .     S
C838   C840    1.394   .     A
C839   H849    1.084   .     S
C839   C841    1.398   .     A
C840   C842    1.396   .     A
C840   H850    1.084   .     S
C842   C619    1.460   1_565 S
Cu843  Cu844   2.674   .     S
Cu843  N860    2.009   .     S
Cu843  O861    1.950   .     S
Cu843  O864    1.953   .     S
Cu843  O865    1.954   .     S
Cu843  O868    1.957   .     S
Cu844  N859    2.009   .     S
Cu844  O862    1.950   .     S
Cu844  O863    1.953   .     S
Cu844  O867    1.957   .     S
Cu844  O866    1.954   .     S
H845   C681    1.087   1_655 S
S869   O870    1.503   .     D
S869   O871    1.503   .     D
O872   H873    0.991   .     S
O872   S647    1.682   1_565 S
S874   O876    1.503   .     D
S874   O875    1.503   .     D
S874   O655    1.682   1_565 S
O877   H878    0.990   .     S
S879   O882    1.681   .     S
S879   O880    1.503   .     D
S879   O881    1.503   .     D
O882   H883    0.991   .     S
S884   O887    1.681   .     S
S884   O885    1.503   .     D
S884   O886    1.504   .     D
O887   H888    0.991   .     S
