data_str_m3_o5_o17_pcu_sym.45
_audit_creation_date              2020-01-03
_audit_creation_method            'Materials Studio'
_symmetry_space_group_name_H-M    'P1'
_symmetry_Int_Tables_number       1
_symmetry_cell_setting            triclinic
loop_
_symmetry_equiv_pos_as_xyz
  x,y,z
_cell_length_a                    29.7746
_cell_length_b                    27.7668
_cell_length_c                    24.3839
_cell_angle_alpha                 89.8210
_cell_angle_beta                  88.1686
_cell_angle_gamma                 88.2929
loop_
_atom_site_label
_atom_site_type_symbol
_atom_site_fract_x
_atom_site_fract_y
_atom_site_fract_z
_atom_site_U_iso_or_equiv
_atom_site_adp_type
_atom_site_occupancy
C1     C     0.25005   0.07250   0.16672   0.00000  Uiso   1.00
C2     C     0.11573   0.16884   0.16986   0.00000  Uiso   1.00
C3     C     0.45557   0.12321   0.15998   0.00000  Uiso   1.00
C4     C     0.04512   0.21213   0.16201   0.00000  Uiso   1.00
C5     C     0.45134   0.21055   0.16670   0.00000  Uiso   1.00
C6     C     0.04808   0.12475   0.17373   0.00000  Uiso   1.00
C7     C     0.47668   0.16730   0.16505   0.00000  Uiso   1.00
C8     C     0.02336   0.16814   0.16724   0.00000  Uiso   1.00
C9     C     0.48185   0.08082   0.15691   0.00000  Uiso   1.00
C10    C     0.01932   0.25471   0.15416   0.00000  Uiso   1.00
C11    C     0.47310   0.25426   0.16741   0.00000  Uiso   1.00
C12    C     0.24995   0.26083   0.16662   0.00000  Uiso   1.00
C13    C     0.02597   0.08123   0.17469   0.00000  Uiso   1.00
C14    C     0.25001   0.02151   0.16674   0.00000  Uiso   1.00
C15    C     0.24998   0.31182   0.16660   0.00000  Uiso   1.00
C16    C     0.46425   0.04562   0.07698   0.00000  Uiso   1.00
C17    C     0.44048   0.00338   0.05285   0.00000  Uiso   1.00
C18    C     0.06030   0.29436   0.08648   0.00000  Uiso   1.00
C19    C     0.09904   0.32915   0.08421   0.00000  Uiso   1.00
C20    C     0.43636   0.30071   0.23244   0.00000  Uiso   1.00
C21    C     0.39991   0.00675   0.23954   0.00000  Uiso   1.00
C22    C     0.05095   0.03627   0.24592   0.00000  Uiso   1.00
C23    C     0.16331   0.16835   0.16757   0.00000  Uiso   1.00
C24    C     0.07241   0.32123   0.26094   0.00000  Uiso   1.00
C25    C     0.33669   0.16498   0.16577   0.00000  Uiso   1.00
C26    C     0.40474   0.20933   0.16637   0.00000  Uiso   1.00
C27    C     0.09453   0.12539   0.17526   0.00000  Uiso   1.00
C28    C     0.40894   0.12244   0.15816   0.00000  Uiso   1.00
C29    C     0.09182   0.21223   0.16471   0.00000  Uiso   1.00
C30    C     0.38425   0.16543   0.16346   0.00000  Uiso   1.00
H31    H     0.49898   0.04682   0.05890   0.00000  Uiso   1.00
H32    H     0.08573   0.03356   0.08258   0.00000  Uiso   1.00
H33    H     0.46613   0.31024   0.25587   0.00000  Uiso   1.00
H34    H     0.42274   0.26696   0.25031   0.00000  Uiso   1.00
H35    H     0.37427   0.00325   0.20779   0.00000  Uiso   1.00
H36    H     0.38279   0.00376   0.28045   0.00000  Uiso   1.00
H37    H     0.41503   0.04268   0.23611   0.00000  Uiso   1.00
H38    H     0.01699   0.03943   0.26639   0.00000  Uiso   1.00
H39    H     0.07223   0.06504   0.26187   0.00000  Uiso   1.00
H40    H     0.10521   0.31586   0.23846   0.00000  Uiso   1.00
H41    H     0.07805   0.32008   0.30537   0.00000  Uiso   1.00
H42    H     0.44544   0.07903   0.06476   0.00000  Uiso   1.00
H43    H     0.04997   0.29159   0.25095   0.00000  Uiso   1.00
H44    H     0.38411   0.24220   0.16760   0.00000  Uiso   1.00
H45    H     0.11455   0.09222   0.17816   0.00000  Uiso   1.00
H46    H     0.39175   0.08876   0.15462   0.00000  Uiso   1.00
H47    H     0.10982   0.24553   0.16251   0.00000  Uiso   1.00
H48    H     0.40489   0.00343   0.06796   0.00000  Uiso   1.00
H49    H     0.44160   0.00685   0.00777   0.00000  Uiso   1.00
H50    H     0.45722   0.30205   0.06407   0.00000  Uiso   1.00
H51    H     0.03601   0.30472   0.05479   0.00000  Uiso   1.00
H52    H     0.07395   0.25789   0.07515   0.00000  Uiso   1.00
H53    H     0.11973   0.32465   0.12107   0.00000  Uiso   1.00
H54    H     0.12117   0.32204   0.04751   0.00000  Uiso   1.00
N55    N     0.25000   0.16667   0.02455   0.00000  Uiso   1.00
N56    N     0.25000   0.16667   0.30879   0.00000  Uiso   1.00
O57    O     0.25000   0.09512   0.21228   0.00000  Uiso   1.00
O58    O     0.03878   0.29735   0.13912   0.00000  Uiso   1.00
O59    O     0.44854   0.29639   0.17610   0.00000  Uiso   1.00
O60    O     0.04833   0.03912   0.18830   0.00000  Uiso   1.00
O61    O     0.25000   0.23822   0.12105   0.00000  Uiso   1.00
O62    O     0.25000   0.23822   0.21228   0.00000  Uiso   1.00
O63    O     0.25000   0.09512   0.12105   0.00000  Uiso   1.00
O64    O     0.18392   0.16667   0.21230   0.00000  Uiso   1.00
O65    O     0.31607   0.16667   0.12104   0.00000  Uiso   1.00
O66    O     0.31607   0.16667   0.21230   0.00000  Uiso   1.00
O67    O     0.18392   0.16667   0.12104   0.00000  Uiso   1.00
O68    O     0.46534   0.03999   0.13454   0.00000  Uiso   1.00
Zn69   Zn    0.25000   0.16667   0.22759   0.00000  Uiso   1.00
Zn70   Zn    0.25000   0.16667   0.10574   0.00000  Uiso   1.00
C71    C     0.75005   0.07250   0.16672   0.00000  Uiso   1.00
C72    C     0.61573   0.16884   0.16986   0.00000  Uiso   1.00
C73    C     0.95557   0.12321   0.15998   0.00000  Uiso   1.00
C74    C     0.54512   0.21213   0.16201   0.00000  Uiso   1.00
C75    C     0.95134   0.21055   0.16670   0.00000  Uiso   1.00
C76    C     0.54808   0.12475   0.17373   0.00000  Uiso   1.00
C77    C     0.97668   0.16730   0.16505   0.00000  Uiso   1.00
C78    C     0.52336   0.16814   0.16724   0.00000  Uiso   1.00
C79    C     0.98185   0.08082   0.15691   0.00000  Uiso   1.00
C80    C     0.51932   0.25471   0.15416   0.00000  Uiso   1.00
C81    C     0.97310   0.25426   0.16741   0.00000  Uiso   1.00
C82    C     0.74995   0.26083   0.16662   0.00000  Uiso   1.00
C83    C     0.52597   0.08123   0.17469   0.00000  Uiso   1.00
C84    C     0.75001   0.02151   0.16674   0.00000  Uiso   1.00
C85    C     0.74998   0.31182   0.16660   0.00000  Uiso   1.00
C86    C     0.96425   0.04562   0.07698   0.00000  Uiso   1.00
C87    C     0.94048   0.00338   0.05285   0.00000  Uiso   1.00
C88    C     0.56030   0.29436   0.08648   0.00000  Uiso   1.00
C89    C     0.59904   0.32915   0.08421   0.00000  Uiso   1.00
C90    C     0.93636   0.30071   0.23244   0.00000  Uiso   1.00
C91    C     0.89991   0.00675   0.23954   0.00000  Uiso   1.00
C92    C     0.55095   0.03627   0.24592   0.00000  Uiso   1.00
C93    C     0.66331   0.16835   0.16757   0.00000  Uiso   1.00
C94    C     0.57241   0.32123   0.26094   0.00000  Uiso   1.00
C95    C     0.83669   0.16498   0.16577   0.00000  Uiso   1.00
C96    C     0.90474   0.20933   0.16637   0.00000  Uiso   1.00
C97    C     0.59453   0.12539   0.17526   0.00000  Uiso   1.00
C98    C     0.90894   0.12244   0.15816   0.00000  Uiso   1.00
C99    C     0.59182   0.21223   0.16471   0.00000  Uiso   1.00
C100   C     0.88425   0.16543   0.16346   0.00000  Uiso   1.00
H101   H     0.99898   0.04682   0.05890   0.00000  Uiso   1.00
H102   H     0.58573   0.03356   0.08258   0.00000  Uiso   1.00
H103   H     0.96613   0.31024   0.25587   0.00000  Uiso   1.00
H104   H     0.92274   0.26696   0.25031   0.00000  Uiso   1.00
H105   H     0.87427   0.00325   0.20779   0.00000  Uiso   1.00
H106   H     0.88279   0.00376   0.28045   0.00000  Uiso   1.00
H107   H     0.91503   0.04268   0.23611   0.00000  Uiso   1.00
H108   H     0.51699   0.03943   0.26639   0.00000  Uiso   1.00
H109   H     0.57223   0.06504   0.26187   0.00000  Uiso   1.00
H110   H     0.60521   0.31586   0.23846   0.00000  Uiso   1.00
H111   H     0.57805   0.32008   0.30537   0.00000  Uiso   1.00
H112   H     0.94544   0.07903   0.06476   0.00000  Uiso   1.00
H113   H     0.54997   0.29159   0.25095   0.00000  Uiso   1.00
H114   H     0.88411   0.24220   0.16760   0.00000  Uiso   1.00
H115   H     0.61455   0.09222   0.17816   0.00000  Uiso   1.00
H116   H     0.89175   0.08876   0.15462   0.00000  Uiso   1.00
H117   H     0.60982   0.24553   0.16251   0.00000  Uiso   1.00
H118   H     0.90489   0.00343   0.06796   0.00000  Uiso   1.00
H119   H     0.94160   0.00685   0.00777   0.00000  Uiso   1.00
H120   H     0.95722   0.30205   0.06407   0.00000  Uiso   1.00
H121   H     0.53601   0.30472   0.05479   0.00000  Uiso   1.00
H122   H     0.57395   0.25789   0.07515   0.00000  Uiso   1.00
H123   H     0.61973   0.32465   0.12107   0.00000  Uiso   1.00
H124   H     0.62117   0.32204   0.04751   0.00000  Uiso   1.00
N125   N     0.75000   0.16667   0.02455   0.00000  Uiso   1.00
N126   N     0.75000   0.16667   0.30879   0.00000  Uiso   1.00
O127   O     0.75000   0.09512   0.21228   0.00000  Uiso   1.00
O128   O     0.53878   0.29735   0.13912   0.00000  Uiso   1.00
O129   O     0.94854   0.29639   0.17610   0.00000  Uiso   1.00
O130   O     0.54833   0.03912   0.18830   0.00000  Uiso   1.00
O131   O     0.75000   0.23822   0.12105   0.00000  Uiso   1.00
O132   O     0.75000   0.23822   0.21228   0.00000  Uiso   1.00
O133   O     0.75000   0.09512   0.12105   0.00000  Uiso   1.00
O134   O     0.68392   0.16667   0.21230   0.00000  Uiso   1.00
O135   O     0.81607   0.16667   0.12104   0.00000  Uiso   1.00
O136   O     0.81607   0.16667   0.21230   0.00000  Uiso   1.00
O137   O     0.68392   0.16667   0.12104   0.00000  Uiso   1.00
O138   O     0.96534   0.03999   0.13454   0.00000  Uiso   1.00
Zn139  Zn    0.75000   0.16667   0.22759   0.00000  Uiso   1.00
Zn140  Zn    0.75000   0.16667   0.10574   0.00000  Uiso   1.00
C141   C     0.25005   0.40584   0.16672   0.00000  Uiso   1.00
C142   C     0.11573   0.50217   0.16986   0.00000  Uiso   1.00
C143   C     0.45557   0.45654   0.15998   0.00000  Uiso   1.00
C144   C     0.04512   0.54546   0.16201   0.00000  Uiso   1.00
C145   C     0.45134   0.54388   0.16670   0.00000  Uiso   1.00
C146   C     0.04808   0.45808   0.17373   0.00000  Uiso   1.00
C147   C     0.47668   0.50064   0.16505   0.00000  Uiso   1.00
C148   C     0.02336   0.50148   0.16724   0.00000  Uiso   1.00
C149   C     0.48185   0.41415   0.15691   0.00000  Uiso   1.00
C150   C     0.01932   0.58804   0.15416   0.00000  Uiso   1.00
C151   C     0.47310   0.58759   0.16741   0.00000  Uiso   1.00
C152   C     0.24995   0.59416   0.16662   0.00000  Uiso   1.00
C153   C     0.02597   0.41456   0.17469   0.00000  Uiso   1.00
C154   C     0.25001   0.35484   0.16674   0.00000  Uiso   1.00
C155   C     0.24998   0.64516   0.16660   0.00000  Uiso   1.00
C156   C     0.46425   0.37895   0.07698   0.00000  Uiso   1.00
C157   C     0.44048   0.33671   0.05285   0.00000  Uiso   1.00
C158   C     0.06030   0.62769   0.08648   0.00000  Uiso   1.00
C159   C     0.09904   0.66248   0.08421   0.00000  Uiso   1.00
C160   C     0.43636   0.63404   0.23244   0.00000  Uiso   1.00
C161   C     0.39991   0.34008   0.23954   0.00000  Uiso   1.00
C162   C     0.05095   0.36960   0.24592   0.00000  Uiso   1.00
C163   C     0.16331   0.50168   0.16757   0.00000  Uiso   1.00
C164   C     0.07241   0.65456   0.26094   0.00000  Uiso   1.00
C165   C     0.33669   0.49832   0.16577   0.00000  Uiso   1.00
C166   C     0.40474   0.54266   0.16637   0.00000  Uiso   1.00
C167   C     0.09453   0.45872   0.17526   0.00000  Uiso   1.00
C168   C     0.40894   0.45578   0.15816   0.00000  Uiso   1.00
C169   C     0.09182   0.54557   0.16471   0.00000  Uiso   1.00
C170   C     0.38425   0.49876   0.16346   0.00000  Uiso   1.00
H171   H     0.49898   0.38016   0.05890   0.00000  Uiso   1.00
H172   H     0.08573   0.36689   0.08258   0.00000  Uiso   1.00
H173   H     0.46613   0.64357   0.25587   0.00000  Uiso   1.00
H174   H     0.42274   0.60029   0.25031   0.00000  Uiso   1.00
H175   H     0.37427   0.33658   0.20779   0.00000  Uiso   1.00
H176   H     0.38279   0.33709   0.28045   0.00000  Uiso   1.00
H177   H     0.41503   0.37601   0.23611   0.00000  Uiso   1.00
H178   H     0.01699   0.37276   0.26639   0.00000  Uiso   1.00
H179   H     0.07223   0.39837   0.26187   0.00000  Uiso   1.00
H180   H     0.10521   0.64920   0.23846   0.00000  Uiso   1.00
H181   H     0.07805   0.65342   0.30537   0.00000  Uiso   1.00
H182   H     0.44544   0.41236   0.06476   0.00000  Uiso   1.00
H183   H     0.04997   0.62492   0.25095   0.00000  Uiso   1.00
H184   H     0.38411   0.57553   0.16760   0.00000  Uiso   1.00
H185   H     0.11455   0.42555   0.17816   0.00000  Uiso   1.00
H186   H     0.39175   0.42209   0.15462   0.00000  Uiso   1.00
H187   H     0.10982   0.57886   0.16251   0.00000  Uiso   1.00
H188   H     0.40489   0.33676   0.06796   0.00000  Uiso   1.00
H189   H     0.44160   0.34018   0.00777   0.00000  Uiso   1.00
H190   H     0.45722   0.63538   0.06407   0.00000  Uiso   1.00
H191   H     0.03601   0.63805   0.05479   0.00000  Uiso   1.00
H192   H     0.07395   0.59123   0.07515   0.00000  Uiso   1.00
H193   H     0.11973   0.65798   0.12107   0.00000  Uiso   1.00
H194   H     0.12117   0.65538   0.04751   0.00000  Uiso   1.00
N195   N     0.25000   0.50000   0.02455   0.00000  Uiso   1.00
N196   N     0.25000   0.50000   0.30879   0.00000  Uiso   1.00
O197   O     0.25000   0.42845   0.21228   0.00000  Uiso   1.00
O198   O     0.03878   0.63069   0.13912   0.00000  Uiso   1.00
O199   O     0.44854   0.62973   0.17610   0.00000  Uiso   1.00
O200   O     0.04833   0.37245   0.18830   0.00000  Uiso   1.00
O201   O     0.25000   0.57155   0.12105   0.00000  Uiso   1.00
O202   O     0.25000   0.57155   0.21228   0.00000  Uiso   1.00
O203   O     0.25000   0.42845   0.12105   0.00000  Uiso   1.00
O204   O     0.18392   0.50000   0.21230   0.00000  Uiso   1.00
O205   O     0.31607   0.50000   0.12104   0.00000  Uiso   1.00
O206   O     0.31607   0.50000   0.21230   0.00000  Uiso   1.00
O207   O     0.18392   0.50000   0.12104   0.00000  Uiso   1.00
O208   O     0.46534   0.37332   0.13454   0.00000  Uiso   1.00
Zn209  Zn    0.25000   0.50000   0.22759   0.00000  Uiso   1.00
Zn210  Zn    0.25000   0.50000   0.10574   0.00000  Uiso   1.00
C211   C     0.75005   0.40584   0.16672   0.00000  Uiso   1.00
C212   C     0.61573   0.50217   0.16986   0.00000  Uiso   1.00
C213   C     0.95557   0.45654   0.15998   0.00000  Uiso   1.00
C214   C     0.54512   0.54546   0.16201   0.00000  Uiso   1.00
C215   C     0.95134   0.54388   0.16670   0.00000  Uiso   1.00
C216   C     0.54808   0.45808   0.17373   0.00000  Uiso   1.00
C217   C     0.97668   0.50064   0.16505   0.00000  Uiso   1.00
C218   C     0.52336   0.50148   0.16724   0.00000  Uiso   1.00
C219   C     0.98185   0.41415   0.15691   0.00000  Uiso   1.00
C220   C     0.51932   0.58804   0.15416   0.00000  Uiso   1.00
C221   C     0.97310   0.58759   0.16741   0.00000  Uiso   1.00
C222   C     0.74995   0.59416   0.16662   0.00000  Uiso   1.00
C223   C     0.52597   0.41456   0.17469   0.00000  Uiso   1.00
C224   C     0.75001   0.35484   0.16674   0.00000  Uiso   1.00
C225   C     0.74998   0.64516   0.16660   0.00000  Uiso   1.00
C226   C     0.96425   0.37895   0.07698   0.00000  Uiso   1.00
C227   C     0.94048   0.33671   0.05285   0.00000  Uiso   1.00
C228   C     0.56030   0.62769   0.08648   0.00000  Uiso   1.00
C229   C     0.59904   0.66248   0.08421   0.00000  Uiso   1.00
C230   C     0.93636   0.63404   0.23244   0.00000  Uiso   1.00
C231   C     0.89991   0.34008   0.23954   0.00000  Uiso   1.00
C232   C     0.55095   0.36960   0.24592   0.00000  Uiso   1.00
C233   C     0.66331   0.50168   0.16757   0.00000  Uiso   1.00
C234   C     0.57241   0.65456   0.26094   0.00000  Uiso   1.00
C235   C     0.83669   0.49832   0.16577   0.00000  Uiso   1.00
C236   C     0.90474   0.54266   0.16637   0.00000  Uiso   1.00
C237   C     0.59453   0.45872   0.17526   0.00000  Uiso   1.00
C238   C     0.90894   0.45578   0.15816   0.00000  Uiso   1.00
C239   C     0.59182   0.54557   0.16471   0.00000  Uiso   1.00
C240   C     0.88425   0.49876   0.16346   0.00000  Uiso   1.00
H241   H     0.99898   0.38016   0.05890   0.00000  Uiso   1.00
H242   H     0.58573   0.36689   0.08258   0.00000  Uiso   1.00
H243   H     0.96613   0.64357   0.25587   0.00000  Uiso   1.00
H244   H     0.92274   0.60029   0.25031   0.00000  Uiso   1.00
H245   H     0.87427   0.33658   0.20779   0.00000  Uiso   1.00
H246   H     0.88279   0.33709   0.28045   0.00000  Uiso   1.00
H247   H     0.91503   0.37601   0.23611   0.00000  Uiso   1.00
H248   H     0.51699   0.37276   0.26639   0.00000  Uiso   1.00
H249   H     0.57223   0.39837   0.26187   0.00000  Uiso   1.00
H250   H     0.60521   0.64920   0.23846   0.00000  Uiso   1.00
H251   H     0.57805   0.65342   0.30537   0.00000  Uiso   1.00
H252   H     0.94544   0.41236   0.06476   0.00000  Uiso   1.00
H253   H     0.54997   0.62492   0.25095   0.00000  Uiso   1.00
H254   H     0.88411   0.57553   0.16760   0.00000  Uiso   1.00
H255   H     0.61455   0.42555   0.17816   0.00000  Uiso   1.00
H256   H     0.89175   0.42209   0.15462   0.00000  Uiso   1.00
H257   H     0.60982   0.57886   0.16251   0.00000  Uiso   1.00
H258   H     0.90489   0.33676   0.06796   0.00000  Uiso   1.00
H259   H     0.94160   0.34018   0.00777   0.00000  Uiso   1.00
H260   H     0.95722   0.63538   0.06407   0.00000  Uiso   1.00
H261   H     0.53601   0.63805   0.05479   0.00000  Uiso   1.00
H262   H     0.57395   0.59123   0.07515   0.00000  Uiso   1.00
H263   H     0.61973   0.65798   0.12107   0.00000  Uiso   1.00
H264   H     0.62117   0.65538   0.04751   0.00000  Uiso   1.00
N265   N     0.75000   0.50000   0.02455   0.00000  Uiso   1.00
N266   N     0.75000   0.50000   0.30879   0.00000  Uiso   1.00
O267   O     0.75000   0.42845   0.21228   0.00000  Uiso   1.00
O268   O     0.53878   0.63069   0.13912   0.00000  Uiso   1.00
O269   O     0.94854   0.62973   0.17610   0.00000  Uiso   1.00
O270   O     0.54833   0.37245   0.18830   0.00000  Uiso   1.00
O271   O     0.75000   0.57155   0.12105   0.00000  Uiso   1.00
O272   O     0.75000   0.57155   0.21228   0.00000  Uiso   1.00
O273   O     0.75000   0.42845   0.12105   0.00000  Uiso   1.00
O274   O     0.68392   0.50000   0.21230   0.00000  Uiso   1.00
O275   O     0.81607   0.50000   0.12104   0.00000  Uiso   1.00
O276   O     0.81607   0.50000   0.21230   0.00000  Uiso   1.00
O277   O     0.68392   0.50000   0.12104   0.00000  Uiso   1.00
O278   O     0.96534   0.37332   0.13454   0.00000  Uiso   1.00
Zn279  Zn    0.75000   0.50000   0.22759   0.00000  Uiso   1.00
Zn280  Zn    0.75000   0.50000   0.10574   0.00000  Uiso   1.00
C281   C     0.25005   0.73917   0.16672   0.00000  Uiso   1.00
C282   C     0.11573   0.83551   0.16986   0.00000  Uiso   1.00
C283   C     0.45557   0.78988   0.15998   0.00000  Uiso   1.00
C284   C     0.04512   0.87880   0.16201   0.00000  Uiso   1.00
C285   C     0.45134   0.87721   0.16670   0.00000  Uiso   1.00
C286   C     0.04808   0.79141   0.17373   0.00000  Uiso   1.00
C287   C     0.47668   0.83397   0.16505   0.00000  Uiso   1.00
C288   C     0.02336   0.83481   0.16724   0.00000  Uiso   1.00
C289   C     0.48185   0.74749   0.15691   0.00000  Uiso   1.00
C290   C     0.01932   0.92137   0.15416   0.00000  Uiso   1.00
C291   C     0.47310   0.92093   0.16741   0.00000  Uiso   1.00
C292   C     0.24995   0.92750   0.16662   0.00000  Uiso   1.00
C293   C     0.02597   0.74789   0.17469   0.00000  Uiso   1.00
C294   C     0.25001   0.68818   0.16674   0.00000  Uiso   1.00
C295   C     0.24998   0.97849   0.16660   0.00000  Uiso   1.00
C296   C     0.46425   0.71228   0.07698   0.00000  Uiso   1.00
C297   C     0.44048   0.67004   0.05285   0.00000  Uiso   1.00
C298   C     0.06030   0.96102   0.08648   0.00000  Uiso   1.00
C299   C     0.09904   0.99581   0.08421   0.00000  Uiso   1.00
C300   C     0.43636   0.96737   0.23244   0.00000  Uiso   1.00
C301   C     0.39991   0.67341   0.23954   0.00000  Uiso   1.00
C302   C     0.05095   0.70294   0.24592   0.00000  Uiso   1.00
C303   C     0.16331   0.83502   0.16757   0.00000  Uiso   1.00
C304   C     0.07241   0.98789   0.26094   0.00000  Uiso   1.00
C305   C     0.33669   0.83165   0.16577   0.00000  Uiso   1.00
C306   C     0.40474   0.87599   0.16637   0.00000  Uiso   1.00
C307   C     0.09453   0.79206   0.17526   0.00000  Uiso   1.00
C308   C     0.40894   0.78911   0.15816   0.00000  Uiso   1.00
C309   C     0.09182   0.87890   0.16471   0.00000  Uiso   1.00
C310   C     0.38425   0.83210   0.16346   0.00000  Uiso   1.00
H311   H     0.49898   0.71349   0.05890   0.00000  Uiso   1.00
H312   H     0.08573   0.70023   0.08258   0.00000  Uiso   1.00
H313   H     0.46613   0.97690   0.25587   0.00000  Uiso   1.00
H314   H     0.42274   0.93363   0.25031   0.00000  Uiso   1.00
H315   H     0.37427   0.66992   0.20779   0.00000  Uiso   1.00
H316   H     0.38279   0.67043   0.28045   0.00000  Uiso   1.00
H317   H     0.41503   0.70935   0.23611   0.00000  Uiso   1.00
H318   H     0.01699   0.70610   0.26639   0.00000  Uiso   1.00
H319   H     0.07223   0.73170   0.26187   0.00000  Uiso   1.00
H320   H     0.10521   0.98253   0.23846   0.00000  Uiso   1.00
H321   H     0.07805   0.98675   0.30537   0.00000  Uiso   1.00
H322   H     0.44544   0.74570   0.06476   0.00000  Uiso   1.00
H323   H     0.04997   0.95825   0.25095   0.00000  Uiso   1.00
H324   H     0.38411   0.90887   0.16760   0.00000  Uiso   1.00
H325   H     0.11455   0.75889   0.17816   0.00000  Uiso   1.00
H326   H     0.39175   0.75543   0.15462   0.00000  Uiso   1.00
H327   H     0.10982   0.91219   0.16251   0.00000  Uiso   1.00
H328   H     0.40489   0.67009   0.06796   0.00000  Uiso   1.00
H329   H     0.44160   0.67351   0.00777   0.00000  Uiso   1.00
H330   H     0.45722   0.96872   0.06407   0.00000  Uiso   1.00
H331   H     0.03601   0.97139   0.05479   0.00000  Uiso   1.00
H332   H     0.07395   0.92456   0.07515   0.00000  Uiso   1.00
H333   H     0.11973   0.99131   0.12107   0.00000  Uiso   1.00
H334   H     0.12117   0.98871   0.04751   0.00000  Uiso   1.00
N335   N     0.25000   0.83333   0.02455   0.00000  Uiso   1.00
N336   N     0.25000   0.83333   0.30879   0.00000  Uiso   1.00
O337   O     0.25000   0.76178   0.21228   0.00000  Uiso   1.00
O338   O     0.03878   0.96402   0.13912   0.00000  Uiso   1.00
O339   O     0.44854   0.96306   0.17610   0.00000  Uiso   1.00
O340   O     0.04833   0.70579   0.18830   0.00000  Uiso   1.00
O341   O     0.25000   0.90488   0.12105   0.00000  Uiso   1.00
O342   O     0.25000   0.90488   0.21228   0.00000  Uiso   1.00
O343   O     0.25000   0.76178   0.12105   0.00000  Uiso   1.00
O344   O     0.18392   0.83333   0.21230   0.00000  Uiso   1.00
O345   O     0.31607   0.83333   0.12104   0.00000  Uiso   1.00
O346   O     0.31607   0.83333   0.21230   0.00000  Uiso   1.00
O347   O     0.18392   0.83333   0.12104   0.00000  Uiso   1.00
O348   O     0.46534   0.70666   0.13454   0.00000  Uiso   1.00
Zn349  Zn    0.25000   0.83333   0.22759   0.00000  Uiso   1.00
Zn350  Zn    0.25000   0.83333   0.10574   0.00000  Uiso   1.00
C351   C     0.75005   0.73917   0.16672   0.00000  Uiso   1.00
C352   C     0.61573   0.83551   0.16986   0.00000  Uiso   1.00
C353   C     0.95557   0.78988   0.15998   0.00000  Uiso   1.00
C354   C     0.54512   0.87880   0.16201   0.00000  Uiso   1.00
C355   C     0.95134   0.87721   0.16670   0.00000  Uiso   1.00
C356   C     0.54808   0.79141   0.17373   0.00000  Uiso   1.00
C357   C     0.97668   0.83397   0.16505   0.00000  Uiso   1.00
C358   C     0.52336   0.83481   0.16724   0.00000  Uiso   1.00
C359   C     0.98185   0.74749   0.15691   0.00000  Uiso   1.00
C360   C     0.51932   0.92137   0.15416   0.00000  Uiso   1.00
C361   C     0.97310   0.92093   0.16741   0.00000  Uiso   1.00
C362   C     0.74995   0.92750   0.16662   0.00000  Uiso   1.00
C363   C     0.52597   0.74789   0.17469   0.00000  Uiso   1.00
C364   C     0.75001   0.68818   0.16674   0.00000  Uiso   1.00
C365   C     0.74998   0.97849   0.16660   0.00000  Uiso   1.00
C366   C     0.96425   0.71228   0.07698   0.00000  Uiso   1.00
C367   C     0.94048   0.67004   0.05285   0.00000  Uiso   1.00
C368   C     0.56030   0.96102   0.08648   0.00000  Uiso   1.00
C369   C     0.59904   0.99581   0.08421   0.00000  Uiso   1.00
C370   C     0.93636   0.96737   0.23244   0.00000  Uiso   1.00
C371   C     0.89991   0.67341   0.23954   0.00000  Uiso   1.00
C372   C     0.55095   0.70294   0.24592   0.00000  Uiso   1.00
C373   C     0.66331   0.83502   0.16757   0.00000  Uiso   1.00
C374   C     0.57241   0.98789   0.26094   0.00000  Uiso   1.00
C375   C     0.83669   0.83165   0.16577   0.00000  Uiso   1.00
C376   C     0.90474   0.87599   0.16637   0.00000  Uiso   1.00
C377   C     0.59453   0.79206   0.17526   0.00000  Uiso   1.00
C378   C     0.90894   0.78911   0.15816   0.00000  Uiso   1.00
C379   C     0.59182   0.87890   0.16471   0.00000  Uiso   1.00
C380   C     0.88425   0.83210   0.16346   0.00000  Uiso   1.00
H381   H     0.99898   0.71349   0.05890   0.00000  Uiso   1.00
H382   H     0.58573   0.70023   0.08258   0.00000  Uiso   1.00
H383   H     0.96613   0.97690   0.25587   0.00000  Uiso   1.00
H384   H     0.92274   0.93363   0.25031   0.00000  Uiso   1.00
H385   H     0.87427   0.66992   0.20779   0.00000  Uiso   1.00
H386   H     0.88279   0.67043   0.28045   0.00000  Uiso   1.00
H387   H     0.91503   0.70935   0.23611   0.00000  Uiso   1.00
H388   H     0.51699   0.70610   0.26639   0.00000  Uiso   1.00
H389   H     0.57223   0.73170   0.26187   0.00000  Uiso   1.00
H390   H     0.60521   0.98253   0.23846   0.00000  Uiso   1.00
H391   H     0.57805   0.98675   0.30537   0.00000  Uiso   1.00
H392   H     0.94544   0.74570   0.06476   0.00000  Uiso   1.00
H393   H     0.54997   0.95825   0.25095   0.00000  Uiso   1.00
H394   H     0.88411   0.90887   0.16760   0.00000  Uiso   1.00
H395   H     0.61455   0.75889   0.17816   0.00000  Uiso   1.00
H396   H     0.89175   0.75543   0.15462   0.00000  Uiso   1.00
H397   H     0.60982   0.91219   0.16251   0.00000  Uiso   1.00
H398   H     0.90489   0.67009   0.06796   0.00000  Uiso   1.00
H399   H     0.94160   0.67351   0.00777   0.00000  Uiso   1.00
H400   H     0.95722   0.96872   0.06407   0.00000  Uiso   1.00
H401   H     0.53601   0.97139   0.05479   0.00000  Uiso   1.00
H402   H     0.57395   0.92456   0.07515   0.00000  Uiso   1.00
H403   H     0.61973   0.99131   0.12107   0.00000  Uiso   1.00
H404   H     0.62117   0.98871   0.04751   0.00000  Uiso   1.00
N405   N     0.75000   0.83333   0.02455   0.00000  Uiso   1.00
N406   N     0.75000   0.83333   0.30879   0.00000  Uiso   1.00
O407   O     0.75000   0.76178   0.21228   0.00000  Uiso   1.00
O408   O     0.53878   0.96402   0.13912   0.00000  Uiso   1.00
O409   O     0.94854   0.96306   0.17610   0.00000  Uiso   1.00
O410   O     0.54833   0.70579   0.18830   0.00000  Uiso   1.00
O411   O     0.75000   0.90488   0.12105   0.00000  Uiso   1.00
O412   O     0.75000   0.90488   0.21228   0.00000  Uiso   1.00
O413   O     0.75000   0.76178   0.12105   0.00000  Uiso   1.00
O414   O     0.68392   0.83333   0.21230   0.00000  Uiso   1.00
O415   O     0.81607   0.83333   0.12104   0.00000  Uiso   1.00
O416   O     0.81607   0.83333   0.21230   0.00000  Uiso   1.00
O417   O     0.68392   0.83333   0.12104   0.00000  Uiso   1.00
O418   O     0.96534   0.70666   0.13454   0.00000  Uiso   1.00
Zn419  Zn    0.75000   0.83333   0.22759   0.00000  Uiso   1.00
Zn420  Zn    0.75000   0.83333   0.10574   0.00000  Uiso   1.00
C421   C     0.25005   0.07250   0.50005   0.00000  Uiso   1.00
C422   C     0.11573   0.16884   0.50319   0.00000  Uiso   1.00
C423   C     0.45557   0.12321   0.49331   0.00000  Uiso   1.00
C424   C     0.04512   0.21213   0.49534   0.00000  Uiso   1.00
C425   C     0.45134   0.21055   0.50003   0.00000  Uiso   1.00
C426   C     0.04808   0.12475   0.50706   0.00000  Uiso   1.00
C427   C     0.47668   0.16730   0.49839   0.00000  Uiso   1.00
C428   C     0.02336   0.16814   0.50057   0.00000  Uiso   1.00
C429   C     0.48185   0.08082   0.49024   0.00000  Uiso   1.00
C430   C     0.01932   0.25471   0.48750   0.00000  Uiso   1.00
C431   C     0.47310   0.25426   0.50074   0.00000  Uiso   1.00
C432   C     0.24995   0.26083   0.49995   0.00000  Uiso   1.00
C433   C     0.02597   0.08123   0.50803   0.00000  Uiso   1.00
C434   C     0.25001   0.02151   0.50007   0.00000  Uiso   1.00
C435   C     0.24998   0.31182   0.49993   0.00000  Uiso   1.00
C436   C     0.46425   0.04562   0.41031   0.00000  Uiso   1.00
C437   C     0.44048   0.00338   0.38619   0.00000  Uiso   1.00
C438   C     0.06030   0.29436   0.41981   0.00000  Uiso   1.00
C439   C     0.09904   0.32915   0.41754   0.00000  Uiso   1.00
C440   C     0.43636   0.30071   0.56577   0.00000  Uiso   1.00
C441   C     0.39991   0.00675   0.57287   0.00000  Uiso   1.00
C442   C     0.05095   0.03627   0.57926   0.00000  Uiso   1.00
C443   C     0.16331   0.16835   0.50090   0.00000  Uiso   1.00
C444   C     0.07241   0.32123   0.59427   0.00000  Uiso   1.00
C445   C     0.33669   0.16498   0.49910   0.00000  Uiso   1.00
C446   C     0.40474   0.20933   0.49971   0.00000  Uiso   1.00
C447   C     0.09453   0.12539   0.50859   0.00000  Uiso   1.00
C448   C     0.40894   0.12244   0.49149   0.00000  Uiso   1.00
C449   C     0.09182   0.21223   0.49804   0.00000  Uiso   1.00
C450   C     0.38425   0.16543   0.49679   0.00000  Uiso   1.00
H451   H     0.49898   0.04682   0.39223   0.00000  Uiso   1.00
H452   H     0.08573   0.03356   0.41592   0.00000  Uiso   1.00
H453   H     0.46613   0.31024   0.58920   0.00000  Uiso   1.00
H454   H     0.42274   0.26696   0.58364   0.00000  Uiso   1.00
H455   H     0.37427   0.00325   0.54113   0.00000  Uiso   1.00
H456   H     0.38279   0.00376   0.61379   0.00000  Uiso   1.00
H457   H     0.41503   0.04268   0.56945   0.00000  Uiso   1.00
H458   H     0.01699   0.03943   0.59973   0.00000  Uiso   1.00
H459   H     0.07223   0.06504   0.59521   0.00000  Uiso   1.00
H460   H     0.10521   0.31586   0.57180   0.00000  Uiso   1.00
H461   H     0.07805   0.32008   0.63871   0.00000  Uiso   1.00
H462   H     0.44544   0.07903   0.39809   0.00000  Uiso   1.00
H463   H     0.04997   0.29159   0.58429   0.00000  Uiso   1.00
H464   H     0.38411   0.24220   0.50093   0.00000  Uiso   1.00
H465   H     0.11455   0.09222   0.51149   0.00000  Uiso   1.00
H466   H     0.39175   0.08876   0.48796   0.00000  Uiso   1.00
H467   H     0.10982   0.24553   0.49585   0.00000  Uiso   1.00
H468   H     0.40489   0.00343   0.40130   0.00000  Uiso   1.00
H469   H     0.44160   0.00685   0.34110   0.00000  Uiso   1.00
H470   H     0.45722   0.30205   0.39741   0.00000  Uiso   1.00
H471   H     0.03601   0.30472   0.38813   0.00000  Uiso   1.00
H472   H     0.07395   0.25789   0.40848   0.00000  Uiso   1.00
H473   H     0.11973   0.32465   0.45440   0.00000  Uiso   1.00
H474   H     0.12117   0.32204   0.38084   0.00000  Uiso   1.00
N475   N     0.25000   0.16667   0.35788   0.00000  Uiso   1.00
N476   N     0.25000   0.16667   0.64212   0.00000  Uiso   1.00
O477   O     0.25000   0.09512   0.54562   0.00000  Uiso   1.00
O478   O     0.03878   0.29735   0.47246   0.00000  Uiso   1.00
O479   O     0.44854   0.29639   0.50943   0.00000  Uiso   1.00
O480   O     0.04833   0.03912   0.52163   0.00000  Uiso   1.00
O481   O     0.25000   0.23822   0.45438   0.00000  Uiso   1.00
O482   O     0.25000   0.23822   0.54562   0.00000  Uiso   1.00
O483   O     0.25000   0.09512   0.45438   0.00000  Uiso   1.00
O484   O     0.18392   0.16667   0.54563   0.00000  Uiso   1.00
O485   O     0.31607   0.16667   0.45437   0.00000  Uiso   1.00
O486   O     0.31607   0.16667   0.54563   0.00000  Uiso   1.00
O487   O     0.18392   0.16667   0.45437   0.00000  Uiso   1.00
O488   O     0.46534   0.03999   0.46787   0.00000  Uiso   1.00
Zn489  Zn    0.25000   0.16667   0.56093   0.00000  Uiso   1.00
Zn490  Zn    0.25000   0.16667   0.43907   0.00000  Uiso   1.00
C491   C     0.75005   0.07250   0.50005   0.00000  Uiso   1.00
C492   C     0.61573   0.16884   0.50319   0.00000  Uiso   1.00
C493   C     0.95557   0.12321   0.49331   0.00000  Uiso   1.00
C494   C     0.54512   0.21213   0.49534   0.00000  Uiso   1.00
C495   C     0.95134   0.21055   0.50003   0.00000  Uiso   1.00
C496   C     0.54808   0.12475   0.50706   0.00000  Uiso   1.00
C497   C     0.97668   0.16730   0.49839   0.00000  Uiso   1.00
C498   C     0.52336   0.16814   0.50057   0.00000  Uiso   1.00
C499   C     0.98185   0.08082   0.49024   0.00000  Uiso   1.00
C500   C     0.51932   0.25471   0.48750   0.00000  Uiso   1.00
C501   C     0.97310   0.25426   0.50074   0.00000  Uiso   1.00
C502   C     0.74995   0.26083   0.49995   0.00000  Uiso   1.00
C503   C     0.52597   0.08123   0.50803   0.00000  Uiso   1.00
C504   C     0.75001   0.02151   0.50007   0.00000  Uiso   1.00
C505   C     0.74998   0.31182   0.49993   0.00000  Uiso   1.00
C506   C     0.96425   0.04562   0.41031   0.00000  Uiso   1.00
C507   C     0.94048   0.00338   0.38619   0.00000  Uiso   1.00
C508   C     0.56030   0.29436   0.41981   0.00000  Uiso   1.00
C509   C     0.59904   0.32915   0.41754   0.00000  Uiso   1.00
C510   C     0.93636   0.30071   0.56577   0.00000  Uiso   1.00
C511   C     0.89991   0.00675   0.57287   0.00000  Uiso   1.00
C512   C     0.55095   0.03627   0.57926   0.00000  Uiso   1.00
C513   C     0.66331   0.16835   0.50090   0.00000  Uiso   1.00
C514   C     0.57241   0.32123   0.59427   0.00000  Uiso   1.00
C515   C     0.83669   0.16498   0.49910   0.00000  Uiso   1.00
C516   C     0.90474   0.20933   0.49971   0.00000  Uiso   1.00
C517   C     0.59453   0.12539   0.50859   0.00000  Uiso   1.00
C518   C     0.90894   0.12244   0.49149   0.00000  Uiso   1.00
C519   C     0.59182   0.21223   0.49804   0.00000  Uiso   1.00
C520   C     0.88425   0.16543   0.49679   0.00000  Uiso   1.00
H521   H     0.99898   0.04682   0.39223   0.00000  Uiso   1.00
H522   H     0.58573   0.03356   0.41592   0.00000  Uiso   1.00
H523   H     0.96613   0.31024   0.58920   0.00000  Uiso   1.00
H524   H     0.92274   0.26696   0.58364   0.00000  Uiso   1.00
H525   H     0.87427   0.00325   0.54113   0.00000  Uiso   1.00
H526   H     0.88279   0.00376   0.61379   0.00000  Uiso   1.00
H527   H     0.91503   0.04268   0.56945   0.00000  Uiso   1.00
H528   H     0.51699   0.03943   0.59973   0.00000  Uiso   1.00
H529   H     0.57223   0.06504   0.59521   0.00000  Uiso   1.00
H530   H     0.60521   0.31586   0.57180   0.00000  Uiso   1.00
H531   H     0.57805   0.32008   0.63871   0.00000  Uiso   1.00
H532   H     0.94544   0.07903   0.39809   0.00000  Uiso   1.00
H533   H     0.54997   0.29159   0.58429   0.00000  Uiso   1.00
H534   H     0.88411   0.24220   0.50093   0.00000  Uiso   1.00
H535   H     0.61455   0.09222   0.51149   0.00000  Uiso   1.00
H536   H     0.89175   0.08876   0.48796   0.00000  Uiso   1.00
H537   H     0.60982   0.24553   0.49585   0.00000  Uiso   1.00
H538   H     0.90489   0.00343   0.40130   0.00000  Uiso   1.00
H539   H     0.94160   0.00685   0.34110   0.00000  Uiso   1.00
H540   H     0.95722   0.30205   0.39741   0.00000  Uiso   1.00
H541   H     0.53601   0.30472   0.38813   0.00000  Uiso   1.00
H542   H     0.57395   0.25789   0.40848   0.00000  Uiso   1.00
H543   H     0.61973   0.32465   0.45440   0.00000  Uiso   1.00
H544   H     0.62117   0.32204   0.38084   0.00000  Uiso   1.00
N545   N     0.75000   0.16667   0.35788   0.00000  Uiso   1.00
N546   N     0.75000   0.16667   0.64212   0.00000  Uiso   1.00
O547   O     0.75000   0.09512   0.54562   0.00000  Uiso   1.00
O548   O     0.53878   0.29735   0.47246   0.00000  Uiso   1.00
O549   O     0.94854   0.29639   0.50943   0.00000  Uiso   1.00
O550   O     0.54833   0.03912   0.52163   0.00000  Uiso   1.00
O551   O     0.75000   0.23822   0.45438   0.00000  Uiso   1.00
O552   O     0.75000   0.23822   0.54562   0.00000  Uiso   1.00
O553   O     0.75000   0.09512   0.45438   0.00000  Uiso   1.00
O554   O     0.68392   0.16667   0.54563   0.00000  Uiso   1.00
O555   O     0.81607   0.16667   0.45437   0.00000  Uiso   1.00
O556   O     0.81607   0.16667   0.54563   0.00000  Uiso   1.00
O557   O     0.68392   0.16667   0.45437   0.00000  Uiso   1.00
O558   O     0.96534   0.03999   0.46787   0.00000  Uiso   1.00
Zn559  Zn    0.75000   0.16667   0.56093   0.00000  Uiso   1.00
Zn560  Zn    0.75000   0.16667   0.43907   0.00000  Uiso   1.00
C561   C     0.25005   0.40584   0.50005   0.00000  Uiso   1.00
C562   C     0.11573   0.50217   0.50319   0.00000  Uiso   1.00
C563   C     0.45557   0.45654   0.49331   0.00000  Uiso   1.00
C564   C     0.04512   0.54546   0.49534   0.00000  Uiso   1.00
C565   C     0.45134   0.54388   0.50003   0.00000  Uiso   1.00
C566   C     0.04808   0.45808   0.50706   0.00000  Uiso   1.00
C567   C     0.47668   0.50064   0.49839   0.00000  Uiso   1.00
C568   C     0.02336   0.50148   0.50057   0.00000  Uiso   1.00
C569   C     0.48185   0.41415   0.49024   0.00000  Uiso   1.00
C570   C     0.01932   0.58804   0.48750   0.00000  Uiso   1.00
C571   C     0.47310   0.58759   0.50074   0.00000  Uiso   1.00
C572   C     0.24995   0.59416   0.49995   0.00000  Uiso   1.00
C573   C     0.02597   0.41456   0.50803   0.00000  Uiso   1.00
C574   C     0.25001   0.35484   0.50007   0.00000  Uiso   1.00
C575   C     0.24998   0.64516   0.49993   0.00000  Uiso   1.00
C576   C     0.46425   0.37895   0.41031   0.00000  Uiso   1.00
C577   C     0.44048   0.33671   0.38619   0.00000  Uiso   1.00
C578   C     0.06030   0.62769   0.41981   0.00000  Uiso   1.00
C579   C     0.09904   0.66248   0.41754   0.00000  Uiso   1.00
C580   C     0.43636   0.63404   0.56577   0.00000  Uiso   1.00
C581   C     0.39991   0.34008   0.57287   0.00000  Uiso   1.00
C582   C     0.05095   0.36960   0.57926   0.00000  Uiso   1.00
C583   C     0.16331   0.50168   0.50090   0.00000  Uiso   1.00
C584   C     0.07241   0.65456   0.59427   0.00000  Uiso   1.00
C585   C     0.33669   0.49832   0.49910   0.00000  Uiso   1.00
C586   C     0.40474   0.54266   0.49971   0.00000  Uiso   1.00
C587   C     0.09453   0.45872   0.50859   0.00000  Uiso   1.00
C588   C     0.40894   0.45578   0.49149   0.00000  Uiso   1.00
C589   C     0.09182   0.54557   0.49804   0.00000  Uiso   1.00
C590   C     0.38425   0.49876   0.49679   0.00000  Uiso   1.00
H591   H     0.49898   0.38016   0.39223   0.00000  Uiso   1.00
H592   H     0.08573   0.36689   0.41592   0.00000  Uiso   1.00
H593   H     0.46613   0.64357   0.58920   0.00000  Uiso   1.00
H594   H     0.42274   0.60029   0.58364   0.00000  Uiso   1.00
H595   H     0.37427   0.33658   0.54113   0.00000  Uiso   1.00
H596   H     0.38279   0.33709   0.61379   0.00000  Uiso   1.00
H597   H     0.41503   0.37601   0.56945   0.00000  Uiso   1.00
H598   H     0.01699   0.37276   0.59973   0.00000  Uiso   1.00
H599   H     0.07223   0.39837   0.59521   0.00000  Uiso   1.00
H600   H     0.10521   0.64920   0.57180   0.00000  Uiso   1.00
H601   H     0.07805   0.65342   0.63871   0.00000  Uiso   1.00
H602   H     0.44544   0.41236   0.39809   0.00000  Uiso   1.00
H603   H     0.04997   0.62492   0.58429   0.00000  Uiso   1.00
H604   H     0.38411   0.57553   0.50093   0.00000  Uiso   1.00
H605   H     0.11455   0.42555   0.51149   0.00000  Uiso   1.00
H606   H     0.39175   0.42209   0.48796   0.00000  Uiso   1.00
H607   H     0.10982   0.57886   0.49585   0.00000  Uiso   1.00
H608   H     0.40489   0.33676   0.40130   0.00000  Uiso   1.00
H609   H     0.44160   0.34018   0.34110   0.00000  Uiso   1.00
H610   H     0.45722   0.63538   0.39741   0.00000  Uiso   1.00
H611   H     0.03601   0.63805   0.38813   0.00000  Uiso   1.00
H612   H     0.07395   0.59123   0.40848   0.00000  Uiso   1.00
H613   H     0.11973   0.65798   0.45440   0.00000  Uiso   1.00
H614   H     0.12117   0.65538   0.38084   0.00000  Uiso   1.00
N615   N     0.25000   0.50000   0.35788   0.00000  Uiso   1.00
N616   N     0.25000   0.50000   0.64212   0.00000  Uiso   1.00
O617   O     0.25000   0.42845   0.54562   0.00000  Uiso   1.00
O618   O     0.03878   0.63069   0.47246   0.00000  Uiso   1.00
O619   O     0.44854   0.62973   0.50943   0.00000  Uiso   1.00
O620   O     0.04833   0.37245   0.52163   0.00000  Uiso   1.00
O621   O     0.25000   0.57155   0.45438   0.00000  Uiso   1.00
O622   O     0.25000   0.57155   0.54562   0.00000  Uiso   1.00
O623   O     0.25000   0.42845   0.45438   0.00000  Uiso   1.00
O624   O     0.18392   0.50000   0.54563   0.00000  Uiso   1.00
O625   O     0.31607   0.50000   0.45437   0.00000  Uiso   1.00
O626   O     0.31607   0.50000   0.54563   0.00000  Uiso   1.00
O627   O     0.18392   0.50000   0.45437   0.00000  Uiso   1.00
O628   O     0.46534   0.37332   0.46787   0.00000  Uiso   1.00
Zn629  Zn    0.25000   0.50000   0.56093   0.00000  Uiso   1.00
Zn630  Zn    0.25000   0.50000   0.43907   0.00000  Uiso   1.00
C631   C     0.75005   0.40584   0.50005   0.00000  Uiso   1.00
C632   C     0.61573   0.50217   0.50319   0.00000  Uiso   1.00
C633   C     0.95557   0.45654   0.49331   0.00000  Uiso   1.00
C634   C     0.54512   0.54546   0.49534   0.00000  Uiso   1.00
C635   C     0.95134   0.54388   0.50003   0.00000  Uiso   1.00
C636   C     0.54808   0.45808   0.50706   0.00000  Uiso   1.00
C637   C     0.97668   0.50064   0.49839   0.00000  Uiso   1.00
C638   C     0.52336   0.50148   0.50057   0.00000  Uiso   1.00
C639   C     0.98185   0.41415   0.49024   0.00000  Uiso   1.00
C640   C     0.51932   0.58804   0.48750   0.00000  Uiso   1.00
C641   C     0.97310   0.58759   0.50074   0.00000  Uiso   1.00
C642   C     0.74995   0.59416   0.49995   0.00000  Uiso   1.00
C643   C     0.52597   0.41456   0.50803   0.00000  Uiso   1.00
C644   C     0.75001   0.35484   0.50007   0.00000  Uiso   1.00
C645   C     0.74998   0.64516   0.49993   0.00000  Uiso   1.00
C646   C     0.96425   0.37895   0.41031   0.00000  Uiso   1.00
C647   C     0.94048   0.33671   0.38619   0.00000  Uiso   1.00
C648   C     0.56030   0.62769   0.41981   0.00000  Uiso   1.00
C649   C     0.59904   0.66248   0.41754   0.00000  Uiso   1.00
C650   C     0.93636   0.63404   0.56577   0.00000  Uiso   1.00
C651   C     0.89991   0.34008   0.57287   0.00000  Uiso   1.00
C652   C     0.55095   0.36960   0.57926   0.00000  Uiso   1.00
C653   C     0.66331   0.50168   0.50090   0.00000  Uiso   1.00
C654   C     0.57241   0.65456   0.59427   0.00000  Uiso   1.00
C655   C     0.83669   0.49832   0.49910   0.00000  Uiso   1.00
C656   C     0.90474   0.54266   0.49971   0.00000  Uiso   1.00
C657   C     0.59453   0.45872   0.50859   0.00000  Uiso   1.00
C658   C     0.90894   0.45578   0.49149   0.00000  Uiso   1.00
C659   C     0.59182   0.54557   0.49804   0.00000  Uiso   1.00
C660   C     0.88425   0.49876   0.49679   0.00000  Uiso   1.00
H661   H     0.99898   0.38016   0.39223   0.00000  Uiso   1.00
H662   H     0.58573   0.36689   0.41592   0.00000  Uiso   1.00
H663   H     0.96613   0.64357   0.58920   0.00000  Uiso   1.00
H664   H     0.92274   0.60029   0.58364   0.00000  Uiso   1.00
H665   H     0.87427   0.33658   0.54113   0.00000  Uiso   1.00
H666   H     0.88279   0.33709   0.61379   0.00000  Uiso   1.00
H667   H     0.91503   0.37601   0.56945   0.00000  Uiso   1.00
H668   H     0.51699   0.37276   0.59973   0.00000  Uiso   1.00
H669   H     0.57223   0.39837   0.59521   0.00000  Uiso   1.00
H670   H     0.60521   0.64920   0.57180   0.00000  Uiso   1.00
H671   H     0.57805   0.65342   0.63871   0.00000  Uiso   1.00
H672   H     0.94544   0.41236   0.39809   0.00000  Uiso   1.00
H673   H     0.54997   0.62492   0.58429   0.00000  Uiso   1.00
H674   H     0.88411   0.57553   0.50093   0.00000  Uiso   1.00
H675   H     0.61455   0.42555   0.51149   0.00000  Uiso   1.00
H676   H     0.89175   0.42209   0.48796   0.00000  Uiso   1.00
H677   H     0.60982   0.57886   0.49585   0.00000  Uiso   1.00
H678   H     0.90489   0.33676   0.40130   0.00000  Uiso   1.00
H679   H     0.94160   0.34018   0.34110   0.00000  Uiso   1.00
H680   H     0.95722   0.63538   0.39741   0.00000  Uiso   1.00
H681   H     0.53601   0.63805   0.38813   0.00000  Uiso   1.00
H682   H     0.57395   0.59123   0.40848   0.00000  Uiso   1.00
H683   H     0.61973   0.65798   0.45440   0.00000  Uiso   1.00
H684   H     0.62117   0.65538   0.38084   0.00000  Uiso   1.00
N685   N     0.75000   0.50000   0.35788   0.00000  Uiso   1.00
N686   N     0.75000   0.50000   0.64212   0.00000  Uiso   1.00
O687   O     0.75000   0.42845   0.54562   0.00000  Uiso   1.00
O688   O     0.53878   0.63069   0.47246   0.00000  Uiso   1.00
O689   O     0.94854   0.62973   0.50943   0.00000  Uiso   1.00
O690   O     0.54833   0.37245   0.52163   0.00000  Uiso   1.00
O691   O     0.75000   0.57155   0.45438   0.00000  Uiso   1.00
O692   O     0.75000   0.57155   0.54562   0.00000  Uiso   1.00
O693   O     0.75000   0.42845   0.45438   0.00000  Uiso   1.00
O694   O     0.68392   0.50000   0.54563   0.00000  Uiso   1.00
O695   O     0.81607   0.50000   0.45437   0.00000  Uiso   1.00
O696   O     0.81607   0.50000   0.54563   0.00000  Uiso   1.00
O697   O     0.68392   0.50000   0.45437   0.00000  Uiso   1.00
O698   O     0.96534   0.37332   0.46787   0.00000  Uiso   1.00
Zn699  Zn    0.75000   0.50000   0.56093   0.00000  Uiso   1.00
Zn700  Zn    0.75000   0.50000   0.43907   0.00000  Uiso   1.00
C701   C     0.25005   0.73917   0.50005   0.00000  Uiso   1.00
C702   C     0.11573   0.83551   0.50319   0.00000  Uiso   1.00
C703   C     0.45557   0.78988   0.49331   0.00000  Uiso   1.00
C704   C     0.04512   0.87880   0.49534   0.00000  Uiso   1.00
C705   C     0.45134   0.87721   0.50003   0.00000  Uiso   1.00
C706   C     0.04808   0.79141   0.50706   0.00000  Uiso   1.00
C707   C     0.47668   0.83397   0.49839   0.00000  Uiso   1.00
C708   C     0.02336   0.83481   0.50057   0.00000  Uiso   1.00
C709   C     0.48185   0.74749   0.49024   0.00000  Uiso   1.00
C710   C     0.01932   0.92137   0.48750   0.00000  Uiso   1.00
C711   C     0.47310   0.92093   0.50074   0.00000  Uiso   1.00
C712   C     0.24995   0.92750   0.49995   0.00000  Uiso   1.00
C713   C     0.02597   0.74789   0.50803   0.00000  Uiso   1.00
C714   C     0.25001   0.68818   0.50007   0.00000  Uiso   1.00
C715   C     0.24998   0.97849   0.49993   0.00000  Uiso   1.00
C716   C     0.46425   0.71228   0.41031   0.00000  Uiso   1.00
C717   C     0.44048   0.67004   0.38619   0.00000  Uiso   1.00
C718   C     0.06030   0.96102   0.41981   0.00000  Uiso   1.00
C719   C     0.09904   0.99581   0.41754   0.00000  Uiso   1.00
C720   C     0.43636   0.96737   0.56577   0.00000  Uiso   1.00
C721   C     0.39991   0.67341   0.57287   0.00000  Uiso   1.00
C722   C     0.05095   0.70294   0.57926   0.00000  Uiso   1.00
C723   C     0.16331   0.83502   0.50090   0.00000  Uiso   1.00
C724   C     0.07241   0.98789   0.59427   0.00000  Uiso   1.00
C725   C     0.33669   0.83165   0.49910   0.00000  Uiso   1.00
C726   C     0.40474   0.87599   0.49971   0.00000  Uiso   1.00
C727   C     0.09453   0.79206   0.50859   0.00000  Uiso   1.00
C728   C     0.40894   0.78911   0.49149   0.00000  Uiso   1.00
C729   C     0.09182   0.87890   0.49804   0.00000  Uiso   1.00
C730   C     0.38425   0.83210   0.49679   0.00000  Uiso   1.00
H731   H     0.49898   0.71349   0.39223   0.00000  Uiso   1.00
H732   H     0.08573   0.70023   0.41592   0.00000  Uiso   1.00
H733   H     0.46613   0.97690   0.58920   0.00000  Uiso   1.00
H734   H     0.42274   0.93363   0.58364   0.00000  Uiso   1.00
H735   H     0.37427   0.66992   0.54113   0.00000  Uiso   1.00
H736   H     0.38279   0.67043   0.61379   0.00000  Uiso   1.00
H737   H     0.41503   0.70935   0.56945   0.00000  Uiso   1.00
H738   H     0.01699   0.70610   0.59973   0.00000  Uiso   1.00
H739   H     0.07223   0.73170   0.59521   0.00000  Uiso   1.00
H740   H     0.10521   0.98253   0.57180   0.00000  Uiso   1.00
H741   H     0.07805   0.98675   0.63871   0.00000  Uiso   1.00
H742   H     0.44544   0.74570   0.39809   0.00000  Uiso   1.00
H743   H     0.04997   0.95825   0.58429   0.00000  Uiso   1.00
H744   H     0.38411   0.90887   0.50093   0.00000  Uiso   1.00
H745   H     0.11455   0.75889   0.51149   0.00000  Uiso   1.00
H746   H     0.39175   0.75543   0.48796   0.00000  Uiso   1.00
H747   H     0.10982   0.91219   0.49585   0.00000  Uiso   1.00
H748   H     0.40489   0.67009   0.40130   0.00000  Uiso   1.00
H749   H     0.44160   0.67351   0.34110   0.00000  Uiso   1.00
H750   H     0.45722   0.96872   0.39741   0.00000  Uiso   1.00
H751   H     0.03601   0.97139   0.38813   0.00000  Uiso   1.00
H752   H     0.07395   0.92456   0.40848   0.00000  Uiso   1.00
H753   H     0.11973   0.99131   0.45440   0.00000  Uiso   1.00
H754   H     0.12117   0.98871   0.38084   0.00000  Uiso   1.00
N755   N     0.25000   0.83333   0.35788   0.00000  Uiso   1.00
N756   N     0.25000   0.83333   0.64212   0.00000  Uiso   1.00
O757   O     0.25000   0.76178   0.54562   0.00000  Uiso   1.00
O758   O     0.03878   0.96402   0.47246   0.00000  Uiso   1.00
O759   O     0.44854   0.96306   0.50943   0.00000  Uiso   1.00
O760   O     0.04833   0.70579   0.52163   0.00000  Uiso   1.00
O761   O     0.25000   0.90488   0.45438   0.00000  Uiso   1.00
O762   O     0.25000   0.90488   0.54562   0.00000  Uiso   1.00
O763   O     0.25000   0.76178   0.45438   0.00000  Uiso   1.00
O764   O     0.18392   0.83333   0.54563   0.00000  Uiso   1.00
O765   O     0.31607   0.83333   0.45437   0.00000  Uiso   1.00
O766   O     0.31607   0.83333   0.54563   0.00000  Uiso   1.00
O767   O     0.18392   0.83333   0.45437   0.00000  Uiso   1.00
O768   O     0.46534   0.70666   0.46787   0.00000  Uiso   1.00
Zn769  Zn    0.25000   0.83333   0.56093   0.00000  Uiso   1.00
Zn770  Zn    0.25000   0.83333   0.43907   0.00000  Uiso   1.00
C771   C     0.75005   0.73917   0.50005   0.00000  Uiso   1.00
C772   C     0.61573   0.83551   0.50319   0.00000  Uiso   1.00
C773   C     0.95557   0.78988   0.49331   0.00000  Uiso   1.00
C774   C     0.54512   0.87880   0.49534   0.00000  Uiso   1.00
C775   C     0.95134   0.87721   0.50003   0.00000  Uiso   1.00
C776   C     0.54808   0.79141   0.50706   0.00000  Uiso   1.00
C777   C     0.97668   0.83397   0.49839   0.00000  Uiso   1.00
C778   C     0.52336   0.83481   0.50057   0.00000  Uiso   1.00
C779   C     0.98185   0.74749   0.49024   0.00000  Uiso   1.00
C780   C     0.51932   0.92137   0.48750   0.00000  Uiso   1.00
C781   C     0.97310   0.92093   0.50074   0.00000  Uiso   1.00
C782   C     0.74995   0.92750   0.49995   0.00000  Uiso   1.00
C783   C     0.52597   0.74789   0.50803   0.00000  Uiso   1.00
C784   C     0.75001   0.68818   0.50007   0.00000  Uiso   1.00
C785   C     0.74998   0.97849   0.49993   0.00000  Uiso   1.00
C786   C     0.96425   0.71228   0.41031   0.00000  Uiso   1.00
C787   C     0.94048   0.67004   0.38619   0.00000  Uiso   1.00
C788   C     0.56030   0.96102   0.41981   0.00000  Uiso   1.00
C789   C     0.59904   0.99581   0.41754   0.00000  Uiso   1.00
C790   C     0.93636   0.96737   0.56577   0.00000  Uiso   1.00
C791   C     0.89991   0.67341   0.57287   0.00000  Uiso   1.00
C792   C     0.55095   0.70294   0.57926   0.00000  Uiso   1.00
C793   C     0.66331   0.83502   0.50090   0.00000  Uiso   1.00
C794   C     0.57241   0.98789   0.59427   0.00000  Uiso   1.00
C795   C     0.83669   0.83165   0.49910   0.00000  Uiso   1.00
C796   C     0.90474   0.87599   0.49971   0.00000  Uiso   1.00
C797   C     0.59453   0.79206   0.50859   0.00000  Uiso   1.00
C798   C     0.90894   0.78911   0.49149   0.00000  Uiso   1.00
C799   C     0.59182   0.87890   0.49804   0.00000  Uiso   1.00
C800   C     0.88425   0.83210   0.49679   0.00000  Uiso   1.00
H801   H     0.99898   0.71349   0.39223   0.00000  Uiso   1.00
H802   H     0.58573   0.70023   0.41592   0.00000  Uiso   1.00
H803   H     0.96613   0.97690   0.58920   0.00000  Uiso   1.00
H804   H     0.92274   0.93363   0.58364   0.00000  Uiso   1.00
H805   H     0.87427   0.66992   0.54113   0.00000  Uiso   1.00
H806   H     0.88279   0.67043   0.61379   0.00000  Uiso   1.00
H807   H     0.91503   0.70935   0.56945   0.00000  Uiso   1.00
H808   H     0.51699   0.70610   0.59973   0.00000  Uiso   1.00
H809   H     0.57223   0.73170   0.59521   0.00000  Uiso   1.00
H810   H     0.60521   0.98253   0.57180   0.00000  Uiso   1.00
H811   H     0.57805   0.98675   0.63871   0.00000  Uiso   1.00
H812   H     0.94544   0.74570   0.39809   0.00000  Uiso   1.00
H813   H     0.54997   0.95825   0.58429   0.00000  Uiso   1.00
H814   H     0.88411   0.90887   0.50093   0.00000  Uiso   1.00
H815   H     0.61455   0.75889   0.51149   0.00000  Uiso   1.00
H816   H     0.89175   0.75543   0.48796   0.00000  Uiso   1.00
H817   H     0.60982   0.91219   0.49585   0.00000  Uiso   1.00
H818   H     0.90489   0.67009   0.40130   0.00000  Uiso   1.00
H819   H     0.94160   0.67351   0.34110   0.00000  Uiso   1.00
H820   H     0.95722   0.96872   0.39741   0.00000  Uiso   1.00
H821   H     0.53601   0.97139   0.38813   0.00000  Uiso   1.00
H822   H     0.57395   0.92456   0.40848   0.00000  Uiso   1.00
H823   H     0.61973   0.99131   0.45440   0.00000  Uiso   1.00
H824   H     0.62117   0.98871   0.38084   0.00000  Uiso   1.00
N825   N     0.75000   0.83333   0.35788   0.00000  Uiso   1.00
N826   N     0.75000   0.83333   0.64212   0.00000  Uiso   1.00
O827   O     0.75000   0.76178   0.54562   0.00000  Uiso   1.00
O828   O     0.53878   0.96402   0.47246   0.00000  Uiso   1.00
O829   O     0.94854   0.96306   0.50943   0.00000  Uiso   1.00
O830   O     0.54833   0.70579   0.52163   0.00000  Uiso   1.00
O831   O     0.75000   0.90488   0.45438   0.00000  Uiso   1.00
O832   O     0.75000   0.90488   0.54562   0.00000  Uiso   1.00
O833   O     0.75000   0.76178   0.45438   0.00000  Uiso   1.00
O834   O     0.68392   0.83333   0.54563   0.00000  Uiso   1.00
O835   O     0.81607   0.83333   0.45437   0.00000  Uiso   1.00
O836   O     0.81607   0.83333   0.54563   0.00000  Uiso   1.00
O837   O     0.68392   0.83333   0.45437   0.00000  Uiso   1.00
O838   O     0.96534   0.70666   0.46787   0.00000  Uiso   1.00
Zn839  Zn    0.75000   0.83333   0.56093   0.00000  Uiso   1.00
Zn840  Zn    0.75000   0.83333   0.43907   0.00000  Uiso   1.00
C841   C     0.25005   0.07250   0.83339   0.00000  Uiso   1.00
C842   C     0.11573   0.16884   0.83652   0.00000  Uiso   1.00
C843   C     0.45557   0.12321   0.82664   0.00000  Uiso   1.00
C844   C     0.04512   0.21213   0.82867   0.00000  Uiso   1.00
C845   C     0.45134   0.21055   0.83337   0.00000  Uiso   1.00
C846   C     0.04808   0.12475   0.84039   0.00000  Uiso   1.00
C847   C     0.47668   0.16730   0.83172   0.00000  Uiso   1.00
C848   C     0.02336   0.16814   0.83390   0.00000  Uiso   1.00
C849   C     0.48185   0.08082   0.82357   0.00000  Uiso   1.00
C850   C     0.01932   0.25471   0.82083   0.00000  Uiso   1.00
C851   C     0.47310   0.25426   0.83407   0.00000  Uiso   1.00
C852   C     0.24995   0.26083   0.83328   0.00000  Uiso   1.00
C853   C     0.02597   0.08123   0.84136   0.00000  Uiso   1.00
C854   C     0.25001   0.02151   0.83341   0.00000  Uiso   1.00
C855   C     0.24998   0.31182   0.83326   0.00000  Uiso   1.00
C856   C     0.46425   0.04562   0.74365   0.00000  Uiso   1.00
C857   C     0.44048   0.00338   0.71952   0.00000  Uiso   1.00
C858   C     0.06030   0.29436   0.75315   0.00000  Uiso   1.00
C859   C     0.09904   0.32915   0.75087   0.00000  Uiso   1.00
C860   C     0.43636   0.30071   0.89911   0.00000  Uiso   1.00
C861   C     0.39991   0.00675   0.90621   0.00000  Uiso   1.00
C862   C     0.05095   0.03627   0.91259   0.00000  Uiso   1.00
C863   C     0.16331   0.16835   0.83423   0.00000  Uiso   1.00
C864   C     0.07241   0.32123   0.92761   0.00000  Uiso   1.00
C865   C     0.33669   0.16498   0.83243   0.00000  Uiso   1.00
C866   C     0.40474   0.20933   0.83304   0.00000  Uiso   1.00
C867   C     0.09453   0.12539   0.84192   0.00000  Uiso   1.00
C868   C     0.40894   0.12244   0.82483   0.00000  Uiso   1.00
C869   C     0.09182   0.21223   0.83137   0.00000  Uiso   1.00
C870   C     0.38425   0.16543   0.83012   0.00000  Uiso   1.00
H871   H     0.49898   0.04682   0.72557   0.00000  Uiso   1.00
H872   H     0.08573   0.03356   0.74925   0.00000  Uiso   1.00
H873   H     0.46613   0.31024   0.92254   0.00000  Uiso   1.00
H874   H     0.42274   0.26696   0.91697   0.00000  Uiso   1.00
H875   H     0.37427   0.00325   0.87446   0.00000  Uiso   1.00
H876   H     0.38279   0.00376   0.94712   0.00000  Uiso   1.00
H877   H     0.41503   0.04268   0.90278   0.00000  Uiso   1.00
H878   H     0.01699   0.03943   0.93306   0.00000  Uiso   1.00
H879   H     0.07223   0.06504   0.92854   0.00000  Uiso   1.00
H880   H     0.10521   0.31586   0.90513   0.00000  Uiso   1.00
H881   H     0.07805   0.32008   0.97204   0.00000  Uiso   1.00
H882   H     0.44544   0.07903   0.73142   0.00000  Uiso   1.00
H883   H     0.04997   0.29159   0.91762   0.00000  Uiso   1.00
H884   H     0.38411   0.24220   0.83427   0.00000  Uiso   1.00
H885   H     0.11455   0.09222   0.84483   0.00000  Uiso   1.00
H886   H     0.39175   0.08876   0.82129   0.00000  Uiso   1.00
H887   H     0.10982   0.24553   0.82918   0.00000  Uiso   1.00
H888   H     0.40489   0.00343   0.73463   0.00000  Uiso   1.00
H889   H     0.44160   0.00685   0.67444   0.00000  Uiso   1.00
H890   H     0.45722   0.30205   0.73074   0.00000  Uiso   1.00
H891   H     0.03601   0.30472   0.72146   0.00000  Uiso   1.00
H892   H     0.07395   0.25789   0.74182   0.00000  Uiso   1.00
H893   H     0.11973   0.32465   0.78774   0.00000  Uiso   1.00
H894   H     0.12117   0.32204   0.71417   0.00000  Uiso   1.00
N895   N     0.25000   0.16667   0.69121   0.00000  Uiso   1.00
N896   N     0.25000   0.16667   0.97545   0.00000  Uiso   1.00
O897   O     0.25000   0.09512   0.87895   0.00000  Uiso   1.00
O898   O     0.03878   0.29735   0.80579   0.00000  Uiso   1.00
O899   O     0.44854   0.29639   0.84277   0.00000  Uiso   1.00
O900   O     0.04833   0.03912   0.85497   0.00000  Uiso   1.00
O901   O     0.25000   0.23822   0.78772   0.00000  Uiso   1.00
O902   O     0.25000   0.23822   0.87895   0.00000  Uiso   1.00
O903   O     0.25000   0.09512   0.78772   0.00000  Uiso   1.00
O904   O     0.18392   0.16667   0.87896   0.00000  Uiso   1.00
O905   O     0.31607   0.16667   0.78770   0.00000  Uiso   1.00
O906   O     0.31607   0.16667   0.87896   0.00000  Uiso   1.00
O907   O     0.18392   0.16667   0.78770   0.00000  Uiso   1.00
O908   O     0.46534   0.03999   0.80120   0.00000  Uiso   1.00
Zn909  Zn    0.25000   0.16667   0.89426   0.00000  Uiso   1.00
Zn910  Zn    0.25000   0.16667   0.77241   0.00000  Uiso   1.00
C911   C     0.75005   0.07250   0.83339   0.00000  Uiso   1.00
C912   C     0.61573   0.16884   0.83652   0.00000  Uiso   1.00
C913   C     0.95557   0.12321   0.82664   0.00000  Uiso   1.00
C914   C     0.54512   0.21213   0.82867   0.00000  Uiso   1.00
C915   C     0.95134   0.21055   0.83337   0.00000  Uiso   1.00
C916   C     0.54808   0.12475   0.84039   0.00000  Uiso   1.00
C917   C     0.97668   0.16730   0.83172   0.00000  Uiso   1.00
C918   C     0.52336   0.16814   0.83390   0.00000  Uiso   1.00
C919   C     0.98185   0.08082   0.82357   0.00000  Uiso   1.00
C920   C     0.51932   0.25471   0.82083   0.00000  Uiso   1.00
C921   C     0.97310   0.25426   0.83407   0.00000  Uiso   1.00
C922   C     0.74995   0.26083   0.83328   0.00000  Uiso   1.00
C923   C     0.52597   0.08123   0.84136   0.00000  Uiso   1.00
C924   C     0.75001   0.02151   0.83341   0.00000  Uiso   1.00
C925   C     0.74998   0.31182   0.83326   0.00000  Uiso   1.00
C926   C     0.96425   0.04562   0.74365   0.00000  Uiso   1.00
C927   C     0.94048   0.00338   0.71952   0.00000  Uiso   1.00
C928   C     0.56030   0.29436   0.75315   0.00000  Uiso   1.00
C929   C     0.59904   0.32915   0.75087   0.00000  Uiso   1.00
C930   C     0.93636   0.30071   0.89911   0.00000  Uiso   1.00
C931   C     0.89991   0.00675   0.90621   0.00000  Uiso   1.00
C932   C     0.55095   0.03627   0.91259   0.00000  Uiso   1.00
C933   C     0.66331   0.16835   0.83423   0.00000  Uiso   1.00
C934   C     0.57241   0.32123   0.92761   0.00000  Uiso   1.00
C935   C     0.83669   0.16498   0.83243   0.00000  Uiso   1.00
C936   C     0.90474   0.20933   0.83304   0.00000  Uiso   1.00
C937   C     0.59453   0.12539   0.84192   0.00000  Uiso   1.00
C938   C     0.90894   0.12244   0.82483   0.00000  Uiso   1.00
C939   C     0.59182   0.21223   0.83137   0.00000  Uiso   1.00
C940   C     0.88425   0.16543   0.83012   0.00000  Uiso   1.00
H941   H     0.99898   0.04682   0.72557   0.00000  Uiso   1.00
H942   H     0.58573   0.03356   0.74925   0.00000  Uiso   1.00
H943   H     0.96613   0.31024   0.92254   0.00000  Uiso   1.00
H944   H     0.92274   0.26696   0.91697   0.00000  Uiso   1.00
H945   H     0.87427   0.00325   0.87446   0.00000  Uiso   1.00
H946   H     0.88279   0.00376   0.94712   0.00000  Uiso   1.00
H947   H     0.91503   0.04268   0.90278   0.00000  Uiso   1.00
H948   H     0.51699   0.03943   0.93306   0.00000  Uiso   1.00
H949   H     0.57223   0.06504   0.92854   0.00000  Uiso   1.00
H950   H     0.60521   0.31586   0.90513   0.00000  Uiso   1.00
H951   H     0.57805   0.32008   0.97204   0.00000  Uiso   1.00
H952   H     0.94544   0.07903   0.73142   0.00000  Uiso   1.00
H953   H     0.54997   0.29159   0.91762   0.00000  Uiso   1.00
H954   H     0.88411   0.24220   0.83427   0.00000  Uiso   1.00
H955   H     0.61455   0.09222   0.84483   0.00000  Uiso   1.00
H956   H     0.89175   0.08876   0.82129   0.00000  Uiso   1.00
H957   H     0.60982   0.24553   0.82918   0.00000  Uiso   1.00
H958   H     0.90489   0.00343   0.73463   0.00000  Uiso   1.00
H959   H     0.94160   0.00685   0.67444   0.00000  Uiso   1.00
H960   H     0.95722   0.30205   0.73074   0.00000  Uiso   1.00
H961   H     0.53601   0.30472   0.72146   0.00000  Uiso   1.00
H962   H     0.57395   0.25789   0.74182   0.00000  Uiso   1.00
H963   H     0.61973   0.32465   0.78774   0.00000  Uiso   1.00
H964   H     0.62117   0.32204   0.71417   0.00000  Uiso   1.00
N965   N     0.75000   0.16667   0.69121   0.00000  Uiso   1.00
N966   N     0.75000   0.16667   0.97545   0.00000  Uiso   1.00
O967   O     0.75000   0.09512   0.87895   0.00000  Uiso   1.00
O968   O     0.53878   0.29735   0.80579   0.00000  Uiso   1.00
O969   O     0.94854   0.29639   0.84277   0.00000  Uiso   1.00
O970   O     0.54833   0.03912   0.85497   0.00000  Uiso   1.00
O971   O     0.75000   0.23822   0.78772   0.00000  Uiso   1.00
O972   O     0.75000   0.23822   0.87895   0.00000  Uiso   1.00
O973   O     0.75000   0.09512   0.78772   0.00000  Uiso   1.00
O974   O     0.68392   0.16667   0.87896   0.00000  Uiso   1.00
O975   O     0.81607   0.16667   0.78770   0.00000  Uiso   1.00
O976   O     0.81607   0.16667   0.87896   0.00000  Uiso   1.00
O977   O     0.68392   0.16667   0.78770   0.00000  Uiso   1.00
O978   O     0.96534   0.03999   0.80120   0.00000  Uiso   1.00
Zn979  Zn    0.75000   0.16667   0.89426   0.00000  Uiso   1.00
Zn980  Zn    0.75000   0.16667   0.77241   0.00000  Uiso   1.00
C981   C     0.25005   0.40584   0.83339   0.00000  Uiso   1.00
C982   C     0.11573   0.50217   0.83652   0.00000  Uiso   1.00
C983   C     0.45557   0.45654   0.82664   0.00000  Uiso   1.00
C984   C     0.04512   0.54546   0.82867   0.00000  Uiso   1.00
C985   C     0.45134   0.54388   0.83337   0.00000  Uiso   1.00
C986   C     0.04808   0.45808   0.84039   0.00000  Uiso   1.00
C987   C     0.47668   0.50064   0.83172   0.00000  Uiso   1.00
C988   C     0.02336   0.50148   0.83390   0.00000  Uiso   1.00
C989   C     0.48185   0.41415   0.82357   0.00000  Uiso   1.00
C990   C     0.01932   0.58804   0.82083   0.00000  Uiso   1.00
C991   C     0.47310   0.58759   0.83407   0.00000  Uiso   1.00
C992   C     0.24995   0.59416   0.83328   0.00000  Uiso   1.00
C993   C     0.02597   0.41456   0.84136   0.00000  Uiso   1.00
C994   C     0.25001   0.35484   0.83341   0.00000  Uiso   1.00
C995   C     0.24998   0.64516   0.83326   0.00000  Uiso   1.00
C996   C     0.46425   0.37895   0.74365   0.00000  Uiso   1.00
C997   C     0.44048   0.33671   0.71952   0.00000  Uiso   1.00
C998   C     0.06030   0.62769   0.75315   0.00000  Uiso   1.00
C999   C     0.09904   0.66248   0.75087   0.00000  Uiso   1.00
C1000  C     0.43636   0.63404   0.89911   0.00000  Uiso   1.00
C1001  C     0.39991   0.34008   0.90621   0.00000  Uiso   1.00
C1002  C     0.05095   0.36960   0.91259   0.00000  Uiso   1.00
C1003  C     0.16331   0.50168   0.83423   0.00000  Uiso   1.00
C1004  C     0.07241   0.65456   0.92761   0.00000  Uiso   1.00
C1005  C     0.33669   0.49832   0.83243   0.00000  Uiso   1.00
C1006  C     0.40474   0.54266   0.83304   0.00000  Uiso   1.00
C1007  C     0.09453   0.45872   0.84192   0.00000  Uiso   1.00
C1008  C     0.40894   0.45578   0.82483   0.00000  Uiso   1.00
C1009  C     0.09182   0.54557   0.83137   0.00000  Uiso   1.00
C1010  C     0.38425   0.49876   0.83012   0.00000  Uiso   1.00
H1011  H     0.49898   0.38016   0.72557   0.00000  Uiso   1.00
H1012  H     0.08573   0.36689   0.74925   0.00000  Uiso   1.00
H1013  H     0.46613   0.64357   0.92254   0.00000  Uiso   1.00
H1014  H     0.42274   0.60029   0.91697   0.00000  Uiso   1.00
H1015  H     0.37427   0.33658   0.87446   0.00000  Uiso   1.00
H1016  H     0.38279   0.33709   0.94712   0.00000  Uiso   1.00
H1017  H     0.41503   0.37601   0.90278   0.00000  Uiso   1.00
H1018  H     0.01699   0.37276   0.93306   0.00000  Uiso   1.00
H1019  H     0.07223   0.39837   0.92854   0.00000  Uiso   1.00
H1020  H     0.10521   0.64920   0.90513   0.00000  Uiso   1.00
H1021  H     0.07805   0.65342   0.97204   0.00000  Uiso   1.00
H1022  H     0.44544   0.41236   0.73142   0.00000  Uiso   1.00
H1023  H     0.04997   0.62492   0.91762   0.00000  Uiso   1.00
H1024  H     0.38411   0.57553   0.83427   0.00000  Uiso   1.00
H1025  H     0.11455   0.42555   0.84483   0.00000  Uiso   1.00
H1026  H     0.39175   0.42209   0.82129   0.00000  Uiso   1.00
H1027  H     0.10982   0.57886   0.82918   0.00000  Uiso   1.00
H1028  H     0.40489   0.33676   0.73463   0.00000  Uiso   1.00
H1029  H     0.44160   0.34018   0.67444   0.00000  Uiso   1.00
H1030  H     0.45722   0.63538   0.73074   0.00000  Uiso   1.00
H1031  H     0.03601   0.63805   0.72146   0.00000  Uiso   1.00
H1032  H     0.07395   0.59123   0.74182   0.00000  Uiso   1.00
H1033  H     0.11973   0.65798   0.78774   0.00000  Uiso   1.00
H1034  H     0.12117   0.65538   0.71417   0.00000  Uiso   1.00
N1035  N     0.25000   0.50000   0.69121   0.00000  Uiso   1.00
N1036  N     0.25000   0.50000   0.97545   0.00000  Uiso   1.00
O1037  O     0.25000   0.42845   0.87895   0.00000  Uiso   1.00
O1038  O     0.03878   0.63069   0.80579   0.00000  Uiso   1.00
O1039  O     0.44854   0.62973   0.84277   0.00000  Uiso   1.00
O1040  O     0.04833   0.37245   0.85497   0.00000  Uiso   1.00
O1041  O     0.25000   0.57155   0.78772   0.00000  Uiso   1.00
O1042  O     0.25000   0.57155   0.87895   0.00000  Uiso   1.00
O1043  O     0.25000   0.42845   0.78772   0.00000  Uiso   1.00
O1044  O     0.18392   0.50000   0.87896   0.00000  Uiso   1.00
O1045  O     0.31607   0.50000   0.78770   0.00000  Uiso   1.00
O1046  O     0.31607   0.50000   0.87896   0.00000  Uiso   1.00
O1047  O     0.18392   0.50000   0.78770   0.00000  Uiso   1.00
O1048  O     0.46534   0.37332   0.80120   0.00000  Uiso   1.00
Zn1049 Zn    0.25000   0.50000   0.89426   0.00000  Uiso   1.00
Zn1050 Zn    0.25000   0.50000   0.77241   0.00000  Uiso   1.00
C1051  C     0.75005   0.40584   0.83339   0.00000  Uiso   1.00
C1052  C     0.61573   0.50217   0.83652   0.00000  Uiso   1.00
C1053  C     0.95557   0.45654   0.82664   0.00000  Uiso   1.00
C1054  C     0.54512   0.54546   0.82867   0.00000  Uiso   1.00
C1055  C     0.95134   0.54388   0.83337   0.00000  Uiso   1.00
C1056  C     0.54808   0.45808   0.84039   0.00000  Uiso   1.00
C1057  C     0.97668   0.50064   0.83172   0.00000  Uiso   1.00
C1058  C     0.52336   0.50148   0.83390   0.00000  Uiso   1.00
C1059  C     0.98185   0.41415   0.82357   0.00000  Uiso   1.00
C1060  C     0.51932   0.58804   0.82083   0.00000  Uiso   1.00
C1061  C     0.97310   0.58759   0.83407   0.00000  Uiso   1.00
C1062  C     0.74995   0.59416   0.83328   0.00000  Uiso   1.00
C1063  C     0.52597   0.41456   0.84136   0.00000  Uiso   1.00
C1064  C     0.75001   0.35484   0.83341   0.00000  Uiso   1.00
C1065  C     0.74998   0.64516   0.83326   0.00000  Uiso   1.00
C1066  C     0.96425   0.37895   0.74365   0.00000  Uiso   1.00
C1067  C     0.94048   0.33671   0.71952   0.00000  Uiso   1.00
C1068  C     0.56030   0.62769   0.75315   0.00000  Uiso   1.00
C1069  C     0.59904   0.66248   0.75087   0.00000  Uiso   1.00
C1070  C     0.93636   0.63404   0.89911   0.00000  Uiso   1.00
C1071  C     0.89991   0.34008   0.90621   0.00000  Uiso   1.00
C1072  C     0.55095   0.36960   0.91259   0.00000  Uiso   1.00
C1073  C     0.66331   0.50168   0.83423   0.00000  Uiso   1.00
C1074  C     0.57241   0.65456   0.92761   0.00000  Uiso   1.00
C1075  C     0.83669   0.49832   0.83243   0.00000  Uiso   1.00
C1076  C     0.90474   0.54266   0.83304   0.00000  Uiso   1.00
C1077  C     0.59453   0.45872   0.84192   0.00000  Uiso   1.00
C1078  C     0.90894   0.45578   0.82483   0.00000  Uiso   1.00
C1079  C     0.59182   0.54557   0.83137   0.00000  Uiso   1.00
C1080  C     0.88425   0.49876   0.83012   0.00000  Uiso   1.00
H1081  H     0.99898   0.38016   0.72557   0.00000  Uiso   1.00
H1082  H     0.58573   0.36689   0.74925   0.00000  Uiso   1.00
H1083  H     0.96613   0.64357   0.92254   0.00000  Uiso   1.00
H1084  H     0.92274   0.60029   0.91697   0.00000  Uiso   1.00
H1085  H     0.87427   0.33658   0.87446   0.00000  Uiso   1.00
H1086  H     0.88279   0.33709   0.94712   0.00000  Uiso   1.00
H1087  H     0.91503   0.37601   0.90278   0.00000  Uiso   1.00
H1088  H     0.51699   0.37276   0.93306   0.00000  Uiso   1.00
H1089  H     0.57223   0.39837   0.92854   0.00000  Uiso   1.00
H1090  H     0.60521   0.64920   0.90513   0.00000  Uiso   1.00
H1091  H     0.57805   0.65342   0.97204   0.00000  Uiso   1.00
H1092  H     0.94544   0.41236   0.73142   0.00000  Uiso   1.00
H1093  H     0.54997   0.62492   0.91762   0.00000  Uiso   1.00
H1094  H     0.88411   0.57553   0.83427   0.00000  Uiso   1.00
H1095  H     0.61455   0.42555   0.84483   0.00000  Uiso   1.00
H1096  H     0.89175   0.42209   0.82129   0.00000  Uiso   1.00
H1097  H     0.60982   0.57886   0.82918   0.00000  Uiso   1.00
H1098  H     0.90489   0.33676   0.73463   0.00000  Uiso   1.00
H1099  H     0.94160   0.34018   0.67444   0.00000  Uiso   1.00
H1100  H     0.95722   0.63538   0.73074   0.00000  Uiso   1.00
H1101  H     0.53601   0.63805   0.72146   0.00000  Uiso   1.00
H1102  H     0.57395   0.59123   0.74182   0.00000  Uiso   1.00
H1103  H     0.61973   0.65798   0.78774   0.00000  Uiso   1.00
H1104  H     0.62117   0.65538   0.71417   0.00000  Uiso   1.00
N1105  N     0.75000   0.50000   0.69121   0.00000  Uiso   1.00
N1106  N     0.75000   0.50000   0.97545   0.00000  Uiso   1.00
O1107  O     0.75000   0.42845   0.87895   0.00000  Uiso   1.00
O1108  O     0.53878   0.63069   0.80579   0.00000  Uiso   1.00
O1109  O     0.94854   0.62973   0.84277   0.00000  Uiso   1.00
O1110  O     0.54833   0.37245   0.85497   0.00000  Uiso   1.00
O1111  O     0.75000   0.57155   0.78772   0.00000  Uiso   1.00
O1112  O     0.75000   0.57155   0.87895   0.00000  Uiso   1.00
O1113  O     0.75000   0.42845   0.78772   0.00000  Uiso   1.00
O1114  O     0.68392   0.50000   0.87896   0.00000  Uiso   1.00
O1115  O     0.81607   0.50000   0.78770   0.00000  Uiso   1.00
O1116  O     0.81607   0.50000   0.87896   0.00000  Uiso   1.00
O1117  O     0.68392   0.50000   0.78770   0.00000  Uiso   1.00
O1118  O     0.96534   0.37332   0.80120   0.00000  Uiso   1.00
Zn1119 Zn    0.75000   0.50000   0.89426   0.00000  Uiso   1.00
Zn1120 Zn    0.75000   0.50000   0.77241   0.00000  Uiso   1.00
C1121  C     0.25005   0.73917   0.83339   0.00000  Uiso   1.00
C1122  C     0.11573   0.83551   0.83652   0.00000  Uiso   1.00
C1123  C     0.45557   0.78988   0.82664   0.00000  Uiso   1.00
C1124  C     0.04512   0.87880   0.82867   0.00000  Uiso   1.00
C1125  C     0.45134   0.87721   0.83337   0.00000  Uiso   1.00
C1126  C     0.04808   0.79141   0.84039   0.00000  Uiso   1.00
C1127  C     0.47668   0.83397   0.83172   0.00000  Uiso   1.00
C1128  C     0.02336   0.83481   0.83390   0.00000  Uiso   1.00
C1129  C     0.48185   0.74749   0.82357   0.00000  Uiso   1.00
C1130  C     0.01932   0.92137   0.82083   0.00000  Uiso   1.00
C1131  C     0.47310   0.92093   0.83407   0.00000  Uiso   1.00
C1132  C     0.24995   0.92750   0.83328   0.00000  Uiso   1.00
C1133  C     0.02597   0.74789   0.84136   0.00000  Uiso   1.00
C1134  C     0.25001   0.68818   0.83341   0.00000  Uiso   1.00
C1135  C     0.24998   0.97849   0.83326   0.00000  Uiso   1.00
C1136  C     0.46425   0.71228   0.74365   0.00000  Uiso   1.00
C1137  C     0.44048   0.67004   0.71952   0.00000  Uiso   1.00
C1138  C     0.06030   0.96102   0.75315   0.00000  Uiso   1.00
C1139  C     0.09904   0.99581   0.75087   0.00000  Uiso   1.00
C1140  C     0.43636   0.96737   0.89911   0.00000  Uiso   1.00
C1141  C     0.39991   0.67341   0.90621   0.00000  Uiso   1.00
C1142  C     0.05095   0.70294   0.91259   0.00000  Uiso   1.00
C1143  C     0.16331   0.83502   0.83423   0.00000  Uiso   1.00
C1144  C     0.07241   0.98789   0.92761   0.00000  Uiso   1.00
C1145  C     0.33669   0.83165   0.83243   0.00000  Uiso   1.00
C1146  C     0.40474   0.87599   0.83304   0.00000  Uiso   1.00
C1147  C     0.09453   0.79206   0.84192   0.00000  Uiso   1.00
C1148  C     0.40894   0.78911   0.82483   0.00000  Uiso   1.00
C1149  C     0.09182   0.87890   0.83137   0.00000  Uiso   1.00
C1150  C     0.38425   0.83210   0.83012   0.00000  Uiso   1.00
H1151  H     0.49898   0.71349   0.72557   0.00000  Uiso   1.00
H1152  H     0.08573   0.70023   0.74925   0.00000  Uiso   1.00
H1153  H     0.46613   0.97690   0.92254   0.00000  Uiso   1.00
H1154  H     0.42274   0.93363   0.91697   0.00000  Uiso   1.00
H1155  H     0.37427   0.66992   0.87446   0.00000  Uiso   1.00
H1156  H     0.38279   0.67043   0.94712   0.00000  Uiso   1.00
H1157  H     0.41503   0.70935   0.90278   0.00000  Uiso   1.00
H1158  H     0.01699   0.70610   0.93306   0.00000  Uiso   1.00
H1159  H     0.07223   0.73170   0.92854   0.00000  Uiso   1.00
H1160  H     0.10521   0.98253   0.90513   0.00000  Uiso   1.00
H1161  H     0.07805   0.98675   0.97204   0.00000  Uiso   1.00
H1162  H     0.44544   0.74570   0.73142   0.00000  Uiso   1.00
H1163  H     0.04997   0.95825   0.91762   0.00000  Uiso   1.00
H1164  H     0.38411   0.90887   0.83427   0.00000  Uiso   1.00
H1165  H     0.11455   0.75889   0.84483   0.00000  Uiso   1.00
H1166  H     0.39175   0.75543   0.82129   0.00000  Uiso   1.00
H1167  H     0.10982   0.91219   0.82918   0.00000  Uiso   1.00
H1168  H     0.40489   0.67009   0.73463   0.00000  Uiso   1.00
H1169  H     0.44160   0.67351   0.67444   0.00000  Uiso   1.00
H1170  H     0.45722   0.96872   0.73074   0.00000  Uiso   1.00
H1171  H     0.03601   0.97139   0.72146   0.00000  Uiso   1.00
H1172  H     0.07395   0.92456   0.74182   0.00000  Uiso   1.00
H1173  H     0.11973   0.99131   0.78774   0.00000  Uiso   1.00
H1174  H     0.12117   0.98871   0.71417   0.00000  Uiso   1.00
N1175  N     0.25000   0.83333   0.69121   0.00000  Uiso   1.00
N1176  N     0.25000   0.83333   0.97545   0.00000  Uiso   1.00
O1177  O     0.25000   0.76178   0.87895   0.00000  Uiso   1.00
O1178  O     0.03878   0.96402   0.80579   0.00000  Uiso   1.00
O1179  O     0.44854   0.96306   0.84277   0.00000  Uiso   1.00
O1180  O     0.04833   0.70579   0.85497   0.00000  Uiso   1.00
O1181  O     0.25000   0.90488   0.78772   0.00000  Uiso   1.00
O1182  O     0.25000   0.90488   0.87895   0.00000  Uiso   1.00
O1183  O     0.25000   0.76178   0.78772   0.00000  Uiso   1.00
O1184  O     0.18392   0.83333   0.87896   0.00000  Uiso   1.00
O1185  O     0.31607   0.83333   0.78770   0.00000  Uiso   1.00
O1186  O     0.31607   0.83333   0.87896   0.00000  Uiso   1.00
O1187  O     0.18392   0.83333   0.78770   0.00000  Uiso   1.00
O1188  O     0.46534   0.70666   0.80120   0.00000  Uiso   1.00
Zn1189 Zn    0.25000   0.83333   0.89426   0.00000  Uiso   1.00
Zn1190 Zn    0.25000   0.83333   0.77241   0.00000  Uiso   1.00
C1191  C     0.75005   0.73917   0.83339   0.00000  Uiso   1.00
C1192  C     0.61573   0.83551   0.83652   0.00000  Uiso   1.00
C1193  C     0.95557   0.78988   0.82664   0.00000  Uiso   1.00
C1194  C     0.54512   0.87880   0.82867   0.00000  Uiso   1.00
C1195  C     0.95134   0.87721   0.83337   0.00000  Uiso   1.00
C1196  C     0.54808   0.79141   0.84039   0.00000  Uiso   1.00
C1197  C     0.97668   0.83397   0.83172   0.00000  Uiso   1.00
C1198  C     0.52336   0.83481   0.83390   0.00000  Uiso   1.00
C1199  C     0.98185   0.74749   0.82357   0.00000  Uiso   1.00
C1200  C     0.51932   0.92137   0.82083   0.00000  Uiso   1.00
C1201  C     0.97310   0.92093   0.83407   0.00000  Uiso   1.00
C1202  C     0.74995   0.92750   0.83328   0.00000  Uiso   1.00
C1203  C     0.52597   0.74789   0.84136   0.00000  Uiso   1.00
C1204  C     0.75001   0.68818   0.83341   0.00000  Uiso   1.00
C1205  C     0.74998   0.97849   0.83326   0.00000  Uiso   1.00
C1206  C     0.96425   0.71228   0.74365   0.00000  Uiso   1.00
C1207  C     0.94048   0.67004   0.71952   0.00000  Uiso   1.00
C1208  C     0.56030   0.96102   0.75315   0.00000  Uiso   1.00
C1209  C     0.59904   0.99581   0.75087   0.00000  Uiso   1.00
C1210  C     0.93636   0.96737   0.89911   0.00000  Uiso   1.00
C1211  C     0.89991   0.67341   0.90621   0.00000  Uiso   1.00
C1212  C     0.55095   0.70294   0.91259   0.00000  Uiso   1.00
C1213  C     0.66331   0.83502   0.83423   0.00000  Uiso   1.00
C1214  C     0.57241   0.98789   0.92761   0.00000  Uiso   1.00
C1215  C     0.83669   0.83165   0.83243   0.00000  Uiso   1.00
C1216  C     0.90474   0.87599   0.83304   0.00000  Uiso   1.00
C1217  C     0.59453   0.79206   0.84192   0.00000  Uiso   1.00
C1218  C     0.90894   0.78911   0.82483   0.00000  Uiso   1.00
C1219  C     0.59182   0.87890   0.83137   0.00000  Uiso   1.00
C1220  C     0.88425   0.83210   0.83012   0.00000  Uiso   1.00
H1221  H     0.99898   0.71349   0.72557   0.00000  Uiso   1.00
H1222  H     0.58573   0.70023   0.74925   0.00000  Uiso   1.00
H1223  H     0.96613   0.97690   0.92254   0.00000  Uiso   1.00
H1224  H     0.92274   0.93363   0.91697   0.00000  Uiso   1.00
H1225  H     0.87427   0.66992   0.87446   0.00000  Uiso   1.00
H1226  H     0.88279   0.67043   0.94712   0.00000  Uiso   1.00
H1227  H     0.91503   0.70935   0.90278   0.00000  Uiso   1.00
H1228  H     0.51699   0.70610   0.93306   0.00000  Uiso   1.00
H1229  H     0.57223   0.73170   0.92854   0.00000  Uiso   1.00
H1230  H     0.60521   0.98253   0.90513   0.00000  Uiso   1.00
H1231  H     0.57805   0.98675   0.97204   0.00000  Uiso   1.00
H1232  H     0.94544   0.74570   0.73142   0.00000  Uiso   1.00
H1233  H     0.54997   0.95825   0.91762   0.00000  Uiso   1.00
H1234  H     0.88411   0.90887   0.83427   0.00000  Uiso   1.00
H1235  H     0.61455   0.75889   0.84483   0.00000  Uiso   1.00
H1236  H     0.89175   0.75543   0.82129   0.00000  Uiso   1.00
H1237  H     0.60982   0.91219   0.82918   0.00000  Uiso   1.00
H1238  H     0.90489   0.67009   0.73463   0.00000  Uiso   1.00
H1239  H     0.94160   0.67351   0.67444   0.00000  Uiso   1.00
H1240  H     0.95722   0.96872   0.73074   0.00000  Uiso   1.00
H1241  H     0.53601   0.97139   0.72146   0.00000  Uiso   1.00
H1242  H     0.57395   0.92456   0.74182   0.00000  Uiso   1.00
H1243  H     0.61973   0.99131   0.78774   0.00000  Uiso   1.00
H1244  H     0.62117   0.98871   0.71417   0.00000  Uiso   1.00
N1245  N     0.75000   0.83333   0.69121   0.00000  Uiso   1.00
N1246  N     0.75000   0.83333   0.97545   0.00000  Uiso   1.00
O1247  O     0.75000   0.76178   0.87895   0.00000  Uiso   1.00
O1248  O     0.53878   0.96402   0.80579   0.00000  Uiso   1.00
O1249  O     0.94854   0.96306   0.84277   0.00000  Uiso   1.00
O1250  O     0.54833   0.70579   0.85497   0.00000  Uiso   1.00
O1251  O     0.75000   0.90488   0.78772   0.00000  Uiso   1.00
O1252  O     0.75000   0.90488   0.87895   0.00000  Uiso   1.00
O1253  O     0.75000   0.76178   0.78772   0.00000  Uiso   1.00
O1254  O     0.68392   0.83333   0.87896   0.00000  Uiso   1.00
O1255  O     0.81607   0.83333   0.78770   0.00000  Uiso   1.00
O1256  O     0.81607   0.83333   0.87896   0.00000  Uiso   1.00
O1257  O     0.68392   0.83333   0.78770   0.00000  Uiso   1.00
O1258  O     0.96534   0.70666   0.80120   0.00000  Uiso   1.00
Zn1259 Zn    0.75000   0.83333   0.89426   0.00000  Uiso   1.00
Zn1260 Zn    0.75000   0.83333   0.77241   0.00000  Uiso   1.00
loop_
_geom_bond_atom_site_label_1
_geom_bond_atom_site_label_2
_geom_bond_distance
_geom_bond_site_symmetry_2
_ccdc_geom_bond_type
C1     O57     1.278   .     A
C1     O63     1.277   .     A
C1     C14     1.416   .     S
C2     C27     1.382   .     A
C2     C29     1.389   .     A
C2     C23     1.416   .     S
C3     C28     1.391   .     A
C3     C7      1.400   .     A
C3     C9      1.395   .     A
C4     C29     1.394   .     A
C4     C8      1.403   .     A
C4     C10     1.406   .     A
C5     C11     1.393   .     A
C5     C26     1.389   .     A
C5     C7      1.399   .     A
C6     C13     1.393   .     A
C6     C27     1.385   .     A
C6     C8      1.404   .     A
C7     C78     1.393   .     S
C8     C77     1.393   1_455 S
C9     O68     1.371   .     S
C9     C83     1.397   .     S
C10    O58     1.377   .     S
C10    C81     1.404   1_455 S
C11    O59     1.374   .     S
C11    C80     1.404   .     S
C12    O62     1.277   .     A
C12    C15     1.416   .     S
C12    O61     1.278   .     A
C13    O60     1.373   .     S
C13    C79     1.397   1_455 S
C14    C295    1.195   1_545 S
C15    C154    1.195   .     S
C16    O68     1.413   .     S
C16    H42     1.114   .     S
C16    C17     1.518   .     S
C16    H31     1.113   .     S
C17    H48     1.111   .     S
C17    H49     1.103   .     S
C17    H330    1.108   1_545 S
C18    H52     1.112   .     S
C18    H51     1.107   .     S
C18    C19     1.526   .     S
C18    O58     1.418   .     S
C19    H53     1.110   .     S
C19    H54     1.109   .     S
C19    H172    1.110   .     S
C20    H34     1.114   .     S
C20    O59     1.414   .     S
C20    H33     1.109   .     S
C20    C161    1.524   .     S
C21    H35     1.111   .     S
C21    H36     1.110   .     S
C21    H37     1.109   .     S
C21    C300    1.524   1_545 S
C22    H39     1.113   .     S
C22    O60     1.412   .     S
C22    H38     1.114   .     S
C22    C304    1.519   1_545 S
C23    O67     1.273   .     A
C23    O64     1.269   .     A
C24    H41     1.102   .     S
C24    H43     1.108   .     S
C24    H40     1.111   .     S
C24    C162    1.519   .     S
C25    O65     1.269   .     A
C25    C30     1.416   .     S
C25    O66     1.273   .     A
C26    C30     1.382   .     A
C26    H44     1.085   .     S
C27    H45     1.085   .     S
C28    C30     1.387   .     A
C28    H46     1.085   .     S
C29    H47     1.083   .     S
H32    C299    1.110   1_545 S
H50    C157    1.108   .     S
N55    Zn70    1.980   .     S
N55    N896    1.197   1_554 S
N56    Zn69    1.980   .     S
N56    N475    1.197   .     S
O57    Zn69    2.023   .     S
O61    Zn70    2.023   .     S
O62    Zn69    2.020   .     S
O63    Zn70    2.020   .     S
O64    Zn69    2.014   .     S
O65    Zn70    2.014   .     S
O66    Zn69    1.991   .     S
O67    Zn70    1.991   .     S
C71    O127    1.278   .     A
C71    O133    1.277   .     A
C71    C84     1.416   .     S
C72    C97     1.382   .     A
C72    C99     1.389   .     A
C72    C93     1.416   .     S
C73    C98     1.391   .     A
C73    C77     1.400   .     A
C73    C79     1.395   .     A
C74    C99     1.394   .     A
C74    C78     1.403   .     A
C74    C80     1.406   .     A
C75    C81     1.393   .     A
C75    C96     1.389   .     A
C75    C77     1.399   .     A
C76    C83     1.393   .     A
C76    C97     1.385   .     A
C76    C78     1.404   .     A
C77    C8      1.393   1_655 S
C79    O138    1.371   .     S
C79    C13     1.397   1_655 S
C80    O128    1.377   .     S
C81    O129    1.374   .     S
C81    C10     1.404   1_655 S
C82    O132    1.277   .     A
C82    C85     1.416   .     S
C82    O131    1.278   .     A
C83    O130    1.373   .     S
C84    C365    1.195   1_545 S
C85    C224    1.195   .     S
C86    O138    1.413   .     S
C86    H112    1.114   .     S
C86    C87     1.518   .     S
C86    H101    1.113   .     S
C87    H118    1.111   .     S
C87    H119    1.103   .     S
C87    H400    1.108   1_545 S
C88    H122    1.112   .     S
C88    H121    1.107   .     S
C88    C89     1.526   .     S
C88    O128    1.418   .     S
C89    H123    1.110   .     S
C89    H124    1.109   .     S
C89    H242    1.110   .     S
C90    H104    1.114   .     S
C90    O129    1.414   .     S
C90    H103    1.109   .     S
C90    C231    1.524   .     S
C91    H105    1.111   .     S
C91    H106    1.110   .     S
C91    H107    1.109   .     S
C91    C370    1.524   1_545 S
C92    H109    1.113   .     S
C92    O130    1.412   .     S
C92    H108    1.114   .     S
C92    C374    1.519   1_545 S
C93    O137    1.273   .     A
C93    O134    1.269   .     A
C94    H111    1.102   .     S
C94    H113    1.108   .     S
C94    H110    1.111   .     S
C94    C232    1.519   .     S
C95    O135    1.269   .     A
C95    C100    1.416   .     S
C95    O136    1.273   .     A
C96    C100    1.382   .     A
C96    H114    1.085   .     S
C97    H115    1.085   .     S
C98    C100    1.387   .     A
C98    H116    1.085   .     S
C99    H117    1.083   .     S
H102   C369    1.110   1_545 S
H120   C227    1.108   .     S
N125   Zn140   1.980   .     S
N125   N966    1.197   1_554 S
N126   Zn139   1.980   .     S
N126   N545    1.197   .     S
O127   Zn139   2.023   .     S
O131   Zn140   2.023   .     S
O132   Zn139   2.020   .     S
O133   Zn140   2.020   .     S
O134   Zn139   2.014   .     S
O135   Zn140   2.014   .     S
O136   Zn139   1.991   .     S
O137   Zn140   1.991   .     S
C141   O197    1.278   .     A
C141   O203    1.277   .     A
C141   C154    1.416   .     S
C142   C167    1.382   .     A
C142   C169    1.389   .     A
C142   C163    1.416   .     S
C143   C168    1.391   .     A
C143   C147    1.400   .     A
C143   C149    1.395   .     A
C144   C169    1.394   .     A
C144   C148    1.403   .     A
C144   C150    1.406   .     A
C145   C151    1.393   .     A
C145   C166    1.389   .     A
C145   C147    1.399   .     A
C146   C153    1.393   .     A
C146   C167    1.385   .     A
C146   C148    1.404   .     A
C147   C218    1.393   .     S
C148   C217    1.393   1_455 S
C149   O208    1.371   .     S
C149   C223    1.397   .     S
C150   O198    1.377   .     S
C150   C221    1.404   1_455 S
C151   O199    1.374   .     S
C151   C220    1.404   .     S
C152   O202    1.277   .     A
C152   C155    1.416   .     S
C152   O201    1.278   .     A
C153   O200    1.373   .     S
C153   C219    1.397   1_455 S
C155   C294    1.195   .     S
C156   O208    1.413   .     S
C156   H182    1.114   .     S
C156   C157    1.518   .     S
C156   H171    1.113   .     S
C157   H188    1.111   .     S
C157   H189    1.103   .     S
C158   H192    1.112   .     S
C158   H191    1.107   .     S
C158   C159    1.526   .     S
C158   O198    1.418   .     S
C159   H193    1.110   .     S
C159   H194    1.109   .     S
C159   H312    1.110   .     S
C160   H174    1.114   .     S
C160   O199    1.414   .     S
C160   H173    1.109   .     S
C160   C301    1.524   .     S
C161   H175    1.111   .     S
C161   H176    1.110   .     S
C161   H177    1.109   .     S
C162   H179    1.113   .     S
C162   O200    1.412   .     S
C162   H178    1.114   .     S
C163   O207    1.273   .     A
C163   O204    1.269   .     A
C164   H181    1.102   .     S
C164   H183    1.108   .     S
C164   H180    1.111   .     S
C164   C302    1.519   .     S
C165   O205    1.269   .     A
C165   C170    1.416   .     S
C165   O206    1.273   .     A
C166   C170    1.382   .     A
C166   H184    1.085   .     S
C167   H185    1.085   .     S
C168   C170    1.387   .     A
C168   H186    1.085   .     S
C169   H187    1.083   .     S
H190   C297    1.108   .     S
N195   Zn210   1.980   .     S
N195   N1036   1.197   1_554 S
N196   Zn209   1.980   .     S
N196   N615    1.197   .     S
O197   Zn209   2.023   .     S
O201   Zn210   2.023   .     S
O202   Zn209   2.020   .     S
O203   Zn210   2.020   .     S
O204   Zn209   2.014   .     S
O205   Zn210   2.014   .     S
O206   Zn209   1.991   .     S
O207   Zn210   1.991   .     S
C211   O267    1.278   .     A
C211   O273    1.277   .     A
C211   C224    1.416   .     S
C212   C237    1.382   .     A
C212   C239    1.389   .     A
C212   C233    1.416   .     S
C213   C238    1.391   .     A
C213   C217    1.400   .     A
C213   C219    1.395   .     A
C214   C239    1.394   .     A
C214   C218    1.403   .     A
C214   C220    1.406   .     A
C215   C221    1.393   .     A
C215   C236    1.389   .     A
C215   C217    1.399   .     A
C216   C223    1.393   .     A
C216   C237    1.385   .     A
C216   C218    1.404   .     A
C217   C148    1.393   1_655 S
C219   O278    1.371   .     S
C219   C153    1.397   1_655 S
C220   O268    1.377   .     S
C221   O269    1.374   .     S
C221   C150    1.404   1_655 S
C222   O272    1.277   .     A
C222   C225    1.416   .     S
C222   O271    1.278   .     A
C223   O270    1.373   .     S
C225   C364    1.195   .     S
C226   O278    1.413   .     S
C226   H252    1.114   .     S
C226   C227    1.518   .     S
C226   H241    1.113   .     S
C227   H258    1.111   .     S
C227   H259    1.103   .     S
C228   H262    1.112   .     S
C228   H261    1.107   .     S
C228   C229    1.526   .     S
C228   O268    1.418   .     S
C229   H263    1.110   .     S
C229   H264    1.109   .     S
C229   H382    1.110   .     S
C230   H244    1.114   .     S
C230   O269    1.414   .     S
C230   H243    1.109   .     S
C230   C371    1.524   .     S
C231   H245    1.111   .     S
C231   H246    1.110   .     S
C231   H247    1.109   .     S
C232   H249    1.113   .     S
C232   O270    1.412   .     S
C232   H248    1.114   .     S
C233   O277    1.273   .     A
C233   O274    1.269   .     A
C234   H251    1.102   .     S
C234   H253    1.108   .     S
C234   H250    1.111   .     S
C234   C372    1.519   .     S
C235   O275    1.269   .     A
C235   C240    1.416   .     S
C235   O276    1.273   .     A
C236   C240    1.382   .     A
C236   H254    1.085   .     S
C237   H255    1.085   .     S
C238   C240    1.387   .     A
C238   H256    1.085   .     S
C239   H257    1.083   .     S
H260   C367    1.108   .     S
N265   Zn280   1.980   .     S
N265   N1106   1.197   1_554 S
N266   Zn279   1.980   .     S
N266   N685    1.197   .     S
O267   Zn279   2.023   .     S
O271   Zn280   2.023   .     S
O272   Zn279   2.020   .     S
O273   Zn280   2.020   .     S
O274   Zn279   2.014   .     S
O275   Zn280   2.014   .     S
O276   Zn279   1.991   .     S
O277   Zn280   1.991   .     S
C281   O337    1.278   .     A
C281   O343    1.277   .     A
C281   C294    1.416   .     S
C282   C307    1.382   .     A
C282   C309    1.389   .     A
C282   C303    1.416   .     S
C283   C308    1.391   .     A
C283   C287    1.400   .     A
C283   C289    1.395   .     A
C284   C309    1.394   .     A
C284   C288    1.403   .     A
C284   C290    1.406   .     A
C285   C291    1.393   .     A
C285   C306    1.389   .     A
C285   C287    1.399   .     A
C286   C293    1.393   .     A
C286   C307    1.385   .     A
C286   C288    1.404   .     A
C287   C358    1.393   .     S
C288   C357    1.393   1_455 S
C289   O348    1.371   .     S
C289   C363    1.397   .     S
C290   O338    1.377   .     S
C290   C361    1.404   1_455 S
C291   O339    1.374   .     S
C291   C360    1.404   .     S
C292   O342    1.277   .     A
C292   C295    1.416   .     S
C292   O341    1.278   .     A
C293   O340    1.373   .     S
C293   C359    1.397   1_455 S
C295   C14     1.195   1_565 S
C296   O348    1.413   .     S
C296   H322    1.114   .     S
C296   C297    1.518   .     S
C296   H311    1.113   .     S
C297   H328    1.111   .     S
C297   H329    1.103   .     S
C298   H332    1.112   .     S
C298   H331    1.107   .     S
C298   C299    1.526   .     S
C298   O338    1.418   .     S
C299   H333    1.110   .     S
C299   H334    1.109   .     S
C299   H32     1.110   1_565 S
C300   H314    1.114   .     S
C300   O339    1.414   .     S
C300   H313    1.109   .     S
C300   C21     1.524   1_565 S
C301   H315    1.111   .     S
C301   H316    1.110   .     S
C301   H317    1.109   .     S
C302   H319    1.113   .     S
C302   O340    1.412   .     S
C302   H318    1.114   .     S
C303   O347    1.273   .     A
C303   O344    1.269   .     A
C304   H321    1.102   .     S
C304   H323    1.108   .     S
C304   H320    1.111   .     S
C304   C22     1.519   1_565 S
C305   O345    1.269   .     A
C305   C310    1.416   .     S
C305   O346    1.273   .     A
C306   C310    1.382   .     A
C306   H324    1.085   .     S
C307   H325    1.085   .     S
C308   C310    1.387   .     A
C308   H326    1.085   .     S
C309   H327    1.083   .     S
H330   C17     1.108   1_565 S
N335   Zn350   1.980   .     S
N335   N1176   1.197   1_554 S
N336   Zn349   1.980   .     S
N336   N755    1.197   .     S
O337   Zn349   2.023   .     S
O341   Zn350   2.023   .     S
O342   Zn349   2.020   .     S
O343   Zn350   2.020   .     S
O344   Zn349   2.014   .     S
O345   Zn350   2.014   .     S
O346   Zn349   1.991   .     S
O347   Zn350   1.991   .     S
C351   O407    1.278   .     A
C351   O413    1.277   .     A
C351   C364    1.416   .     S
C352   C377    1.382   .     A
C352   C379    1.389   .     A
C352   C373    1.416   .     S
C353   C378    1.391   .     A
C353   C357    1.400   .     A
C353   C359    1.395   .     A
C354   C379    1.394   .     A
C354   C358    1.403   .     A
C354   C360    1.406   .     A
C355   C361    1.393   .     A
C355   C376    1.389   .     A
C355   C357    1.399   .     A
C356   C363    1.393   .     A
C356   C377    1.385   .     A
C356   C358    1.404   .     A
C357   C288    1.393   1_655 S
C359   O418    1.371   .     S
C359   C293    1.397   1_655 S
C360   O408    1.377   .     S
C361   O409    1.374   .     S
C361   C290    1.404   1_655 S
C362   O412    1.277   .     A
C362   C365    1.416   .     S
C362   O411    1.278   .     A
C363   O410    1.373   .     S
C365   C84     1.195   1_565 S
C366   O418    1.413   .     S
C366   H392    1.114   .     S
C366   C367    1.518   .     S
C366   H381    1.113   .     S
C367   H398    1.111   .     S
C367   H399    1.103   .     S
C368   H402    1.112   .     S
C368   H401    1.107   .     S
C368   C369    1.526   .     S
C368   O408    1.418   .     S
C369   H403    1.110   .     S
C369   H404    1.109   .     S
C369   H102    1.110   1_565 S
C370   H384    1.114   .     S
C370   O409    1.414   .     S
C370   H383    1.109   .     S
C370   C91     1.524   1_565 S
C371   H385    1.111   .     S
C371   H386    1.110   .     S
C371   H387    1.109   .     S
C372   H389    1.113   .     S
C372   O410    1.412   .     S
C372   H388    1.114   .     S
C373   O417    1.273   .     A
C373   O414    1.269   .     A
C374   H391    1.102   .     S
C374   H393    1.108   .     S
C374   H390    1.111   .     S
C374   C92     1.519   1_565 S
C375   O415    1.269   .     A
C375   C380    1.416   .     S
C375   O416    1.273   .     A
C376   C380    1.382   .     A
C376   H394    1.085   .     S
C377   H395    1.085   .     S
C378   C380    1.387   .     A
C378   H396    1.085   .     S
C379   H397    1.083   .     S
H400   C87     1.108   1_565 S
N405   Zn420   1.980   .     S
N405   N1246   1.197   1_554 S
N406   Zn419   1.980   .     S
N406   N825    1.197   .     S
O407   Zn419   2.023   .     S
O411   Zn420   2.023   .     S
O412   Zn419   2.020   .     S
O413   Zn420   2.020   .     S
O414   Zn419   2.014   .     S
O415   Zn420   2.014   .     S
O416   Zn419   1.991   .     S
O417   Zn420   1.991   .     S
C421   O477    1.278   .     A
C421   O483    1.277   .     A
C421   C434    1.416   .     S
C422   C447    1.382   .     A
C422   C449    1.389   .     A
C422   C443    1.416   .     S
C423   C448    1.391   .     A
C423   C427    1.400   .     A
C423   C429    1.395   .     A
C424   C449    1.394   .     A
C424   C428    1.403   .     A
C424   C430    1.406   .     A
C425   C431    1.393   .     A
C425   C446    1.389   .     A
C425   C427    1.399   .     A
C426   C433    1.393   .     A
C426   C447    1.385   .     A
C426   C428    1.404   .     A
C427   C498    1.393   .     S
C428   C497    1.393   1_455 S
C429   O488    1.371   .     S
C429   C503    1.397   .     S
C430   O478    1.377   .     S
C430   C501    1.404   1_455 S
C431   O479    1.374   .     S
C431   C500    1.404   .     S
C432   O482    1.277   .     A
C432   C435    1.416   .     S
C432   O481    1.278   .     A
C433   O480    1.373   .     S
C433   C499    1.397   1_455 S
C434   C715    1.195   1_545 S
C435   C574    1.195   .     S
C436   O488    1.413   .     S
C436   H462    1.114   .     S
C436   C437    1.518   .     S
C436   H451    1.113   .     S
C437   H468    1.111   .     S
C437   H469    1.103   .     S
C437   H750    1.108   1_545 S
C438   H472    1.112   .     S
C438   H471    1.107   .     S
C438   C439    1.526   .     S
C438   O478    1.418   .     S
C439   H473    1.110   .     S
C439   H474    1.109   .     S
C439   H592    1.110   .     S
C440   H454    1.114   .     S
C440   O479    1.414   .     S
C440   H453    1.109   .     S
C440   C581    1.524   .     S
C441   H455    1.111   .     S
C441   H456    1.110   .     S
C441   H457    1.109   .     S
C441   C720    1.524   1_545 S
C442   H459    1.113   .     S
C442   O480    1.412   .     S
C442   H458    1.114   .     S
C442   C724    1.519   1_545 S
C443   O487    1.273   .     A
C443   O484    1.269   .     A
C444   H461    1.102   .     S
C444   H463    1.108   .     S
C444   H460    1.111   .     S
C444   C582    1.519   .     S
C445   O485    1.269   .     A
C445   C450    1.416   .     S
C445   O486    1.273   .     A
C446   C450    1.382   .     A
C446   H464    1.085   .     S
C447   H465    1.085   .     S
C448   C450    1.387   .     A
C448   H466    1.085   .     S
C449   H467    1.083   .     S
H452   C719    1.110   1_545 S
H470   C577    1.108   .     S
N475   Zn490   1.980   .     S
N476   Zn489   1.980   .     S
N476   N895    1.197   .     S
O477   Zn489   2.023   .     S
O481   Zn490   2.023   .     S
O482   Zn489   2.020   .     S
O483   Zn490   2.020   .     S
O484   Zn489   2.014   .     S
O485   Zn490   2.014   .     S
O486   Zn489   1.991   .     S
O487   Zn490   1.991   .     S
C491   O547    1.278   .     A
C491   O553    1.277   .     A
C491   C504    1.416   .     S
C492   C517    1.382   .     A
C492   C519    1.389   .     A
C492   C513    1.416   .     S
C493   C518    1.391   .     A
C493   C497    1.400   .     A
C493   C499    1.395   .     A
C494   C519    1.394   .     A
C494   C498    1.403   .     A
C494   C500    1.406   .     A
C495   C501    1.393   .     A
C495   C516    1.389   .     A
C495   C497    1.399   .     A
C496   C503    1.393   .     A
C496   C517    1.385   .     A
C496   C498    1.404   .     A
C497   C428    1.393   1_655 S
C499   O558    1.371   .     S
C499   C433    1.397   1_655 S
C500   O548    1.377   .     S
C501   O549    1.374   .     S
C501   C430    1.404   1_655 S
C502   O552    1.277   .     A
C502   C505    1.416   .     S
C502   O551    1.278   .     A
C503   O550    1.373   .     S
C504   C785    1.195   1_545 S
C505   C644    1.195   .     S
C506   O558    1.413   .     S
C506   H532    1.114   .     S
C506   C507    1.518   .     S
C506   H521    1.113   .     S
C507   H538    1.111   .     S
C507   H539    1.103   .     S
C507   H820    1.108   1_545 S
C508   H542    1.112   .     S
C508   H541    1.107   .     S
C508   C509    1.526   .     S
C508   O548    1.418   .     S
C509   H543    1.110   .     S
C509   H544    1.109   .     S
C509   H662    1.110   .     S
C510   H524    1.114   .     S
C510   O549    1.414   .     S
C510   H523    1.109   .     S
C510   C651    1.524   .     S
C511   H525    1.111   .     S
C511   H526    1.110   .     S
C511   H527    1.109   .     S
C511   C790    1.524   1_545 S
C512   H529    1.113   .     S
C512   O550    1.412   .     S
C512   H528    1.114   .     S
C512   C794    1.519   1_545 S
C513   O557    1.273   .     A
C513   O554    1.269   .     A
C514   H531    1.102   .     S
C514   H533    1.108   .     S
C514   H530    1.111   .     S
C514   C652    1.519   .     S
C515   O555    1.269   .     A
C515   C520    1.416   .     S
C515   O556    1.273   .     A
C516   C520    1.382   .     A
C516   H534    1.085   .     S
C517   H535    1.085   .     S
C518   C520    1.387   .     A
C518   H536    1.085   .     S
C519   H537    1.083   .     S
H522   C789    1.110   1_545 S
H540   C647    1.108   .     S
N545   Zn560   1.980   .     S
N546   Zn559   1.980   .     S
N546   N965    1.197   .     S
O547   Zn559   2.023   .     S
O551   Zn560   2.023   .     S
O552   Zn559   2.020   .     S
O553   Zn560   2.020   .     S
O554   Zn559   2.014   .     S
O555   Zn560   2.014   .     S
O556   Zn559   1.991   .     S
O557   Zn560   1.991   .     S
C561   O617    1.278   .     A
C561   O623    1.277   .     A
C561   C574    1.416   .     S
C562   C587    1.382   .     A
C562   C589    1.389   .     A
C562   C583    1.416   .     S
C563   C588    1.391   .     A
C563   C567    1.400   .     A
C563   C569    1.395   .     A
C564   C589    1.394   .     A
C564   C568    1.403   .     A
C564   C570    1.406   .     A
C565   C571    1.393   .     A
C565   C586    1.389   .     A
C565   C567    1.399   .     A
C566   C573    1.393   .     A
C566   C587    1.385   .     A
C566   C568    1.404   .     A
C567   C638    1.393   .     S
C568   C637    1.393   1_455 S
C569   O628    1.371   .     S
C569   C643    1.397   .     S
C570   O618    1.377   .     S
C570   C641    1.404   1_455 S
C571   O619    1.374   .     S
C571   C640    1.404   .     S
C572   O622    1.277   .     A
C572   C575    1.416   .     S
C572   O621    1.278   .     A
C573   O620    1.373   .     S
C573   C639    1.397   1_455 S
C575   C714    1.195   .     S
C576   O628    1.413   .     S
C576   H602    1.114   .     S
C576   C577    1.518   .     S
C576   H591    1.113   .     S
C577   H608    1.111   .     S
C577   H609    1.103   .     S
C578   H612    1.112   .     S
C578   H611    1.107   .     S
C578   C579    1.526   .     S
C578   O618    1.418   .     S
C579   H613    1.110   .     S
C579   H614    1.109   .     S
C579   H732    1.110   .     S
C580   H594    1.114   .     S
C580   O619    1.414   .     S
C580   H593    1.109   .     S
C580   C721    1.524   .     S
C581   H595    1.111   .     S
C581   H596    1.110   .     S
C581   H597    1.109   .     S
C582   H599    1.113   .     S
C582   O620    1.412   .     S
C582   H598    1.114   .     S
C583   O627    1.273   .     A
C583   O624    1.269   .     A
C584   H601    1.102   .     S
C584   H603    1.108   .     S
C584   H600    1.111   .     S
C584   C722    1.519   .     S
C585   O625    1.269   .     A
C585   C590    1.416   .     S
C585   O626    1.273   .     A
C586   C590    1.382   .     A
C586   H604    1.085   .     S
C587   H605    1.085   .     S
C588   C590    1.387   .     A
C588   H606    1.085   .     S
C589   H607    1.083   .     S
H610   C717    1.108   .     S
N615   Zn630   1.980   .     S
N616   Zn629   1.980   .     S
N616   N1035   1.197   .     S
O617   Zn629   2.023   .     S
O621   Zn630   2.023   .     S
O622   Zn629   2.020   .     S
O623   Zn630   2.020   .     S
O624   Zn629   2.014   .     S
O625   Zn630   2.014   .     S
O626   Zn629   1.991   .     S
O627   Zn630   1.991   .     S
C631   O687    1.278   .     A
C631   O693    1.277   .     A
C631   C644    1.416   .     S
C632   C657    1.382   .     A
C632   C659    1.389   .     A
C632   C653    1.416   .     S
C633   C658    1.391   .     A
C633   C637    1.400   .     A
C633   C639    1.395   .     A
C634   C659    1.394   .     A
C634   C638    1.403   .     A
C634   C640    1.406   .     A
C635   C641    1.393   .     A
C635   C656    1.389   .     A
C635   C637    1.399   .     A
C636   C643    1.393   .     A
C636   C657    1.385   .     A
C636   C638    1.404   .     A
C637   C568    1.393   1_655 S
C639   O698    1.371   .     S
C639   C573    1.397   1_655 S
C640   O688    1.377   .     S
C641   O689    1.374   .     S
C641   C570    1.404   1_655 S
C642   O692    1.277   .     A
C642   C645    1.416   .     S
C642   O691    1.278   .     A
C643   O690    1.373   .     S
C645   C784    1.195   .     S
C646   O698    1.413   .     S
C646   H672    1.114   .     S
C646   C647    1.518   .     S
C646   H661    1.113   .     S
C647   H678    1.111   .     S
C647   H679    1.103   .     S
C648   H682    1.112   .     S
C648   H681    1.107   .     S
C648   C649    1.526   .     S
C648   O688    1.418   .     S
C649   H683    1.110   .     S
C649   H684    1.109   .     S
C649   H802    1.110   .     S
C650   H664    1.114   .     S
C650   O689    1.414   .     S
C650   H663    1.109   .     S
C650   C791    1.524   .     S
C651   H665    1.111   .     S
C651   H666    1.110   .     S
C651   H667    1.109   .     S
C652   H669    1.113   .     S
C652   O690    1.412   .     S
C652   H668    1.114   .     S
C653   O697    1.273   .     A
C653   O694    1.269   .     A
C654   H671    1.102   .     S
C654   H673    1.108   .     S
C654   H670    1.111   .     S
C654   C792    1.519   .     S
C655   O695    1.269   .     A
C655   C660    1.416   .     S
C655   O696    1.273   .     A
C656   C660    1.382   .     A
C656   H674    1.085   .     S
C657   H675    1.085   .     S
C658   C660    1.387   .     A
C658   H676    1.085   .     S
C659   H677    1.083   .     S
H680   C787    1.108   .     S
N685   Zn700   1.980   .     S
N686   Zn699   1.980   .     S
N686   N1105   1.197   .     S
O687   Zn699   2.023   .     S
O691   Zn700   2.023   .     S
O692   Zn699   2.020   .     S
O693   Zn700   2.020   .     S
O694   Zn699   2.014   .     S
O695   Zn700   2.014   .     S
O696   Zn699   1.991   .     S
O697   Zn700   1.991   .     S
C701   O757    1.278   .     A
C701   O763    1.277   .     A
C701   C714    1.416   .     S
C702   C727    1.382   .     A
C702   C729    1.389   .     A
C702   C723    1.416   .     S
C703   C728    1.391   .     A
C703   C707    1.400   .     A
C703   C709    1.395   .     A
C704   C729    1.394   .     A
C704   C708    1.403   .     A
C704   C710    1.406   .     A
C705   C711    1.393   .     A
C705   C726    1.389   .     A
C705   C707    1.399   .     A
C706   C713    1.393   .     A
C706   C727    1.385   .     A
C706   C708    1.404   .     A
C707   C778    1.393   .     S
C708   C777    1.393   1_455 S
C709   O768    1.371   .     S
C709   C783    1.397   .     S
C710   O758    1.377   .     S
C710   C781    1.404   1_455 S
C711   O759    1.374   .     S
C711   C780    1.404   .     S
C712   O762    1.277   .     A
C712   C715    1.416   .     S
C712   O761    1.278   .     A
C713   O760    1.373   .     S
C713   C779    1.397   1_455 S
C715   C434    1.195   1_565 S
C716   O768    1.413   .     S
C716   H742    1.114   .     S
C716   C717    1.518   .     S
C716   H731    1.113   .     S
C717   H748    1.111   .     S
C717   H749    1.103   .     S
C718   H752    1.112   .     S
C718   H751    1.107   .     S
C718   C719    1.526   .     S
C718   O758    1.418   .     S
C719   H753    1.110   .     S
C719   H754    1.109   .     S
C719   H452    1.110   1_565 S
C720   H734    1.114   .     S
C720   O759    1.414   .     S
C720   H733    1.109   .     S
C720   C441    1.524   1_565 S
C721   H735    1.111   .     S
C721   H736    1.110   .     S
C721   H737    1.109   .     S
C722   H739    1.113   .     S
C722   O760    1.412   .     S
C722   H738    1.114   .     S
C723   O767    1.273   .     A
C723   O764    1.269   .     A
C724   H741    1.102   .     S
C724   H743    1.108   .     S
C724   H740    1.111   .     S
C724   C442    1.519   1_565 S
C725   O765    1.269   .     A
C725   C730    1.416   .     S
C725   O766    1.273   .     A
C726   C730    1.382   .     A
C726   H744    1.085   .     S
C727   H745    1.085   .     S
C728   C730    1.387   .     A
C728   H746    1.085   .     S
C729   H747    1.083   .     S
H750   C437    1.108   1_565 S
N755   Zn770   1.980   .     S
N756   Zn769   1.980   .     S
N756   N1175   1.197   .     S
O757   Zn769   2.023   .     S
O761   Zn770   2.023   .     S
O762   Zn769   2.020   .     S
O763   Zn770   2.020   .     S
O764   Zn769   2.014   .     S
O765   Zn770   2.014   .     S
O766   Zn769   1.991   .     S
O767   Zn770   1.991   .     S
C771   O827    1.278   .     A
C771   O833    1.277   .     A
C771   C784    1.416   .     S
C772   C797    1.382   .     A
C772   C799    1.389   .     A
C772   C793    1.416   .     S
C773   C798    1.391   .     A
C773   C777    1.400   .     A
C773   C779    1.395   .     A
C774   C799    1.394   .     A
C774   C778    1.403   .     A
C774   C780    1.406   .     A
C775   C781    1.393   .     A
C775   C796    1.389   .     A
C775   C777    1.399   .     A
C776   C783    1.393   .     A
C776   C797    1.385   .     A
C776   C778    1.404   .     A
C777   C708    1.393   1_655 S
C779   O838    1.371   .     S
C779   C713    1.397   1_655 S
C780   O828    1.377   .     S
C781   O829    1.374   .     S
C781   C710    1.404   1_655 S
C782   O832    1.277   .     A
C782   C785    1.416   .     S
C782   O831    1.278   .     A
C783   O830    1.373   .     S
C785   C504    1.195   1_565 S
C786   O838    1.413   .     S
C786   H812    1.114   .     S
C786   C787    1.518   .     S
C786   H801    1.113   .     S
C787   H818    1.111   .     S
C787   H819    1.103   .     S
C788   H822    1.112   .     S
C788   H821    1.107   .     S
C788   C789    1.526   .     S
C788   O828    1.418   .     S
C789   H823    1.110   .     S
C789   H824    1.109   .     S
C789   H522    1.110   1_565 S
C790   H804    1.114   .     S
C790   O829    1.414   .     S
C790   H803    1.109   .     S
C790   C511    1.524   1_565 S
C791   H805    1.111   .     S
C791   H806    1.110   .     S
C791   H807    1.109   .     S
C792   H809    1.113   .     S
C792   O830    1.412   .     S
C792   H808    1.114   .     S
C793   O837    1.273   .     A
C793   O834    1.269   .     A
C794   H811    1.102   .     S
C794   H813    1.108   .     S
C794   H810    1.111   .     S
C794   C512    1.519   1_565 S
C795   O835    1.269   .     A
C795   C800    1.416   .     S
C795   O836    1.273   .     A
C796   C800    1.382   .     A
C796   H814    1.085   .     S
C797   H815    1.085   .     S
C798   C800    1.387   .     A
C798   H816    1.085   .     S
C799   H817    1.083   .     S
H820   C507    1.108   1_565 S
N825   Zn840   1.980   .     S
N826   Zn839   1.980   .     S
N826   N1245   1.197   .     S
O827   Zn839   2.023   .     S
O831   Zn840   2.023   .     S
O832   Zn839   2.020   .     S
O833   Zn840   2.020   .     S
O834   Zn839   2.014   .     S
O835   Zn840   2.014   .     S
O836   Zn839   1.991   .     S
O837   Zn840   1.991   .     S
C841   O897    1.278   .     A
C841   O903    1.277   .     A
C841   C854    1.416   .     S
C842   C867    1.382   .     A
C842   C869    1.389   .     A
C842   C863    1.416   .     S
C843   C868    1.391   .     A
C843   C847    1.400   .     A
C843   C849    1.395   .     A
C844   C869    1.394   .     A
C844   C848    1.403   .     A
C844   C850    1.406   .     A
C845   C851    1.393   .     A
C845   C866    1.389   .     A
C845   C847    1.399   .     A
C846   C853    1.393   .     A
C846   C867    1.385   .     A
C846   C848    1.404   .     A
C847   C918    1.393   .     S
C848   C917    1.393   1_455 S
C849   O908    1.371   .     S
C849   C923    1.397   .     S
C850   O898    1.377   .     S
C850   C921    1.404   1_455 S
C851   O899    1.374   .     S
C851   C920    1.404   .     S
C852   O902    1.277   .     A
C852   C855    1.416   .     S
C852   O901    1.278   .     A
C853   O900    1.373   .     S
C853   C919    1.397   1_455 S
C854   C1135   1.195   1_545 S
C855   C994    1.195   .     S
C856   O908    1.413   .     S
C856   H882    1.114   .     S
C856   C857    1.518   .     S
C856   H871    1.113   .     S
C857   H888    1.111   .     S
C857   H889    1.103   .     S
C857   H1170   1.108   1_545 S
C858   H892    1.112   .     S
C858   H891    1.107   .     S
C858   C859    1.526   .     S
C858   O898    1.418   .     S
C859   H893    1.110   .     S
C859   H894    1.109   .     S
C859   H1012   1.110   .     S
C860   H874    1.114   .     S
C860   O899    1.414   .     S
C860   H873    1.109   .     S
C860   C1001   1.524   .     S
C861   H875    1.111   .     S
C861   H876    1.110   .     S
C861   H877    1.109   .     S
C861   C1140   1.524   1_545 S
C862   H879    1.113   .     S
C862   O900    1.412   .     S
C862   H878    1.114   .     S
C862   C1144   1.519   1_545 S
C863   O907    1.273   .     A
C863   O904    1.269   .     A
C864   H881    1.102   .     S
C864   H883    1.108   .     S
C864   H880    1.111   .     S
C864   C1002   1.519   .     S
C865   O905    1.269   .     A
C865   C870    1.416   .     S
C865   O906    1.273   .     A
C866   C870    1.382   .     A
C866   H884    1.085   .     S
C867   H885    1.085   .     S
C868   C870    1.387   .     A
C868   H886    1.085   .     S
C869   H887    1.083   .     S
H872   C1139   1.110   1_545 S
H890   C997    1.108   .     S
N895   Zn910   1.980   .     S
N896   Zn909   1.980   .     S
N896   N55     1.197   1_556 S
O897   Zn909   2.023   .     S
O901   Zn910   2.023   .     S
O902   Zn909   2.020   .     S
O903   Zn910   2.020   .     S
O904   Zn909   2.014   .     S
O905   Zn910   2.014   .     S
O906   Zn909   1.991   .     S
O907   Zn910   1.991   .     S
C911   O967    1.278   .     A
C911   O973    1.277   .     A
C911   C924    1.416   .     S
C912   C937    1.382   .     A
C912   C939    1.389   .     A
C912   C933    1.416   .     S
C913   C938    1.391   .     A
C913   C917    1.400   .     A
C913   C919    1.395   .     A
C914   C939    1.394   .     A
C914   C918    1.403   .     A
C914   C920    1.406   .     A
C915   C921    1.393   .     A
C915   C936    1.389   .     A
C915   C917    1.399   .     A
C916   C923    1.393   .     A
C916   C937    1.385   .     A
C916   C918    1.404   .     A
C917   C848    1.393   1_655 S
C919   O978    1.371   .     S
C919   C853    1.397   1_655 S
C920   O968    1.377   .     S
C921   O969    1.374   .     S
C921   C850    1.404   1_655 S
C922   O972    1.277   .     A
C922   C925    1.416   .     S
C922   O971    1.278   .     A
C923   O970    1.373   .     S
C924   C1205   1.195   1_545 S
C925   C1064   1.195   .     S
C926   O978    1.413   .     S
C926   H952    1.114   .     S
C926   C927    1.518   .     S
C926   H941    1.113   .     S
C927   H958    1.111   .     S
C927   H959    1.103   .     S
C927   H1240   1.108   1_545 S
C928   H962    1.112   .     S
C928   H961    1.107   .     S
C928   C929    1.526   .     S
C928   O968    1.418   .     S
C929   H963    1.110   .     S
C929   H964    1.109   .     S
C929   H1082   1.110   .     S
C930   H944    1.114   .     S
C930   O969    1.414   .     S
C930   H943    1.109   .     S
C930   C1071   1.524   .     S
C931   H945    1.111   .     S
C931   H946    1.110   .     S
C931   H947    1.109   .     S
C931   C1210   1.524   1_545 S
C932   H949    1.113   .     S
C932   O970    1.412   .     S
C932   H948    1.114   .     S
C932   C1214   1.519   1_545 S
C933   O977    1.273   .     A
C933   O974    1.269   .     A
C934   H951    1.102   .     S
C934   H953    1.108   .     S
C934   H950    1.111   .     S
C934   C1072   1.519   .     S
C935   O975    1.269   .     A
C935   C940    1.416   .     S
C935   O976    1.273   .     A
C936   C940    1.382   .     A
C936   H954    1.085   .     S
C937   H955    1.085   .     S
C938   C940    1.387   .     A
C938   H956    1.085   .     S
C939   H957    1.083   .     S
H942   C1209   1.110   1_545 S
H960   C1067   1.108   .     S
N965   Zn980   1.980   .     S
N966   Zn979   1.980   .     S
N966   N125    1.197   1_556 S
O967   Zn979   2.023   .     S
O971   Zn980   2.023   .     S
O972   Zn979   2.020   .     S
O973   Zn980   2.020   .     S
O974   Zn979   2.014   .     S
O975   Zn980   2.014   .     S
O976   Zn979   1.991   .     S
O977   Zn980   1.991   .     S
C981   O1037   1.278   .     A
C981   O1043   1.277   .     A
C981   C994    1.416   .     S
C982   C1007   1.382   .     A
C982   C1009   1.389   .     A
C982   C1003   1.416   .     S
C983   C1008   1.391   .     A
C983   C987    1.400   .     A
C983   C989    1.395   .     A
C984   C1009   1.394   .     A
C984   C988    1.403   .     A
C984   C990    1.406   .     A
C985   C991    1.393   .     A
C985   C1006   1.389   .     A
C985   C987    1.399   .     A
C986   C993    1.393   .     A
C986   C1007   1.385   .     A
C986   C988    1.404   .     A
C987   C1058   1.393   .     S
C988   C1057   1.393   1_455 S
C989   O1048   1.371   .     S
C989   C1063   1.397   .     S
C990   O1038   1.377   .     S
C990   C1061   1.404   1_455 S
C991   O1039   1.374   .     S
C991   C1060   1.404   .     S
C992   O1042   1.277   .     A
C992   C995    1.416   .     S
C992   O1041   1.278   .     A
C993   O1040   1.373   .     S
C993   C1059   1.397   1_455 S
C995   C1134   1.195   .     S
C996   O1048   1.413   .     S
C996   H1022   1.114   .     S
C996   C997    1.518   .     S
C996   H1011   1.113   .     S
C997   H1028   1.111   .     S
C997   H1029   1.103   .     S
C998   H1032   1.112   .     S
C998   H1031   1.107   .     S
C998   C999    1.526   .     S
C998   O1038   1.418   .     S
C999   H1033   1.110   .     S
C999   H1034   1.109   .     S
C999   H1152   1.110   .     S
C1000  H1014   1.114   .     S
C1000  O1039   1.414   .     S
C1000  H1013   1.109   .     S
C1000  C1141   1.524   .     S
C1001  H1015   1.111   .     S
C1001  H1016   1.110   .     S
C1001  H1017   1.109   .     S
C1002  H1019   1.113   .     S
C1002  O1040   1.412   .     S
C1002  H1018   1.114   .     S
C1003  O1047   1.273   .     A
C1003  O1044   1.269   .     A
C1004  H1021   1.102   .     S
C1004  H1023   1.108   .     S
C1004  H1020   1.111   .     S
C1004  C1142   1.519   .     S
C1005  O1045   1.269   .     A
C1005  C1010   1.416   .     S
C1005  O1046   1.273   .     A
C1006  C1010   1.382   .     A
C1006  H1024   1.085   .     S
C1007  H1025   1.085   .     S
C1008  C1010   1.387   .     A
C1008  H1026   1.085   .     S
C1009  H1027   1.083   .     S
H1030  C1137   1.108   .     S
N1035  Zn1050  1.980   .     S
N1036  Zn1049  1.980   .     S
N1036  N195    1.197   1_556 S
O1037  Zn1049  2.023   .     S
O1041  Zn1050  2.023   .     S
O1042  Zn1049  2.020   .     S
O1043  Zn1050  2.020   .     S
O1044  Zn1049  2.014   .     S
O1045  Zn1050  2.014   .     S
O1046  Zn1049  1.991   .     S
O1047  Zn1050  1.991   .     S
C1051  O1107   1.278   .     A
C1051  O1113   1.277   .     A
C1051  C1064   1.416   .     S
C1052  C1077   1.382   .     A
C1052  C1079   1.389   .     A
C1052  C1073   1.416   .     S
C1053  C1078   1.391   .     A
C1053  C1057   1.400   .     A
C1053  C1059   1.395   .     A
C1054  C1079   1.394   .     A
C1054  C1058   1.403   .     A
C1054  C1060   1.406   .     A
C1055  C1061   1.393   .     A
C1055  C1076   1.389   .     A
C1055  C1057   1.399   .     A
C1056  C1063   1.393   .     A
C1056  C1077   1.385   .     A
C1056  C1058   1.404   .     A
C1057  C988    1.393   1_655 S
C1059  O1118   1.371   .     S
C1059  C993    1.397   1_655 S
C1060  O1108   1.377   .     S
C1061  O1109   1.374   .     S
C1061  C990    1.404   1_655 S
C1062  O1112   1.277   .     A
C1062  C1065   1.416   .     S
C1062  O1111   1.278   .     A
C1063  O1110   1.373   .     S
C1065  C1204   1.195   .     S
C1066  O1118   1.413   .     S
C1066  H1092   1.114   .     S
C1066  C1067   1.518   .     S
C1066  H1081   1.113   .     S
C1067  H1098   1.111   .     S
C1067  H1099   1.103   .     S
C1068  H1102   1.112   .     S
C1068  H1101   1.107   .     S
C1068  C1069   1.526   .     S
C1068  O1108   1.418   .     S
C1069  H1103   1.110   .     S
C1069  H1104   1.109   .     S
C1069  H1222   1.110   .     S
C1070  H1084   1.114   .     S
C1070  O1109   1.414   .     S
C1070  H1083   1.109   .     S
C1070  C1211   1.524   .     S
C1071  H1085   1.111   .     S
C1071  H1086   1.110   .     S
C1071  H1087   1.109   .     S
C1072  H1089   1.113   .     S
C1072  O1110   1.412   .     S
C1072  H1088   1.114   .     S
C1073  O1117   1.273   .     A
C1073  O1114   1.269   .     A
C1074  H1091   1.102   .     S
C1074  H1093   1.108   .     S
C1074  H1090   1.111   .     S
C1074  C1212   1.519   .     S
C1075  O1115   1.269   .     A
C1075  C1080   1.416   .     S
C1075  O1116   1.273   .     A
C1076  C1080   1.382   .     A
C1076  H1094   1.085   .     S
C1077  H1095   1.085   .     S
C1078  C1080   1.387   .     A
C1078  H1096   1.085   .     S
C1079  H1097   1.083   .     S
H1100  C1207   1.108   .     S
N1105  Zn1120  1.980   .     S
N1106  Zn1119  1.980   .     S
N1106  N265    1.197   1_556 S
O1107  Zn1119  2.023   .     S
O1111  Zn1120  2.023   .     S
O1112  Zn1119  2.020   .     S
O1113  Zn1120  2.020   .     S
O1114  Zn1119  2.014   .     S
O1115  Zn1120  2.014   .     S
O1116  Zn1119  1.991   .     S
O1117  Zn1120  1.991   .     S
C1121  O1177   1.278   .     A
C1121  O1183   1.277   .     A
C1121  C1134   1.416   .     S
C1122  C1147   1.382   .     A
C1122  C1149   1.389   .     A
C1122  C1143   1.416   .     S
C1123  C1148   1.391   .     A
C1123  C1127   1.400   .     A
C1123  C1129   1.395   .     A
C1124  C1149   1.394   .     A
C1124  C1128   1.403   .     A
C1124  C1130   1.406   .     A
C1125  C1131   1.393   .     A
C1125  C1146   1.389   .     A
C1125  C1127   1.399   .     A
C1126  C1133   1.393   .     A
C1126  C1147   1.385   .     A
C1126  C1128   1.404   .     A
C1127  C1198   1.393   .     S
C1128  C1197   1.393   1_455 S
C1129  O1188   1.371   .     S
C1129  C1203   1.397   .     S
C1130  O1178   1.377   .     S
C1130  C1201   1.404   1_455 S
C1131  O1179   1.374   .     S
C1131  C1200   1.404   .     S
C1132  O1182   1.277   .     A
C1132  C1135   1.416   .     S
C1132  O1181   1.278   .     A
C1133  O1180   1.373   .     S
C1133  C1199   1.397   1_455 S
C1135  C854    1.195   1_565 S
C1136  O1188   1.413   .     S
C1136  H1162   1.114   .     S
C1136  C1137   1.518   .     S
C1136  H1151   1.113   .     S
C1137  H1168   1.111   .     S
C1137  H1169   1.103   .     S
C1138  H1172   1.112   .     S
C1138  H1171   1.107   .     S
C1138  C1139   1.526   .     S
C1138  O1178   1.418   .     S
C1139  H1173   1.110   .     S
C1139  H1174   1.109   .     S
C1139  H872    1.110   1_565 S
C1140  H1154   1.114   .     S
C1140  O1179   1.414   .     S
C1140  H1153   1.109   .     S
C1140  C861    1.524   1_565 S
C1141  H1155   1.111   .     S
C1141  H1156   1.110   .     S
C1141  H1157   1.109   .     S
C1142  H1159   1.113   .     S
C1142  O1180   1.412   .     S
C1142  H1158   1.114   .     S
C1143  O1187   1.273   .     A
C1143  O1184   1.269   .     A
C1144  H1161   1.102   .     S
C1144  H1163   1.108   .     S
C1144  H1160   1.111   .     S
C1144  C862    1.519   1_565 S
C1145  O1185   1.269   .     A
C1145  C1150   1.416   .     S
C1145  O1186   1.273   .     A
C1146  C1150   1.382   .     A
C1146  H1164   1.085   .     S
C1147  H1165   1.085   .     S
C1148  C1150   1.387   .     A
C1148  H1166   1.085   .     S
C1149  H1167   1.083   .     S
H1170  C857    1.108   1_565 S
N1175  Zn1190  1.980   .     S
N1176  Zn1189  1.980   .     S
N1176  N335    1.197   1_556 S
O1177  Zn1189  2.023   .     S
O1181  Zn1190  2.023   .     S
O1182  Zn1189  2.020   .     S
O1183  Zn1190  2.020   .     S
O1184  Zn1189  2.014   .     S
O1185  Zn1190  2.014   .     S
O1186  Zn1189  1.991   .     S
O1187  Zn1190  1.991   .     S
C1191  O1247   1.278   .     A
C1191  O1253   1.277   .     A
C1191  C1204   1.416   .     S
C1192  C1217   1.382   .     A
C1192  C1219   1.389   .     A
C1192  C1213   1.416   .     S
C1193  C1218   1.391   .     A
C1193  C1197   1.400   .     A
C1193  C1199   1.395   .     A
C1194  C1219   1.394   .     A
C1194  C1198   1.403   .     A
C1194  C1200   1.406   .     A
C1195  C1201   1.393   .     A
C1195  C1216   1.389   .     A
C1195  C1197   1.399   .     A
C1196  C1203   1.393   .     A
C1196  C1217   1.385   .     A
C1196  C1198   1.404   .     A
C1197  C1128   1.393   1_655 S
C1199  O1258   1.371   .     S
C1199  C1133   1.397   1_655 S
C1200  O1248   1.377   .     S
C1201  O1249   1.374   .     S
C1201  C1130   1.404   1_655 S
C1202  O1252   1.277   .     A
C1202  C1205   1.416   .     S
C1202  O1251   1.278   .     A
C1203  O1250   1.373   .     S
C1205  C924    1.195   1_565 S
C1206  O1258   1.413   .     S
C1206  H1232   1.114   .     S
C1206  C1207   1.518   .     S
C1206  H1221   1.113   .     S
C1207  H1238   1.111   .     S
C1207  H1239   1.103   .     S
C1208  H1242   1.112   .     S
C1208  H1241   1.107   .     S
C1208  C1209   1.526   .     S
C1208  O1248   1.418   .     S
C1209  H1243   1.110   .     S
C1209  H1244   1.109   .     S
C1209  H942    1.110   1_565 S
C1210  H1224   1.114   .     S
C1210  O1249   1.414   .     S
C1210  H1223   1.109   .     S
C1210  C931    1.524   1_565 S
C1211  H1225   1.111   .     S
C1211  H1226   1.110   .     S
C1211  H1227   1.109   .     S
C1212  H1229   1.113   .     S
C1212  O1250   1.412   .     S
C1212  H1228   1.114   .     S
C1213  O1257   1.273   .     A
C1213  O1254   1.269   .     A
C1214  H1231   1.102   .     S
C1214  H1233   1.108   .     S
C1214  H1230   1.111   .     S
C1214  C932    1.519   1_565 S
C1215  O1255   1.269   .     A
C1215  C1220   1.416   .     S
C1215  O1256   1.273   .     A
C1216  C1220   1.382   .     A
C1216  H1234   1.085   .     S
C1217  H1235   1.085   .     S
C1218  C1220   1.387   .     A
C1218  H1236   1.085   .     S
C1219  H1237   1.083   .     S
H1240  C927    1.108   1_565 S
N1245  Zn1260  1.980   .     S
N1246  Zn1259  1.980   .     S
N1246  N405    1.197   1_556 S
O1247  Zn1259  2.023   .     S
O1251  Zn1260  2.023   .     S
O1252  Zn1259  2.020   .     S
O1253  Zn1260  2.020   .     S
O1254  Zn1259  2.014   .     S
O1255  Zn1260  2.014   .     S
O1256  Zn1259  1.991   .     S
O1257  Zn1260  1.991   .     S
