data_str_m3_o1_o5_pcu_sym.94
_audit_creation_date              2020-01-03
_audit_creation_method            'Materials Studio'
_symmetry_space_group_name_H-M    'P1'
_symmetry_Int_Tables_number       1
_symmetry_cell_setting            triclinic
loop_
_symmetry_equiv_pos_as_xyz
  x,y,z
_cell_length_a                    31.8398
_cell_length_b                    29.7686
_cell_length_c                    26.6984
_cell_angle_alpha                 89.7860
_cell_angle_beta                  90.6958
_cell_angle_gamma                 89.4554
loop_
_atom_site_label
_atom_site_type_symbol
_atom_site_fract_x
_atom_site_fract_y
_atom_site_fract_z
_atom_site_U_iso_or_equiv
_atom_site_adp_type
_atom_site_occupancy
C1     C     0.08689   0.16684   0.16654   0.00000  Uiso   1.00
C2     C     0.24644   0.16649   0.16674   0.00000  Uiso   1.00
C3     C     0.16660   0.16672   0.07296   0.00000  Uiso   1.00
C4     C     0.16673   0.16661   0.26037   0.00000  Uiso   1.00
C5     C     0.16664   0.16674   0.02182   0.00000  Uiso   1.00
C6     C     0.16669   0.16659   0.31152   0.00000  Uiso   1.00
C7     C     0.02245   0.15100   0.20928   0.00000  Uiso   1.00
C8     C     0.31087   0.18223   0.12394   0.00000  Uiso   1.00
C9     C     0.31217   0.15056   0.20921   0.00000  Uiso   1.00
C10    C     0.02116   0.18259   0.12396   0.00000  Uiso   1.00
C11    C     0.29060   0.16619   0.16654   0.00000  Uiso   1.00
C12    C     0.04273   0.16710   0.16670   0.00000  Uiso   1.00
C13    C     0.19419   0.02371   0.19656   0.00000  Uiso   1.00
C14    C     0.13868   0.31044   0.13734   0.00000  Uiso   1.00
C15    C     0.13925   0.02487   0.13696   0.00000  Uiso   1.00
C16    C     0.19430   0.30876   0.19643   0.00000  Uiso   1.00
N17    N     0.16667   0.28573   0.16667   0.00000  Uiso   1.00
N18    N     0.16667   0.04760   0.16667   0.00000  Uiso   1.00
O19    O     0.10559   0.20487   0.16666   0.00000  Uiso   1.00
O20    O     0.22774   0.12846   0.16667   0.00000  Uiso   1.00
O21    O     0.22774   0.20487   0.16667   0.00000  Uiso   1.00
O22    O     0.10559   0.12846   0.16666   0.00000  Uiso   1.00
O23    O     0.16667   0.20488   0.09511   0.00000  Uiso   1.00
O24    O     0.16666   0.12845   0.23822   0.00000  Uiso   1.00
O25    O     0.16666   0.20488   0.23822   0.00000  Uiso   1.00
O26    O     0.16667   0.12845   0.09511   0.00000  Uiso   1.00
Zn27   Zn    0.16667   0.21771   0.16667   0.00000  Uiso   1.00
Zn28   Zn    0.16667   0.11563   0.16667   0.00000  Uiso   1.00
N29    N     0.04655   0.13600   0.25213   0.00000  Uiso   1.00
H30    H     0.03826   0.15548   0.28303   0.00000  Uiso   1.00
H31    H     0.03921   0.10250   0.25955   0.00000  Uiso   1.00
N32    N     0.28677   0.19723   0.08109   0.00000  Uiso   1.00
H33    H     0.29414   0.23071   0.07363   0.00000  Uiso   1.00
H34    H     0.29501   0.17771   0.05020   0.00000  Uiso   1.00
N35    N     0.28938   0.13549   0.25216   0.00000  Uiso   1.00
H36    H     0.29733   0.15565   0.28274   0.00000  Uiso   1.00
H37    H     0.29832   0.10236   0.26028   0.00000  Uiso   1.00
N38    N     0.04393   0.19732   0.08086   0.00000  Uiso   1.00
H39    H     0.03498   0.23037   0.07239   0.00000  Uiso   1.00
H40    H     0.03598   0.17690   0.05050   0.00000  Uiso   1.00
N41    N     0.22277   0.04792   0.22790   0.00000  Uiso   1.00
H42    H     0.21765   0.03887   0.26516   0.00000  Uiso   1.00
H43    H     0.25342   0.03871   0.21850   0.00000  Uiso   1.00
N44    N     0.10713   0.28914   0.10751   0.00000  Uiso   1.00
H45    H     0.08546   0.27412   0.13102   0.00000  Uiso   1.00
H46    H     0.12076   0.26590   0.08356   0.00000  Uiso   1.00
N47    N     0.11062   0.04989   0.10567   0.00000  Uiso   1.00
H48    H     0.11530   0.04023   0.06853   0.00000  Uiso   1.00
H49    H     0.07999   0.04148   0.11553   0.00000  Uiso   1.00
N50    N     0.22295   0.28375   0.22769   0.00000  Uiso   1.00
H51    H     0.21785   0.29260   0.26497   0.00000  Uiso   1.00
H52    H     0.25360   0.29241   0.21827   0.00000  Uiso   1.00
C53    C     0.42022   0.16684   0.16654   0.00000  Uiso   1.00
C54    C     0.57978   0.16649   0.16674   0.00000  Uiso   1.00
C55    C     0.49994   0.16672   0.07296   0.00000  Uiso   1.00
C56    C     0.50006   0.16661   0.26037   0.00000  Uiso   1.00
C57    C     0.49997   0.16674   0.02182   0.00000  Uiso   1.00
C58    C     0.50002   0.16659   0.31152   0.00000  Uiso   1.00
C59    C     0.35579   0.15100   0.20928   0.00000  Uiso   1.00
C60    C     0.64420   0.18223   0.12394   0.00000  Uiso   1.00
C61    C     0.64550   0.15056   0.20921   0.00000  Uiso   1.00
C62    C     0.35449   0.18259   0.12396   0.00000  Uiso   1.00
C63    C     0.62394   0.16619   0.16654   0.00000  Uiso   1.00
C64    C     0.37606   0.16710   0.16670   0.00000  Uiso   1.00
C65    C     0.52752   0.02371   0.19656   0.00000  Uiso   1.00
C66    C     0.47201   0.31044   0.13734   0.00000  Uiso   1.00
C67    C     0.47259   0.02487   0.13696   0.00000  Uiso   1.00
C68    C     0.52763   0.30876   0.19643   0.00000  Uiso   1.00
N69    N     0.50000   0.28573   0.16667   0.00000  Uiso   1.00
N70    N     0.50000   0.04760   0.16667   0.00000  Uiso   1.00
O71    O     0.43892   0.20487   0.16666   0.00000  Uiso   1.00
O72    O     0.56108   0.12846   0.16667   0.00000  Uiso   1.00
O73    O     0.56108   0.20487   0.16667   0.00000  Uiso   1.00
O74    O     0.43892   0.12846   0.16666   0.00000  Uiso   1.00
O75    O     0.50000   0.20488   0.09511   0.00000  Uiso   1.00
O76    O     0.50000   0.12845   0.23822   0.00000  Uiso   1.00
O77    O     0.50000   0.20488   0.23822   0.00000  Uiso   1.00
O78    O     0.50000   0.12845   0.09511   0.00000  Uiso   1.00
Zn79   Zn    0.50000   0.21771   0.16667   0.00000  Uiso   1.00
Zn80   Zn    0.50000   0.11563   0.16667   0.00000  Uiso   1.00
N81    N     0.37988   0.13600   0.25213   0.00000  Uiso   1.00
H82    H     0.37160   0.15548   0.28303   0.00000  Uiso   1.00
H83    H     0.37254   0.10250   0.25955   0.00000  Uiso   1.00
N84    N     0.62010   0.19723   0.08109   0.00000  Uiso   1.00
H85    H     0.62747   0.23071   0.07363   0.00000  Uiso   1.00
H86    H     0.62835   0.17771   0.05020   0.00000  Uiso   1.00
N87    N     0.62272   0.13549   0.25216   0.00000  Uiso   1.00
H88    H     0.63066   0.15565   0.28274   0.00000  Uiso   1.00
H89    H     0.63165   0.10236   0.26028   0.00000  Uiso   1.00
N90    N     0.37726   0.19732   0.08086   0.00000  Uiso   1.00
H91    H     0.36831   0.23037   0.07239   0.00000  Uiso   1.00
H92    H     0.36931   0.17690   0.05050   0.00000  Uiso   1.00
N93    N     0.55611   0.04792   0.22790   0.00000  Uiso   1.00
H94    H     0.55098   0.03887   0.26516   0.00000  Uiso   1.00
H95    H     0.58676   0.03871   0.21850   0.00000  Uiso   1.00
N96    N     0.44046   0.28914   0.10751   0.00000  Uiso   1.00
H97    H     0.41879   0.27412   0.13102   0.00000  Uiso   1.00
H98    H     0.45409   0.26590   0.08356   0.00000  Uiso   1.00
N99    N     0.44395   0.04989   0.10567   0.00000  Uiso   1.00
H100   H     0.44863   0.04023   0.06853   0.00000  Uiso   1.00
H101   H     0.41333   0.04148   0.11553   0.00000  Uiso   1.00
N102   N     0.55628   0.28375   0.22769   0.00000  Uiso   1.00
H103   H     0.55118   0.29260   0.26497   0.00000  Uiso   1.00
H104   H     0.58693   0.29241   0.21827   0.00000  Uiso   1.00
C105   C     0.75355   0.16684   0.16654   0.00000  Uiso   1.00
C106   C     0.91311   0.16649   0.16674   0.00000  Uiso   1.00
C107   C     0.83327   0.16672   0.07296   0.00000  Uiso   1.00
C108   C     0.83340   0.16661   0.26037   0.00000  Uiso   1.00
C109   C     0.83331   0.16674   0.02182   0.00000  Uiso   1.00
C110   C     0.83335   0.16659   0.31152   0.00000  Uiso   1.00
C111   C     0.68912   0.15100   0.20928   0.00000  Uiso   1.00
C112   C     0.97754   0.18223   0.12394   0.00000  Uiso   1.00
C113   C     0.97884   0.15056   0.20921   0.00000  Uiso   1.00
C114   C     0.68782   0.18259   0.12396   0.00000  Uiso   1.00
C115   C     0.95727   0.16619   0.16654   0.00000  Uiso   1.00
C116   C     0.70939   0.16710   0.16670   0.00000  Uiso   1.00
C117   C     0.86085   0.02371   0.19656   0.00000  Uiso   1.00
C118   C     0.80534   0.31044   0.13734   0.00000  Uiso   1.00
C119   C     0.80592   0.02487   0.13696   0.00000  Uiso   1.00
C120   C     0.86097   0.30876   0.19643   0.00000  Uiso   1.00
N121   N     0.83333   0.28573   0.16667   0.00000  Uiso   1.00
N122   N     0.83333   0.04760   0.16667   0.00000  Uiso   1.00
O123   O     0.77226   0.20487   0.16666   0.00000  Uiso   1.00
O124   O     0.89441   0.12846   0.16667   0.00000  Uiso   1.00
O125   O     0.89441   0.20487   0.16667   0.00000  Uiso   1.00
O126   O     0.77226   0.12846   0.16666   0.00000  Uiso   1.00
O127   O     0.83334   0.20488   0.09511   0.00000  Uiso   1.00
O128   O     0.83333   0.12845   0.23822   0.00000  Uiso   1.00
O129   O     0.83333   0.20488   0.23822   0.00000  Uiso   1.00
O130   O     0.83334   0.12845   0.09511   0.00000  Uiso   1.00
Zn131  Zn    0.83333   0.21771   0.16667   0.00000  Uiso   1.00
Zn132  Zn    0.83333   0.11563   0.16667   0.00000  Uiso   1.00
N133   N     0.71321   0.13600   0.25213   0.00000  Uiso   1.00
H134   H     0.70493   0.15548   0.28303   0.00000  Uiso   1.00
H135   H     0.70588   0.10250   0.25955   0.00000  Uiso   1.00
N136   N     0.95344   0.19723   0.08109   0.00000  Uiso   1.00
H137   H     0.96080   0.23071   0.07363   0.00000  Uiso   1.00
H138   H     0.96168   0.17771   0.05020   0.00000  Uiso   1.00
N139   N     0.95605   0.13549   0.25216   0.00000  Uiso   1.00
H140   H     0.96400   0.15565   0.28274   0.00000  Uiso   1.00
H141   H     0.96499   0.10236   0.26028   0.00000  Uiso   1.00
N142   N     0.71060   0.19732   0.08086   0.00000  Uiso   1.00
H143   H     0.70164   0.23037   0.07239   0.00000  Uiso   1.00
H144   H     0.70264   0.17690   0.05050   0.00000  Uiso   1.00
N145   N     0.88944   0.04792   0.22790   0.00000  Uiso   1.00
H146   H     0.88431   0.03887   0.26516   0.00000  Uiso   1.00
H147   H     0.92009   0.03871   0.21850   0.00000  Uiso   1.00
N148   N     0.77380   0.28914   0.10751   0.00000  Uiso   1.00
H149   H     0.75213   0.27412   0.13102   0.00000  Uiso   1.00
H150   H     0.78743   0.26590   0.08356   0.00000  Uiso   1.00
N151   N     0.77728   0.04989   0.10567   0.00000  Uiso   1.00
H152   H     0.78196   0.04023   0.06853   0.00000  Uiso   1.00
H153   H     0.74666   0.04148   0.11553   0.00000  Uiso   1.00
N154   N     0.88962   0.28375   0.22769   0.00000  Uiso   1.00
H155   H     0.88451   0.29260   0.26497   0.00000  Uiso   1.00
H156   H     0.92026   0.29241   0.21827   0.00000  Uiso   1.00
C157   C     0.08689   0.50017   0.16654   0.00000  Uiso   1.00
C158   C     0.24644   0.49983   0.16674   0.00000  Uiso   1.00
C159   C     0.16660   0.50005   0.07296   0.00000  Uiso   1.00
C160   C     0.16673   0.49995   0.26037   0.00000  Uiso   1.00
C161   C     0.16664   0.50008   0.02182   0.00000  Uiso   1.00
C162   C     0.16669   0.49992   0.31152   0.00000  Uiso   1.00
C163   C     0.02245   0.48434   0.20928   0.00000  Uiso   1.00
C164   C     0.31087   0.51557   0.12394   0.00000  Uiso   1.00
C165   C     0.31217   0.48389   0.20921   0.00000  Uiso   1.00
C166   C     0.02116   0.51592   0.12396   0.00000  Uiso   1.00
C167   C     0.29060   0.49952   0.16654   0.00000  Uiso   1.00
C168   C     0.04273   0.50044   0.16670   0.00000  Uiso   1.00
C169   C     0.19419   0.35704   0.19656   0.00000  Uiso   1.00
C170   C     0.13868   0.64377   0.13734   0.00000  Uiso   1.00
C171   C     0.13925   0.35821   0.13696   0.00000  Uiso   1.00
C172   C     0.19430   0.64210   0.19643   0.00000  Uiso   1.00
N173   N     0.16667   0.61907   0.16667   0.00000  Uiso   1.00
N174   N     0.16667   0.38093   0.16667   0.00000  Uiso   1.00
O175   O     0.10559   0.53821   0.16666   0.00000  Uiso   1.00
O176   O     0.22774   0.46179   0.16667   0.00000  Uiso   1.00
O177   O     0.22774   0.53821   0.16667   0.00000  Uiso   1.00
O178   O     0.10559   0.46179   0.16666   0.00000  Uiso   1.00
O179   O     0.16667   0.53821   0.09511   0.00000  Uiso   1.00
O180   O     0.16666   0.46179   0.23822   0.00000  Uiso   1.00
O181   O     0.16666   0.53821   0.23822   0.00000  Uiso   1.00
O182   O     0.16667   0.46179   0.09511   0.00000  Uiso   1.00
Zn183  Zn    0.16667   0.55104   0.16667   0.00000  Uiso   1.00
Zn184  Zn    0.16667   0.44896   0.16667   0.00000  Uiso   1.00
N185   N     0.04655   0.46933   0.25213   0.00000  Uiso   1.00
H186   H     0.03826   0.48881   0.28303   0.00000  Uiso   1.00
H187   H     0.03921   0.43583   0.25955   0.00000  Uiso   1.00
N188   N     0.28677   0.53056   0.08109   0.00000  Uiso   1.00
H189   H     0.29414   0.56405   0.07363   0.00000  Uiso   1.00
H190   H     0.29501   0.51105   0.05020   0.00000  Uiso   1.00
N191   N     0.28938   0.46882   0.25216   0.00000  Uiso   1.00
H192   H     0.29733   0.48899   0.28274   0.00000  Uiso   1.00
H193   H     0.29832   0.43570   0.26028   0.00000  Uiso   1.00
N194   N     0.04393   0.53065   0.08086   0.00000  Uiso   1.00
H195   H     0.03498   0.56370   0.07239   0.00000  Uiso   1.00
H196   H     0.03598   0.51024   0.05050   0.00000  Uiso   1.00
N197   N     0.22277   0.38125   0.22790   0.00000  Uiso   1.00
H198   H     0.21765   0.37220   0.26516   0.00000  Uiso   1.00
H199   H     0.25342   0.37204   0.21850   0.00000  Uiso   1.00
N200   N     0.10713   0.62247   0.10751   0.00000  Uiso   1.00
H201   H     0.08546   0.60745   0.13102   0.00000  Uiso   1.00
H202   H     0.12076   0.59923   0.08356   0.00000  Uiso   1.00
N203   N     0.11062   0.38322   0.10567   0.00000  Uiso   1.00
H204   H     0.11530   0.37356   0.06853   0.00000  Uiso   1.00
H205   H     0.07999   0.37481   0.11553   0.00000  Uiso   1.00
N206   N     0.22295   0.61709   0.22769   0.00000  Uiso   1.00
H207   H     0.21785   0.62593   0.26497   0.00000  Uiso   1.00
H208   H     0.25360   0.62574   0.21827   0.00000  Uiso   1.00
C209   C     0.42022   0.50017   0.16654   0.00000  Uiso   1.00
C210   C     0.57978   0.49983   0.16674   0.00000  Uiso   1.00
C211   C     0.49994   0.50005   0.07296   0.00000  Uiso   1.00
C212   C     0.50006   0.49995   0.26037   0.00000  Uiso   1.00
C213   C     0.49997   0.50008   0.02182   0.00000  Uiso   1.00
C214   C     0.50002   0.49992   0.31152   0.00000  Uiso   1.00
C215   C     0.35579   0.48434   0.20928   0.00000  Uiso   1.00
C216   C     0.64420   0.51557   0.12394   0.00000  Uiso   1.00
C217   C     0.64550   0.48389   0.20921   0.00000  Uiso   1.00
C218   C     0.35449   0.51592   0.12396   0.00000  Uiso   1.00
C219   C     0.62394   0.49952   0.16654   0.00000  Uiso   1.00
C220   C     0.37606   0.50044   0.16670   0.00000  Uiso   1.00
C221   C     0.52752   0.35704   0.19656   0.00000  Uiso   1.00
C222   C     0.47201   0.64377   0.13734   0.00000  Uiso   1.00
C223   C     0.47259   0.35821   0.13696   0.00000  Uiso   1.00
C224   C     0.52763   0.64210   0.19643   0.00000  Uiso   1.00
N225   N     0.50000   0.61907   0.16667   0.00000  Uiso   1.00
N226   N     0.50000   0.38093   0.16667   0.00000  Uiso   1.00
O227   O     0.43892   0.53821   0.16666   0.00000  Uiso   1.00
O228   O     0.56108   0.46179   0.16667   0.00000  Uiso   1.00
O229   O     0.56108   0.53821   0.16667   0.00000  Uiso   1.00
O230   O     0.43892   0.46179   0.16666   0.00000  Uiso   1.00
O231   O     0.50000   0.53821   0.09511   0.00000  Uiso   1.00
O232   O     0.50000   0.46179   0.23822   0.00000  Uiso   1.00
O233   O     0.50000   0.53821   0.23822   0.00000  Uiso   1.00
O234   O     0.50000   0.46179   0.09511   0.00000  Uiso   1.00
Zn235  Zn    0.50000   0.55104   0.16667   0.00000  Uiso   1.00
Zn236  Zn    0.50000   0.44896   0.16667   0.00000  Uiso   1.00
N237   N     0.37988   0.46933   0.25213   0.00000  Uiso   1.00
H238   H     0.37160   0.48881   0.28303   0.00000  Uiso   1.00
H239   H     0.37254   0.43583   0.25955   0.00000  Uiso   1.00
N240   N     0.62010   0.53056   0.08109   0.00000  Uiso   1.00
H241   H     0.62747   0.56405   0.07363   0.00000  Uiso   1.00
H242   H     0.62835   0.51105   0.05020   0.00000  Uiso   1.00
N243   N     0.62272   0.46882   0.25216   0.00000  Uiso   1.00
H244   H     0.63066   0.48899   0.28274   0.00000  Uiso   1.00
H245   H     0.63165   0.43570   0.26028   0.00000  Uiso   1.00
N246   N     0.37726   0.53065   0.08086   0.00000  Uiso   1.00
H247   H     0.36831   0.56370   0.07239   0.00000  Uiso   1.00
H248   H     0.36931   0.51024   0.05050   0.00000  Uiso   1.00
N249   N     0.55611   0.38125   0.22790   0.00000  Uiso   1.00
H250   H     0.55098   0.37220   0.26516   0.00000  Uiso   1.00
H251   H     0.58676   0.37204   0.21850   0.00000  Uiso   1.00
N252   N     0.44046   0.62247   0.10751   0.00000  Uiso   1.00
H253   H     0.41879   0.60745   0.13102   0.00000  Uiso   1.00
H254   H     0.45409   0.59923   0.08356   0.00000  Uiso   1.00
N255   N     0.44395   0.38322   0.10567   0.00000  Uiso   1.00
H256   H     0.44863   0.37356   0.06853   0.00000  Uiso   1.00
H257   H     0.41333   0.37481   0.11553   0.00000  Uiso   1.00
N258   N     0.55628   0.61709   0.22769   0.00000  Uiso   1.00
H259   H     0.55118   0.62593   0.26497   0.00000  Uiso   1.00
H260   H     0.58693   0.62574   0.21827   0.00000  Uiso   1.00
C261   C     0.75355   0.50017   0.16654   0.00000  Uiso   1.00
C262   C     0.91311   0.49983   0.16674   0.00000  Uiso   1.00
C263   C     0.83327   0.50005   0.07296   0.00000  Uiso   1.00
C264   C     0.83340   0.49995   0.26037   0.00000  Uiso   1.00
C265   C     0.83331   0.50008   0.02182   0.00000  Uiso   1.00
C266   C     0.83335   0.49992   0.31152   0.00000  Uiso   1.00
C267   C     0.68912   0.48434   0.20928   0.00000  Uiso   1.00
C268   C     0.97754   0.51557   0.12394   0.00000  Uiso   1.00
C269   C     0.97884   0.48389   0.20921   0.00000  Uiso   1.00
C270   C     0.68782   0.51592   0.12396   0.00000  Uiso   1.00
C271   C     0.95727   0.49952   0.16654   0.00000  Uiso   1.00
C272   C     0.70939   0.50044   0.16670   0.00000  Uiso   1.00
C273   C     0.86085   0.35704   0.19656   0.00000  Uiso   1.00
C274   C     0.80534   0.64377   0.13734   0.00000  Uiso   1.00
C275   C     0.80592   0.35821   0.13696   0.00000  Uiso   1.00
C276   C     0.86097   0.64210   0.19643   0.00000  Uiso   1.00
N277   N     0.83333   0.61907   0.16667   0.00000  Uiso   1.00
N278   N     0.83333   0.38093   0.16667   0.00000  Uiso   1.00
O279   O     0.77226   0.53821   0.16666   0.00000  Uiso   1.00
O280   O     0.89441   0.46179   0.16667   0.00000  Uiso   1.00
O281   O     0.89441   0.53821   0.16667   0.00000  Uiso   1.00
O282   O     0.77226   0.46179   0.16666   0.00000  Uiso   1.00
O283   O     0.83334   0.53821   0.09511   0.00000  Uiso   1.00
O284   O     0.83333   0.46179   0.23822   0.00000  Uiso   1.00
O285   O     0.83333   0.53821   0.23822   0.00000  Uiso   1.00
O286   O     0.83334   0.46179   0.09511   0.00000  Uiso   1.00
Zn287  Zn    0.83333   0.55104   0.16667   0.00000  Uiso   1.00
Zn288  Zn    0.83333   0.44896   0.16667   0.00000  Uiso   1.00
N289   N     0.71321   0.46933   0.25213   0.00000  Uiso   1.00
H290   H     0.70493   0.48881   0.28303   0.00000  Uiso   1.00
H291   H     0.70588   0.43583   0.25955   0.00000  Uiso   1.00
N292   N     0.95344   0.53056   0.08109   0.00000  Uiso   1.00
H293   H     0.96080   0.56405   0.07363   0.00000  Uiso   1.00
H294   H     0.96168   0.51105   0.05020   0.00000  Uiso   1.00
N295   N     0.95605   0.46882   0.25216   0.00000  Uiso   1.00
H296   H     0.96400   0.48899   0.28274   0.00000  Uiso   1.00
H297   H     0.96499   0.43570   0.26028   0.00000  Uiso   1.00
N298   N     0.71060   0.53065   0.08086   0.00000  Uiso   1.00
H299   H     0.70164   0.56370   0.07239   0.00000  Uiso   1.00
H300   H     0.70264   0.51024   0.05050   0.00000  Uiso   1.00
N301   N     0.88944   0.38125   0.22790   0.00000  Uiso   1.00
H302   H     0.88431   0.37220   0.26516   0.00000  Uiso   1.00
H303   H     0.92009   0.37204   0.21850   0.00000  Uiso   1.00
N304   N     0.77380   0.62247   0.10751   0.00000  Uiso   1.00
H305   H     0.75213   0.60745   0.13102   0.00000  Uiso   1.00
H306   H     0.78743   0.59923   0.08356   0.00000  Uiso   1.00
N307   N     0.77728   0.38322   0.10567   0.00000  Uiso   1.00
H308   H     0.78196   0.37356   0.06853   0.00000  Uiso   1.00
H309   H     0.74666   0.37481   0.11553   0.00000  Uiso   1.00
N310   N     0.88962   0.61709   0.22769   0.00000  Uiso   1.00
H311   H     0.88451   0.62593   0.26497   0.00000  Uiso   1.00
H312   H     0.92026   0.62574   0.21827   0.00000  Uiso   1.00
C313   C     0.08689   0.83350   0.16654   0.00000  Uiso   1.00
C314   C     0.24644   0.83316   0.16674   0.00000  Uiso   1.00
C315   C     0.16660   0.83339   0.07296   0.00000  Uiso   1.00
C316   C     0.16673   0.83328   0.26037   0.00000  Uiso   1.00
C317   C     0.16664   0.83341   0.02182   0.00000  Uiso   1.00
C318   C     0.16669   0.83326   0.31152   0.00000  Uiso   1.00
C319   C     0.02245   0.81767   0.20928   0.00000  Uiso   1.00
C320   C     0.31087   0.84890   0.12394   0.00000  Uiso   1.00
C321   C     0.31217   0.81722   0.20921   0.00000  Uiso   1.00
C322   C     0.02116   0.84925   0.12396   0.00000  Uiso   1.00
C323   C     0.29060   0.83285   0.16654   0.00000  Uiso   1.00
C324   C     0.04273   0.83377   0.16670   0.00000  Uiso   1.00
C325   C     0.19419   0.69038   0.19656   0.00000  Uiso   1.00
C326   C     0.13868   0.97711   0.13734   0.00000  Uiso   1.00
C327   C     0.13925   0.69154   0.13696   0.00000  Uiso   1.00
C328   C     0.19430   0.97543   0.19643   0.00000  Uiso   1.00
N329   N     0.16667   0.95240   0.16667   0.00000  Uiso   1.00
N330   N     0.16667   0.71427   0.16667   0.00000  Uiso   1.00
O331   O     0.10559   0.87154   0.16666   0.00000  Uiso   1.00
O332   O     0.22774   0.79513   0.16667   0.00000  Uiso   1.00
O333   O     0.22774   0.87154   0.16667   0.00000  Uiso   1.00
O334   O     0.10559   0.79513   0.16666   0.00000  Uiso   1.00
O335   O     0.16667   0.87155   0.09511   0.00000  Uiso   1.00
O336   O     0.16666   0.79512   0.23822   0.00000  Uiso   1.00
O337   O     0.16666   0.87155   0.23822   0.00000  Uiso   1.00
O338   O     0.16667   0.79512   0.09511   0.00000  Uiso   1.00
Zn339  Zn    0.16667   0.88437   0.16667   0.00000  Uiso   1.00
Zn340  Zn    0.16667   0.78229   0.16667   0.00000  Uiso   1.00
N341   N     0.04655   0.80266   0.25213   0.00000  Uiso   1.00
H342   H     0.03826   0.82215   0.28303   0.00000  Uiso   1.00
H343   H     0.03921   0.76917   0.25955   0.00000  Uiso   1.00
N344   N     0.28677   0.86390   0.08109   0.00000  Uiso   1.00
H345   H     0.29414   0.89738   0.07363   0.00000  Uiso   1.00
H346   H     0.29501   0.84438   0.05020   0.00000  Uiso   1.00
N347   N     0.28938   0.80215   0.25216   0.00000  Uiso   1.00
H348   H     0.29733   0.82232   0.28274   0.00000  Uiso   1.00
H349   H     0.29832   0.76903   0.26028   0.00000  Uiso   1.00
N350   N     0.04393   0.86399   0.08086   0.00000  Uiso   1.00
H351   H     0.03498   0.89704   0.07239   0.00000  Uiso   1.00
H352   H     0.03598   0.84357   0.05050   0.00000  Uiso   1.00
N353   N     0.22277   0.71458   0.22790   0.00000  Uiso   1.00
H354   H     0.21765   0.70554   0.26516   0.00000  Uiso   1.00
H355   H     0.25342   0.70538   0.21850   0.00000  Uiso   1.00
N356   N     0.10713   0.95581   0.10751   0.00000  Uiso   1.00
H357   H     0.08546   0.94078   0.13102   0.00000  Uiso   1.00
H358   H     0.12076   0.93257   0.08356   0.00000  Uiso   1.00
N359   N     0.11062   0.71656   0.10567   0.00000  Uiso   1.00
H360   H     0.11530   0.70690   0.06853   0.00000  Uiso   1.00
H361   H     0.07999   0.70814   0.11553   0.00000  Uiso   1.00
N362   N     0.22295   0.95042   0.22769   0.00000  Uiso   1.00
H363   H     0.21785   0.95926   0.26497   0.00000  Uiso   1.00
H364   H     0.25360   0.95908   0.21827   0.00000  Uiso   1.00
C365   C     0.42022   0.83350   0.16654   0.00000  Uiso   1.00
C366   C     0.57978   0.83316   0.16674   0.00000  Uiso   1.00
C367   C     0.49994   0.83339   0.07296   0.00000  Uiso   1.00
C368   C     0.50006   0.83328   0.26037   0.00000  Uiso   1.00
C369   C     0.49997   0.83341   0.02182   0.00000  Uiso   1.00
C370   C     0.50002   0.83326   0.31152   0.00000  Uiso   1.00
C371   C     0.35579   0.81767   0.20928   0.00000  Uiso   1.00
C372   C     0.64420   0.84890   0.12394   0.00000  Uiso   1.00
C373   C     0.64550   0.81722   0.20921   0.00000  Uiso   1.00
C374   C     0.35449   0.84925   0.12396   0.00000  Uiso   1.00
C375   C     0.62394   0.83285   0.16654   0.00000  Uiso   1.00
C376   C     0.37606   0.83377   0.16670   0.00000  Uiso   1.00
C377   C     0.52752   0.69038   0.19656   0.00000  Uiso   1.00
C378   C     0.47201   0.97711   0.13734   0.00000  Uiso   1.00
C379   C     0.47259   0.69154   0.13696   0.00000  Uiso   1.00
C380   C     0.52763   0.97543   0.19643   0.00000  Uiso   1.00
N381   N     0.50000   0.95240   0.16667   0.00000  Uiso   1.00
N382   N     0.50000   0.71427   0.16667   0.00000  Uiso   1.00
O383   O     0.43892   0.87154   0.16666   0.00000  Uiso   1.00
O384   O     0.56108   0.79513   0.16667   0.00000  Uiso   1.00
O385   O     0.56108   0.87154   0.16667   0.00000  Uiso   1.00
O386   O     0.43892   0.79513   0.16666   0.00000  Uiso   1.00
O387   O     0.50000   0.87155   0.09511   0.00000  Uiso   1.00
O388   O     0.50000   0.79512   0.23822   0.00000  Uiso   1.00
O389   O     0.50000   0.87155   0.23822   0.00000  Uiso   1.00
O390   O     0.50000   0.79512   0.09511   0.00000  Uiso   1.00
Zn391  Zn    0.50000   0.88437   0.16667   0.00000  Uiso   1.00
Zn392  Zn    0.50000   0.78229   0.16667   0.00000  Uiso   1.00
N393   N     0.37988   0.80266   0.25213   0.00000  Uiso   1.00
H394   H     0.37160   0.82215   0.28303   0.00000  Uiso   1.00
H395   H     0.37254   0.76917   0.25955   0.00000  Uiso   1.00
N396   N     0.62010   0.86390   0.08109   0.00000  Uiso   1.00
H397   H     0.62747   0.89738   0.07363   0.00000  Uiso   1.00
H398   H     0.62835   0.84438   0.05020   0.00000  Uiso   1.00
N399   N     0.62272   0.80215   0.25216   0.00000  Uiso   1.00
H400   H     0.63066   0.82232   0.28274   0.00000  Uiso   1.00
H401   H     0.63165   0.76903   0.26028   0.00000  Uiso   1.00
N402   N     0.37726   0.86399   0.08086   0.00000  Uiso   1.00
H403   H     0.36831   0.89704   0.07239   0.00000  Uiso   1.00
H404   H     0.36931   0.84357   0.05050   0.00000  Uiso   1.00
N405   N     0.55611   0.71458   0.22790   0.00000  Uiso   1.00
H406   H     0.55098   0.70554   0.26516   0.00000  Uiso   1.00
H407   H     0.58676   0.70538   0.21850   0.00000  Uiso   1.00
N408   N     0.44046   0.95581   0.10751   0.00000  Uiso   1.00
H409   H     0.41879   0.94078   0.13102   0.00000  Uiso   1.00
H410   H     0.45409   0.93257   0.08356   0.00000  Uiso   1.00
N411   N     0.44395   0.71656   0.10567   0.00000  Uiso   1.00
H412   H     0.44863   0.70690   0.06853   0.00000  Uiso   1.00
H413   H     0.41333   0.70814   0.11553   0.00000  Uiso   1.00
N414   N     0.55628   0.95042   0.22769   0.00000  Uiso   1.00
H415   H     0.55118   0.95926   0.26497   0.00000  Uiso   1.00
H416   H     0.58693   0.95908   0.21827   0.00000  Uiso   1.00
C417   C     0.75355   0.83350   0.16654   0.00000  Uiso   1.00
C418   C     0.91311   0.83316   0.16674   0.00000  Uiso   1.00
C419   C     0.83327   0.83339   0.07296   0.00000  Uiso   1.00
C420   C     0.83340   0.83328   0.26037   0.00000  Uiso   1.00
C421   C     0.83331   0.83341   0.02182   0.00000  Uiso   1.00
C422   C     0.83335   0.83326   0.31152   0.00000  Uiso   1.00
C423   C     0.68912   0.81767   0.20928   0.00000  Uiso   1.00
C424   C     0.97754   0.84890   0.12394   0.00000  Uiso   1.00
C425   C     0.97884   0.81722   0.20921   0.00000  Uiso   1.00
C426   C     0.68782   0.84925   0.12396   0.00000  Uiso   1.00
C427   C     0.95727   0.83285   0.16654   0.00000  Uiso   1.00
C428   C     0.70939   0.83377   0.16670   0.00000  Uiso   1.00
C429   C     0.86085   0.69038   0.19656   0.00000  Uiso   1.00
C430   C     0.80534   0.97711   0.13734   0.00000  Uiso   1.00
C431   C     0.80592   0.69154   0.13696   0.00000  Uiso   1.00
C432   C     0.86097   0.97543   0.19643   0.00000  Uiso   1.00
N433   N     0.83333   0.95240   0.16667   0.00000  Uiso   1.00
N434   N     0.83333   0.71427   0.16667   0.00000  Uiso   1.00
O435   O     0.77226   0.87154   0.16666   0.00000  Uiso   1.00
O436   O     0.89441   0.79513   0.16667   0.00000  Uiso   1.00
O437   O     0.89441   0.87154   0.16667   0.00000  Uiso   1.00
O438   O     0.77226   0.79513   0.16666   0.00000  Uiso   1.00
O439   O     0.83334   0.87155   0.09511   0.00000  Uiso   1.00
O440   O     0.83333   0.79512   0.23822   0.00000  Uiso   1.00
O441   O     0.83333   0.87155   0.23822   0.00000  Uiso   1.00
O442   O     0.83334   0.79512   0.09511   0.00000  Uiso   1.00
Zn443  Zn    0.83333   0.88437   0.16667   0.00000  Uiso   1.00
Zn444  Zn    0.83333   0.78229   0.16667   0.00000  Uiso   1.00
N445   N     0.71321   0.80266   0.25213   0.00000  Uiso   1.00
H446   H     0.70493   0.82215   0.28303   0.00000  Uiso   1.00
H447   H     0.70588   0.76917   0.25955   0.00000  Uiso   1.00
N448   N     0.95344   0.86390   0.08109   0.00000  Uiso   1.00
H449   H     0.96080   0.89738   0.07363   0.00000  Uiso   1.00
H450   H     0.96168   0.84438   0.05020   0.00000  Uiso   1.00
N451   N     0.95605   0.80215   0.25216   0.00000  Uiso   1.00
H452   H     0.96400   0.82232   0.28274   0.00000  Uiso   1.00
H453   H     0.96499   0.76903   0.26028   0.00000  Uiso   1.00
N454   N     0.71060   0.86399   0.08086   0.00000  Uiso   1.00
H455   H     0.70164   0.89704   0.07239   0.00000  Uiso   1.00
H456   H     0.70264   0.84357   0.05050   0.00000  Uiso   1.00
N457   N     0.88944   0.71458   0.22790   0.00000  Uiso   1.00
H458   H     0.88431   0.70554   0.26516   0.00000  Uiso   1.00
H459   H     0.92009   0.70538   0.21850   0.00000  Uiso   1.00
N460   N     0.77380   0.95581   0.10751   0.00000  Uiso   1.00
H461   H     0.75213   0.94078   0.13102   0.00000  Uiso   1.00
H462   H     0.78743   0.93257   0.08356   0.00000  Uiso   1.00
N463   N     0.77728   0.71656   0.10567   0.00000  Uiso   1.00
H464   H     0.78196   0.70690   0.06853   0.00000  Uiso   1.00
H465   H     0.74666   0.70814   0.11553   0.00000  Uiso   1.00
N466   N     0.88962   0.95042   0.22769   0.00000  Uiso   1.00
H467   H     0.88451   0.95926   0.26497   0.00000  Uiso   1.00
H468   H     0.92026   0.95908   0.21827   0.00000  Uiso   1.00
C469   C     0.08689   0.16684   0.49987   0.00000  Uiso   1.00
C470   C     0.24644   0.16649   0.50008   0.00000  Uiso   1.00
C471   C     0.16660   0.16672   0.40630   0.00000  Uiso   1.00
C472   C     0.16673   0.16661   0.59370   0.00000  Uiso   1.00
C473   C     0.16664   0.16674   0.35515   0.00000  Uiso   1.00
C474   C     0.16669   0.16659   0.64485   0.00000  Uiso   1.00
C475   C     0.02245   0.15100   0.54261   0.00000  Uiso   1.00
C476   C     0.31087   0.18223   0.45727   0.00000  Uiso   1.00
C477   C     0.31217   0.15056   0.54254   0.00000  Uiso   1.00
C478   C     0.02116   0.18259   0.45730   0.00000  Uiso   1.00
C479   C     0.29060   0.16619   0.49988   0.00000  Uiso   1.00
C480   C     0.04273   0.16710   0.50003   0.00000  Uiso   1.00
C481   C     0.19419   0.02371   0.52989   0.00000  Uiso   1.00
C482   C     0.13868   0.31044   0.47067   0.00000  Uiso   1.00
C483   C     0.13925   0.02487   0.47030   0.00000  Uiso   1.00
C484   C     0.19430   0.30876   0.52976   0.00000  Uiso   1.00
N485   N     0.16667   0.28573   0.50000   0.00000  Uiso   1.00
N486   N     0.16667   0.04760   0.50000   0.00000  Uiso   1.00
O487   O     0.10559   0.20487   0.50000   0.00000  Uiso   1.00
O488   O     0.22774   0.12846   0.50000   0.00000  Uiso   1.00
O489   O     0.22774   0.20487   0.50000   0.00000  Uiso   1.00
O490   O     0.10559   0.12846   0.50000   0.00000  Uiso   1.00
O491   O     0.16667   0.20488   0.42845   0.00000  Uiso   1.00
O492   O     0.16666   0.12845   0.57155   0.00000  Uiso   1.00
O493   O     0.16666   0.20488   0.57155   0.00000  Uiso   1.00
O494   O     0.16667   0.12845   0.42845   0.00000  Uiso   1.00
Zn495  Zn    0.16667   0.21771   0.50000   0.00000  Uiso   1.00
Zn496  Zn    0.16667   0.11563   0.50000   0.00000  Uiso   1.00
N497   N     0.04655   0.13600   0.58547   0.00000  Uiso   1.00
H498   H     0.03826   0.15548   0.61636   0.00000  Uiso   1.00
H499   H     0.03921   0.10250   0.59289   0.00000  Uiso   1.00
N500   N     0.28677   0.19723   0.41442   0.00000  Uiso   1.00
H501   H     0.29414   0.23071   0.40697   0.00000  Uiso   1.00
H502   H     0.29501   0.17771   0.38354   0.00000  Uiso   1.00
N503   N     0.28938   0.13549   0.58549   0.00000  Uiso   1.00
H504   H     0.29733   0.15565   0.61607   0.00000  Uiso   1.00
H505   H     0.29832   0.10236   0.59362   0.00000  Uiso   1.00
N506   N     0.04393   0.19732   0.41419   0.00000  Uiso   1.00
H507   H     0.03498   0.23037   0.40572   0.00000  Uiso   1.00
H508   H     0.03598   0.17690   0.38383   0.00000  Uiso   1.00
N509   N     0.22277   0.04792   0.56123   0.00000  Uiso   1.00
H510   H     0.21765   0.03887   0.59849   0.00000  Uiso   1.00
H511   H     0.25342   0.03871   0.55183   0.00000  Uiso   1.00
N512   N     0.10713   0.28914   0.44084   0.00000  Uiso   1.00
H513   H     0.08546   0.27412   0.46435   0.00000  Uiso   1.00
H514   H     0.12076   0.26590   0.41689   0.00000  Uiso   1.00
N515   N     0.11062   0.04989   0.43900   0.00000  Uiso   1.00
H516   H     0.11530   0.04023   0.40186   0.00000  Uiso   1.00
H517   H     0.07999   0.04148   0.44886   0.00000  Uiso   1.00
N518   N     0.22295   0.28375   0.56102   0.00000  Uiso   1.00
H519   H     0.21785   0.29260   0.59831   0.00000  Uiso   1.00
H520   H     0.25360   0.29241   0.55161   0.00000  Uiso   1.00
C521   C     0.42022   0.16684   0.49987   0.00000  Uiso   1.00
C522   C     0.57978   0.16649   0.50008   0.00000  Uiso   1.00
C523   C     0.49994   0.16672   0.40630   0.00000  Uiso   1.00
C524   C     0.50006   0.16661   0.59370   0.00000  Uiso   1.00
C525   C     0.49997   0.16674   0.35515   0.00000  Uiso   1.00
C526   C     0.50002   0.16659   0.64485   0.00000  Uiso   1.00
C527   C     0.35579   0.15100   0.54261   0.00000  Uiso   1.00
C528   C     0.64420   0.18223   0.45727   0.00000  Uiso   1.00
C529   C     0.64550   0.15056   0.54254   0.00000  Uiso   1.00
C530   C     0.35449   0.18259   0.45730   0.00000  Uiso   1.00
C531   C     0.62394   0.16619   0.49988   0.00000  Uiso   1.00
C532   C     0.37606   0.16710   0.50003   0.00000  Uiso   1.00
C533   C     0.52752   0.02371   0.52989   0.00000  Uiso   1.00
C534   C     0.47201   0.31044   0.47067   0.00000  Uiso   1.00
C535   C     0.47259   0.02487   0.47030   0.00000  Uiso   1.00
C536   C     0.52763   0.30876   0.52976   0.00000  Uiso   1.00
N537   N     0.50000   0.28573   0.50000   0.00000  Uiso   1.00
N538   N     0.50000   0.04760   0.50000   0.00000  Uiso   1.00
O539   O     0.43892   0.20487   0.50000   0.00000  Uiso   1.00
O540   O     0.56108   0.12846   0.50000   0.00000  Uiso   1.00
O541   O     0.56108   0.20487   0.50000   0.00000  Uiso   1.00
O542   O     0.43892   0.12846   0.50000   0.00000  Uiso   1.00
O543   O     0.50000   0.20488   0.42845   0.00000  Uiso   1.00
O544   O     0.50000   0.12845   0.57155   0.00000  Uiso   1.00
O545   O     0.50000   0.20488   0.57155   0.00000  Uiso   1.00
O546   O     0.50000   0.12845   0.42845   0.00000  Uiso   1.00
Zn547  Zn    0.50000   0.21771   0.50000   0.00000  Uiso   1.00
Zn548  Zn    0.50000   0.11563   0.50000   0.00000  Uiso   1.00
N549   N     0.37988   0.13600   0.58547   0.00000  Uiso   1.00
H550   H     0.37160   0.15548   0.61636   0.00000  Uiso   1.00
H551   H     0.37254   0.10250   0.59289   0.00000  Uiso   1.00
N552   N     0.62010   0.19723   0.41442   0.00000  Uiso   1.00
H553   H     0.62747   0.23071   0.40697   0.00000  Uiso   1.00
H554   H     0.62835   0.17771   0.38354   0.00000  Uiso   1.00
N555   N     0.62272   0.13549   0.58549   0.00000  Uiso   1.00
H556   H     0.63066   0.15565   0.61607   0.00000  Uiso   1.00
H557   H     0.63165   0.10236   0.59362   0.00000  Uiso   1.00
N558   N     0.37726   0.19732   0.41419   0.00000  Uiso   1.00
H559   H     0.36831   0.23037   0.40572   0.00000  Uiso   1.00
H560   H     0.36931   0.17690   0.38383   0.00000  Uiso   1.00
N561   N     0.55611   0.04792   0.56123   0.00000  Uiso   1.00
H562   H     0.55098   0.03887   0.59849   0.00000  Uiso   1.00
H563   H     0.58676   0.03871   0.55183   0.00000  Uiso   1.00
N564   N     0.44046   0.28914   0.44084   0.00000  Uiso   1.00
H565   H     0.41879   0.27412   0.46435   0.00000  Uiso   1.00
H566   H     0.45409   0.26590   0.41689   0.00000  Uiso   1.00
N567   N     0.44395   0.04989   0.43900   0.00000  Uiso   1.00
H568   H     0.44863   0.04023   0.40186   0.00000  Uiso   1.00
H569   H     0.41333   0.04148   0.44886   0.00000  Uiso   1.00
N570   N     0.55628   0.28375   0.56102   0.00000  Uiso   1.00
H571   H     0.55118   0.29260   0.59831   0.00000  Uiso   1.00
H572   H     0.58693   0.29241   0.55161   0.00000  Uiso   1.00
C573   C     0.75355   0.16684   0.49987   0.00000  Uiso   1.00
C574   C     0.91311   0.16649   0.50008   0.00000  Uiso   1.00
C575   C     0.83327   0.16672   0.40630   0.00000  Uiso   1.00
C576   C     0.83340   0.16661   0.59370   0.00000  Uiso   1.00
C577   C     0.83331   0.16674   0.35515   0.00000  Uiso   1.00
C578   C     0.83335   0.16659   0.64485   0.00000  Uiso   1.00
C579   C     0.68912   0.15100   0.54261   0.00000  Uiso   1.00
C580   C     0.97754   0.18223   0.45727   0.00000  Uiso   1.00
C581   C     0.97884   0.15056   0.54254   0.00000  Uiso   1.00
C582   C     0.68782   0.18259   0.45730   0.00000  Uiso   1.00
C583   C     0.95727   0.16619   0.49988   0.00000  Uiso   1.00
C584   C     0.70939   0.16710   0.50003   0.00000  Uiso   1.00
C585   C     0.86085   0.02371   0.52989   0.00000  Uiso   1.00
C586   C     0.80534   0.31044   0.47067   0.00000  Uiso   1.00
C587   C     0.80592   0.02487   0.47030   0.00000  Uiso   1.00
C588   C     0.86097   0.30876   0.52976   0.00000  Uiso   1.00
N589   N     0.83333   0.28573   0.50000   0.00000  Uiso   1.00
N590   N     0.83333   0.04760   0.50000   0.00000  Uiso   1.00
O591   O     0.77226   0.20487   0.50000   0.00000  Uiso   1.00
O592   O     0.89441   0.12846   0.50000   0.00000  Uiso   1.00
O593   O     0.89441   0.20487   0.50000   0.00000  Uiso   1.00
O594   O     0.77226   0.12846   0.50000   0.00000  Uiso   1.00
O595   O     0.83334   0.20488   0.42845   0.00000  Uiso   1.00
O596   O     0.83333   0.12845   0.57155   0.00000  Uiso   1.00
O597   O     0.83333   0.20488   0.57155   0.00000  Uiso   1.00
O598   O     0.83334   0.12845   0.42845   0.00000  Uiso   1.00
Zn599  Zn    0.83333   0.21771   0.50000   0.00000  Uiso   1.00
Zn600  Zn    0.83333   0.11563   0.50000   0.00000  Uiso   1.00
N601   N     0.71321   0.13600   0.58547   0.00000  Uiso   1.00
H602   H     0.70493   0.15548   0.61636   0.00000  Uiso   1.00
H603   H     0.70588   0.10250   0.59289   0.00000  Uiso   1.00
N604   N     0.95344   0.19723   0.41442   0.00000  Uiso   1.00
H605   H     0.96080   0.23071   0.40697   0.00000  Uiso   1.00
H606   H     0.96168   0.17771   0.38354   0.00000  Uiso   1.00
N607   N     0.95605   0.13549   0.58549   0.00000  Uiso   1.00
H608   H     0.96400   0.15565   0.61607   0.00000  Uiso   1.00
H609   H     0.96499   0.10236   0.59362   0.00000  Uiso   1.00
N610   N     0.71060   0.19732   0.41419   0.00000  Uiso   1.00
H611   H     0.70164   0.23037   0.40572   0.00000  Uiso   1.00
H612   H     0.70264   0.17690   0.38383   0.00000  Uiso   1.00
N613   N     0.88944   0.04792   0.56123   0.00000  Uiso   1.00
H614   H     0.88431   0.03887   0.59849   0.00000  Uiso   1.00
H615   H     0.92009   0.03871   0.55183   0.00000  Uiso   1.00
N616   N     0.77380   0.28914   0.44084   0.00000  Uiso   1.00
H617   H     0.75213   0.27412   0.46435   0.00000  Uiso   1.00
H618   H     0.78743   0.26590   0.41689   0.00000  Uiso   1.00
N619   N     0.77728   0.04989   0.43900   0.00000  Uiso   1.00
H620   H     0.78196   0.04023   0.40186   0.00000  Uiso   1.00
H621   H     0.74666   0.04148   0.44886   0.00000  Uiso   1.00
N622   N     0.88962   0.28375   0.56102   0.00000  Uiso   1.00
H623   H     0.88451   0.29260   0.59831   0.00000  Uiso   1.00
H624   H     0.92026   0.29241   0.55161   0.00000  Uiso   1.00
C625   C     0.08689   0.50017   0.49987   0.00000  Uiso   1.00
C626   C     0.24644   0.49983   0.50008   0.00000  Uiso   1.00
C627   C     0.16660   0.50005   0.40630   0.00000  Uiso   1.00
C628   C     0.16673   0.49995   0.59370   0.00000  Uiso   1.00
C629   C     0.16664   0.50008   0.35515   0.00000  Uiso   1.00
C630   C     0.16669   0.49992   0.64485   0.00000  Uiso   1.00
C631   C     0.02245   0.48434   0.54261   0.00000  Uiso   1.00
C632   C     0.31087   0.51557   0.45727   0.00000  Uiso   1.00
C633   C     0.31217   0.48389   0.54254   0.00000  Uiso   1.00
C634   C     0.02116   0.51592   0.45730   0.00000  Uiso   1.00
C635   C     0.29060   0.49952   0.49988   0.00000  Uiso   1.00
C636   C     0.04273   0.50044   0.50003   0.00000  Uiso   1.00
C637   C     0.19419   0.35704   0.52989   0.00000  Uiso   1.00
C638   C     0.13868   0.64377   0.47067   0.00000  Uiso   1.00
C639   C     0.13925   0.35821   0.47030   0.00000  Uiso   1.00
C640   C     0.19430   0.64210   0.52976   0.00000  Uiso   1.00
N641   N     0.16667   0.61907   0.50000   0.00000  Uiso   1.00
N642   N     0.16667   0.38093   0.50000   0.00000  Uiso   1.00
O643   O     0.10559   0.53821   0.50000   0.00000  Uiso   1.00
O644   O     0.22774   0.46179   0.50000   0.00000  Uiso   1.00
O645   O     0.22774   0.53821   0.50000   0.00000  Uiso   1.00
O646   O     0.10559   0.46179   0.50000   0.00000  Uiso   1.00
O647   O     0.16667   0.53821   0.42845   0.00000  Uiso   1.00
O648   O     0.16666   0.46179   0.57155   0.00000  Uiso   1.00
O649   O     0.16666   0.53821   0.57155   0.00000  Uiso   1.00
O650   O     0.16667   0.46179   0.42845   0.00000  Uiso   1.00
Zn651  Zn    0.16667   0.55104   0.50000   0.00000  Uiso   1.00
Zn652  Zn    0.16667   0.44896   0.50000   0.00000  Uiso   1.00
N653   N     0.04655   0.46933   0.58547   0.00000  Uiso   1.00
H654   H     0.03826   0.48881   0.61636   0.00000  Uiso   1.00
H655   H     0.03921   0.43583   0.59289   0.00000  Uiso   1.00
N656   N     0.28677   0.53056   0.41442   0.00000  Uiso   1.00
H657   H     0.29414   0.56405   0.40697   0.00000  Uiso   1.00
H658   H     0.29501   0.51105   0.38354   0.00000  Uiso   1.00
N659   N     0.28938   0.46882   0.58549   0.00000  Uiso   1.00
H660   H     0.29733   0.48899   0.61607   0.00000  Uiso   1.00
H661   H     0.29832   0.43570   0.59362   0.00000  Uiso   1.00
N662   N     0.04393   0.53065   0.41419   0.00000  Uiso   1.00
H663   H     0.03498   0.56370   0.40572   0.00000  Uiso   1.00
H664   H     0.03598   0.51024   0.38383   0.00000  Uiso   1.00
N665   N     0.22277   0.38125   0.56123   0.00000  Uiso   1.00
H666   H     0.21765   0.37220   0.59849   0.00000  Uiso   1.00
H667   H     0.25342   0.37204   0.55183   0.00000  Uiso   1.00
N668   N     0.10713   0.62247   0.44084   0.00000  Uiso   1.00
H669   H     0.08546   0.60745   0.46435   0.00000  Uiso   1.00
H670   H     0.12076   0.59923   0.41689   0.00000  Uiso   1.00
N671   N     0.11062   0.38322   0.43900   0.00000  Uiso   1.00
H672   H     0.11530   0.37356   0.40186   0.00000  Uiso   1.00
H673   H     0.07999   0.37481   0.44886   0.00000  Uiso   1.00
N674   N     0.22295   0.61709   0.56102   0.00000  Uiso   1.00
H675   H     0.21785   0.62593   0.59831   0.00000  Uiso   1.00
H676   H     0.25360   0.62574   0.55161   0.00000  Uiso   1.00
C677   C     0.42022   0.50017   0.49987   0.00000  Uiso   1.00
C678   C     0.57978   0.49983   0.50008   0.00000  Uiso   1.00
C679   C     0.49994   0.50005   0.40630   0.00000  Uiso   1.00
C680   C     0.50006   0.49995   0.59370   0.00000  Uiso   1.00
C681   C     0.49997   0.50008   0.35515   0.00000  Uiso   1.00
C682   C     0.50002   0.49992   0.64485   0.00000  Uiso   1.00
C683   C     0.35579   0.48434   0.54261   0.00000  Uiso   1.00
C684   C     0.64420   0.51557   0.45727   0.00000  Uiso   1.00
C685   C     0.64550   0.48389   0.54254   0.00000  Uiso   1.00
C686   C     0.35449   0.51592   0.45730   0.00000  Uiso   1.00
C687   C     0.62394   0.49952   0.49988   0.00000  Uiso   1.00
C688   C     0.37606   0.50044   0.50003   0.00000  Uiso   1.00
C689   C     0.52752   0.35704   0.52989   0.00000  Uiso   1.00
C690   C     0.47201   0.64377   0.47067   0.00000  Uiso   1.00
C691   C     0.47259   0.35821   0.47030   0.00000  Uiso   1.00
C692   C     0.52763   0.64210   0.52976   0.00000  Uiso   1.00
N693   N     0.50000   0.61907   0.50000   0.00000  Uiso   1.00
N694   N     0.50000   0.38093   0.50000   0.00000  Uiso   1.00
O695   O     0.43892   0.53821   0.50000   0.00000  Uiso   1.00
O696   O     0.56108   0.46179   0.50000   0.00000  Uiso   1.00
O697   O     0.56108   0.53821   0.50000   0.00000  Uiso   1.00
O698   O     0.43892   0.46179   0.50000   0.00000  Uiso   1.00
O699   O     0.50000   0.53821   0.42845   0.00000  Uiso   1.00
O700   O     0.50000   0.46179   0.57155   0.00000  Uiso   1.00
O701   O     0.50000   0.53821   0.57155   0.00000  Uiso   1.00
O702   O     0.50000   0.46179   0.42845   0.00000  Uiso   1.00
Zn703  Zn    0.50000   0.55104   0.50000   0.00000  Uiso   1.00
Zn704  Zn    0.50000   0.44896   0.50000   0.00000  Uiso   1.00
N705   N     0.37988   0.46933   0.58547   0.00000  Uiso   1.00
H706   H     0.37160   0.48881   0.61636   0.00000  Uiso   1.00
H707   H     0.37254   0.43583   0.59289   0.00000  Uiso   1.00
N708   N     0.62010   0.53056   0.41442   0.00000  Uiso   1.00
H709   H     0.62747   0.56405   0.40697   0.00000  Uiso   1.00
H710   H     0.62835   0.51105   0.38354   0.00000  Uiso   1.00
N711   N     0.62272   0.46882   0.58549   0.00000  Uiso   1.00
H712   H     0.63066   0.48899   0.61607   0.00000  Uiso   1.00
H713   H     0.63165   0.43570   0.59362   0.00000  Uiso   1.00
N714   N     0.37726   0.53065   0.41419   0.00000  Uiso   1.00
H715   H     0.36831   0.56370   0.40572   0.00000  Uiso   1.00
H716   H     0.36931   0.51024   0.38383   0.00000  Uiso   1.00
N717   N     0.55611   0.38125   0.56123   0.00000  Uiso   1.00
H718   H     0.55098   0.37220   0.59849   0.00000  Uiso   1.00
H719   H     0.58676   0.37204   0.55183   0.00000  Uiso   1.00
N720   N     0.44046   0.62247   0.44084   0.00000  Uiso   1.00
H721   H     0.41879   0.60745   0.46435   0.00000  Uiso   1.00
H722   H     0.45409   0.59923   0.41689   0.00000  Uiso   1.00
N723   N     0.44395   0.38322   0.43900   0.00000  Uiso   1.00
H724   H     0.44863   0.37356   0.40186   0.00000  Uiso   1.00
H725   H     0.41333   0.37481   0.44886   0.00000  Uiso   1.00
N726   N     0.55628   0.61709   0.56102   0.00000  Uiso   1.00
H727   H     0.55118   0.62593   0.59831   0.00000  Uiso   1.00
H728   H     0.58693   0.62574   0.55161   0.00000  Uiso   1.00
C729   C     0.75355   0.50017   0.49987   0.00000  Uiso   1.00
C730   C     0.91311   0.49983   0.50008   0.00000  Uiso   1.00
C731   C     0.83327   0.50005   0.40630   0.00000  Uiso   1.00
C732   C     0.83340   0.49995   0.59370   0.00000  Uiso   1.00
C733   C     0.83331   0.50008   0.35515   0.00000  Uiso   1.00
C734   C     0.83335   0.49992   0.64485   0.00000  Uiso   1.00
C735   C     0.68912   0.48434   0.54261   0.00000  Uiso   1.00
C736   C     0.97754   0.51557   0.45727   0.00000  Uiso   1.00
C737   C     0.97884   0.48389   0.54254   0.00000  Uiso   1.00
C738   C     0.68782   0.51592   0.45730   0.00000  Uiso   1.00
C739   C     0.95727   0.49952   0.49988   0.00000  Uiso   1.00
C740   C     0.70939   0.50044   0.50003   0.00000  Uiso   1.00
C741   C     0.86085   0.35704   0.52989   0.00000  Uiso   1.00
C742   C     0.80534   0.64377   0.47067   0.00000  Uiso   1.00
C743   C     0.80592   0.35821   0.47030   0.00000  Uiso   1.00
C744   C     0.86097   0.64210   0.52976   0.00000  Uiso   1.00
N745   N     0.83333   0.61907   0.50000   0.00000  Uiso   1.00
N746   N     0.83333   0.38093   0.50000   0.00000  Uiso   1.00
O747   O     0.77226   0.53821   0.50000   0.00000  Uiso   1.00
O748   O     0.89441   0.46179   0.50000   0.00000  Uiso   1.00
O749   O     0.89441   0.53821   0.50000   0.00000  Uiso   1.00
O750   O     0.77226   0.46179   0.50000   0.00000  Uiso   1.00
O751   O     0.83334   0.53821   0.42845   0.00000  Uiso   1.00
O752   O     0.83333   0.46179   0.57155   0.00000  Uiso   1.00
O753   O     0.83333   0.53821   0.57155   0.00000  Uiso   1.00
O754   O     0.83334   0.46179   0.42845   0.00000  Uiso   1.00
Zn755  Zn    0.83333   0.55104   0.50000   0.00000  Uiso   1.00
Zn756  Zn    0.83333   0.44896   0.50000   0.00000  Uiso   1.00
N757   N     0.71321   0.46933   0.58547   0.00000  Uiso   1.00
H758   H     0.70493   0.48881   0.61636   0.00000  Uiso   1.00
H759   H     0.70588   0.43583   0.59289   0.00000  Uiso   1.00
N760   N     0.95344   0.53056   0.41442   0.00000  Uiso   1.00
H761   H     0.96080   0.56405   0.40697   0.00000  Uiso   1.00
H762   H     0.96168   0.51105   0.38354   0.00000  Uiso   1.00
N763   N     0.95605   0.46882   0.58549   0.00000  Uiso   1.00
H764   H     0.96400   0.48899   0.61607   0.00000  Uiso   1.00
H765   H     0.96499   0.43570   0.59362   0.00000  Uiso   1.00
N766   N     0.71060   0.53065   0.41419   0.00000  Uiso   1.00
H767   H     0.70164   0.56370   0.40572   0.00000  Uiso   1.00
H768   H     0.70264   0.51024   0.38383   0.00000  Uiso   1.00
N769   N     0.88944   0.38125   0.56123   0.00000  Uiso   1.00
H770   H     0.88431   0.37220   0.59849   0.00000  Uiso   1.00
H771   H     0.92009   0.37204   0.55183   0.00000  Uiso   1.00
N772   N     0.77380   0.62247   0.44084   0.00000  Uiso   1.00
H773   H     0.75213   0.60745   0.46435   0.00000  Uiso   1.00
H774   H     0.78743   0.59923   0.41689   0.00000  Uiso   1.00
N775   N     0.77728   0.38322   0.43900   0.00000  Uiso   1.00
H776   H     0.78196   0.37356   0.40186   0.00000  Uiso   1.00
H777   H     0.74666   0.37481   0.44886   0.00000  Uiso   1.00
N778   N     0.88962   0.61709   0.56102   0.00000  Uiso   1.00
H779   H     0.88451   0.62593   0.59831   0.00000  Uiso   1.00
H780   H     0.92026   0.62574   0.55161   0.00000  Uiso   1.00
C781   C     0.08689   0.83350   0.49987   0.00000  Uiso   1.00
C782   C     0.24644   0.83316   0.50008   0.00000  Uiso   1.00
C783   C     0.16660   0.83339   0.40630   0.00000  Uiso   1.00
C784   C     0.16673   0.83328   0.59370   0.00000  Uiso   1.00
C785   C     0.16664   0.83341   0.35515   0.00000  Uiso   1.00
C786   C     0.16669   0.83326   0.64485   0.00000  Uiso   1.00
C787   C     0.02245   0.81767   0.54261   0.00000  Uiso   1.00
C788   C     0.31087   0.84890   0.45727   0.00000  Uiso   1.00
C789   C     0.31217   0.81722   0.54254   0.00000  Uiso   1.00
C790   C     0.02116   0.84925   0.45730   0.00000  Uiso   1.00
C791   C     0.29060   0.83285   0.49988   0.00000  Uiso   1.00
C792   C     0.04273   0.83377   0.50003   0.00000  Uiso   1.00
C793   C     0.19419   0.69038   0.52989   0.00000  Uiso   1.00
C794   C     0.13868   0.97711   0.47067   0.00000  Uiso   1.00
C795   C     0.13925   0.69154   0.47030   0.00000  Uiso   1.00
C796   C     0.19430   0.97543   0.52976   0.00000  Uiso   1.00
N797   N     0.16667   0.95240   0.50000   0.00000  Uiso   1.00
N798   N     0.16667   0.71427   0.50000   0.00000  Uiso   1.00
O799   O     0.10559   0.87154   0.50000   0.00000  Uiso   1.00
O800   O     0.22774   0.79513   0.50000   0.00000  Uiso   1.00
O801   O     0.22774   0.87154   0.50000   0.00000  Uiso   1.00
O802   O     0.10559   0.79513   0.50000   0.00000  Uiso   1.00
O803   O     0.16667   0.87155   0.42845   0.00000  Uiso   1.00
O804   O     0.16666   0.79512   0.57155   0.00000  Uiso   1.00
O805   O     0.16666   0.87155   0.57155   0.00000  Uiso   1.00
O806   O     0.16667   0.79512   0.42845   0.00000  Uiso   1.00
Zn807  Zn    0.16667   0.88437   0.50000   0.00000  Uiso   1.00
Zn808  Zn    0.16667   0.78229   0.50000   0.00000  Uiso   1.00
N809   N     0.04655   0.80266   0.58547   0.00000  Uiso   1.00
H810   H     0.03826   0.82215   0.61636   0.00000  Uiso   1.00
H811   H     0.03921   0.76917   0.59289   0.00000  Uiso   1.00
N812   N     0.28677   0.86390   0.41442   0.00000  Uiso   1.00
H813   H     0.29414   0.89738   0.40697   0.00000  Uiso   1.00
H814   H     0.29501   0.84438   0.38354   0.00000  Uiso   1.00
N815   N     0.28938   0.80215   0.58549   0.00000  Uiso   1.00
H816   H     0.29733   0.82232   0.61607   0.00000  Uiso   1.00
H817   H     0.29832   0.76903   0.59362   0.00000  Uiso   1.00
N818   N     0.04393   0.86399   0.41419   0.00000  Uiso   1.00
H819   H     0.03498   0.89704   0.40572   0.00000  Uiso   1.00
H820   H     0.03598   0.84357   0.38383   0.00000  Uiso   1.00
N821   N     0.22277   0.71458   0.56123   0.00000  Uiso   1.00
H822   H     0.21765   0.70554   0.59849   0.00000  Uiso   1.00
H823   H     0.25342   0.70538   0.55183   0.00000  Uiso   1.00
N824   N     0.10713   0.95581   0.44084   0.00000  Uiso   1.00
H825   H     0.08546   0.94078   0.46435   0.00000  Uiso   1.00
H826   H     0.12076   0.93257   0.41689   0.00000  Uiso   1.00
N827   N     0.11062   0.71656   0.43900   0.00000  Uiso   1.00
H828   H     0.11530   0.70690   0.40186   0.00000  Uiso   1.00
H829   H     0.07999   0.70814   0.44886   0.00000  Uiso   1.00
N830   N     0.22295   0.95042   0.56102   0.00000  Uiso   1.00
H831   H     0.21785   0.95926   0.59831   0.00000  Uiso   1.00
H832   H     0.25360   0.95908   0.55161   0.00000  Uiso   1.00
C833   C     0.42022   0.83350   0.49987   0.00000  Uiso   1.00
C834   C     0.57978   0.83316   0.50008   0.00000  Uiso   1.00
C835   C     0.49994   0.83339   0.40630   0.00000  Uiso   1.00
C836   C     0.50006   0.83328   0.59370   0.00000  Uiso   1.00
C837   C     0.49997   0.83341   0.35515   0.00000  Uiso   1.00
C838   C     0.50002   0.83326   0.64485   0.00000  Uiso   1.00
C839   C     0.35579   0.81767   0.54261   0.00000  Uiso   1.00
C840   C     0.64420   0.84890   0.45727   0.00000  Uiso   1.00
C841   C     0.64550   0.81722   0.54254   0.00000  Uiso   1.00
C842   C     0.35449   0.84925   0.45730   0.00000  Uiso   1.00
C843   C     0.62394   0.83285   0.49988   0.00000  Uiso   1.00
C844   C     0.37606   0.83377   0.50003   0.00000  Uiso   1.00
C845   C     0.52752   0.69038   0.52989   0.00000  Uiso   1.00
C846   C     0.47201   0.97711   0.47067   0.00000  Uiso   1.00
C847   C     0.47259   0.69154   0.47030   0.00000  Uiso   1.00
C848   C     0.52763   0.97543   0.52976   0.00000  Uiso   1.00
N849   N     0.50000   0.95240   0.50000   0.00000  Uiso   1.00
N850   N     0.50000   0.71427   0.50000   0.00000  Uiso   1.00
O851   O     0.43892   0.87154   0.50000   0.00000  Uiso   1.00
O852   O     0.56108   0.79513   0.50000   0.00000  Uiso   1.00
O853   O     0.56108   0.87154   0.50000   0.00000  Uiso   1.00
O854   O     0.43892   0.79513   0.50000   0.00000  Uiso   1.00
O855   O     0.50000   0.87155   0.42845   0.00000  Uiso   1.00
O856   O     0.50000   0.79512   0.57155   0.00000  Uiso   1.00
O857   O     0.50000   0.87155   0.57155   0.00000  Uiso   1.00
O858   O     0.50000   0.79512   0.42845   0.00000  Uiso   1.00
Zn859  Zn    0.50000   0.88437   0.50000   0.00000  Uiso   1.00
Zn860  Zn    0.50000   0.78229   0.50000   0.00000  Uiso   1.00
N861   N     0.37988   0.80266   0.58547   0.00000  Uiso   1.00
H862   H     0.37160   0.82215   0.61636   0.00000  Uiso   1.00
H863   H     0.37254   0.76917   0.59289   0.00000  Uiso   1.00
N864   N     0.62010   0.86390   0.41442   0.00000  Uiso   1.00
H865   H     0.62747   0.89738   0.40697   0.00000  Uiso   1.00
H866   H     0.62835   0.84438   0.38354   0.00000  Uiso   1.00
N867   N     0.62272   0.80215   0.58549   0.00000  Uiso   1.00
H868   H     0.63066   0.82232   0.61607   0.00000  Uiso   1.00
H869   H     0.63165   0.76903   0.59362   0.00000  Uiso   1.00
N870   N     0.37726   0.86399   0.41419   0.00000  Uiso   1.00
H871   H     0.36831   0.89704   0.40572   0.00000  Uiso   1.00
H872   H     0.36931   0.84357   0.38383   0.00000  Uiso   1.00
N873   N     0.55611   0.71458   0.56123   0.00000  Uiso   1.00
H874   H     0.55098   0.70554   0.59849   0.00000  Uiso   1.00
H875   H     0.58676   0.70538   0.55183   0.00000  Uiso   1.00
N876   N     0.44046   0.95581   0.44084   0.00000  Uiso   1.00
H877   H     0.41879   0.94078   0.46435   0.00000  Uiso   1.00
H878   H     0.45409   0.93257   0.41689   0.00000  Uiso   1.00
N879   N     0.44395   0.71656   0.43900   0.00000  Uiso   1.00
H880   H     0.44863   0.70690   0.40186   0.00000  Uiso   1.00
H881   H     0.41333   0.70814   0.44886   0.00000  Uiso   1.00
N882   N     0.55628   0.95042   0.56102   0.00000  Uiso   1.00
H883   H     0.55118   0.95926   0.59831   0.00000  Uiso   1.00
H884   H     0.58693   0.95908   0.55161   0.00000  Uiso   1.00
C885   C     0.75355   0.83350   0.49987   0.00000  Uiso   1.00
C886   C     0.91311   0.83316   0.50008   0.00000  Uiso   1.00
C887   C     0.83327   0.83339   0.40630   0.00000  Uiso   1.00
C888   C     0.83340   0.83328   0.59370   0.00000  Uiso   1.00
C889   C     0.83331   0.83341   0.35515   0.00000  Uiso   1.00
C890   C     0.83335   0.83326   0.64485   0.00000  Uiso   1.00
C891   C     0.68912   0.81767   0.54261   0.00000  Uiso   1.00
C892   C     0.97754   0.84890   0.45727   0.00000  Uiso   1.00
C893   C     0.97884   0.81722   0.54254   0.00000  Uiso   1.00
C894   C     0.68782   0.84925   0.45730   0.00000  Uiso   1.00
C895   C     0.95727   0.83285   0.49988   0.00000  Uiso   1.00
C896   C     0.70939   0.83377   0.50003   0.00000  Uiso   1.00
C897   C     0.86085   0.69038   0.52989   0.00000  Uiso   1.00
C898   C     0.80534   0.97711   0.47067   0.00000  Uiso   1.00
C899   C     0.80592   0.69154   0.47030   0.00000  Uiso   1.00
C900   C     0.86097   0.97543   0.52976   0.00000  Uiso   1.00
N901   N     0.83333   0.95240   0.50000   0.00000  Uiso   1.00
N902   N     0.83333   0.71427   0.50000   0.00000  Uiso   1.00
O903   O     0.77226   0.87154   0.50000   0.00000  Uiso   1.00
O904   O     0.89441   0.79513   0.50000   0.00000  Uiso   1.00
O905   O     0.89441   0.87154   0.50000   0.00000  Uiso   1.00
O906   O     0.77226   0.79513   0.50000   0.00000  Uiso   1.00
O907   O     0.83334   0.87155   0.42845   0.00000  Uiso   1.00
O908   O     0.83333   0.79512   0.57155   0.00000  Uiso   1.00
O909   O     0.83333   0.87155   0.57155   0.00000  Uiso   1.00
O910   O     0.83334   0.79512   0.42845   0.00000  Uiso   1.00
Zn911  Zn    0.83333   0.88437   0.50000   0.00000  Uiso   1.00
Zn912  Zn    0.83333   0.78229   0.50000   0.00000  Uiso   1.00
N913   N     0.71321   0.80266   0.58547   0.00000  Uiso   1.00
H914   H     0.70493   0.82215   0.61636   0.00000  Uiso   1.00
H915   H     0.70588   0.76917   0.59289   0.00000  Uiso   1.00
N916   N     0.95344   0.86390   0.41442   0.00000  Uiso   1.00
H917   H     0.96080   0.89738   0.40697   0.00000  Uiso   1.00
H918   H     0.96168   0.84438   0.38354   0.00000  Uiso   1.00
N919   N     0.95605   0.80215   0.58549   0.00000  Uiso   1.00
H920   H     0.96400   0.82232   0.61607   0.00000  Uiso   1.00
H921   H     0.96499   0.76903   0.59362   0.00000  Uiso   1.00
N922   N     0.71060   0.86399   0.41419   0.00000  Uiso   1.00
H923   H     0.70164   0.89704   0.40572   0.00000  Uiso   1.00
H924   H     0.70264   0.84357   0.38383   0.00000  Uiso   1.00
N925   N     0.88944   0.71458   0.56123   0.00000  Uiso   1.00
H926   H     0.88431   0.70554   0.59849   0.00000  Uiso   1.00
H927   H     0.92009   0.70538   0.55183   0.00000  Uiso   1.00
N928   N     0.77380   0.95581   0.44084   0.00000  Uiso   1.00
H929   H     0.75213   0.94078   0.46435   0.00000  Uiso   1.00
H930   H     0.78743   0.93257   0.41689   0.00000  Uiso   1.00
N931   N     0.77728   0.71656   0.43900   0.00000  Uiso   1.00
H932   H     0.78196   0.70690   0.40186   0.00000  Uiso   1.00
H933   H     0.74666   0.70814   0.44886   0.00000  Uiso   1.00
N934   N     0.88962   0.95042   0.56102   0.00000  Uiso   1.00
H935   H     0.88451   0.95926   0.59831   0.00000  Uiso   1.00
H936   H     0.92026   0.95908   0.55161   0.00000  Uiso   1.00
C937   C     0.08689   0.16684   0.83321   0.00000  Uiso   1.00
C938   C     0.24644   0.16649   0.83341   0.00000  Uiso   1.00
C939   C     0.16660   0.16672   0.73963   0.00000  Uiso   1.00
C940   C     0.16673   0.16661   0.92704   0.00000  Uiso   1.00
C941   C     0.16664   0.16674   0.68849   0.00000  Uiso   1.00
C942   C     0.16669   0.16659   0.97818   0.00000  Uiso   1.00
C943   C     0.02245   0.15100   0.87595   0.00000  Uiso   1.00
C944   C     0.31087   0.18223   0.79061   0.00000  Uiso   1.00
C945   C     0.31217   0.15056   0.87588   0.00000  Uiso   1.00
C946   C     0.02116   0.18259   0.79063   0.00000  Uiso   1.00
C947   C     0.29060   0.16619   0.83321   0.00000  Uiso   1.00
C948   C     0.04273   0.16710   0.83337   0.00000  Uiso   1.00
C949   C     0.19419   0.02371   0.86322   0.00000  Uiso   1.00
C950   C     0.13868   0.31044   0.80401   0.00000  Uiso   1.00
C951   C     0.13925   0.02487   0.80363   0.00000  Uiso   1.00
C952   C     0.19430   0.30876   0.86309   0.00000  Uiso   1.00
N953   N     0.16667   0.28573   0.83333   0.00000  Uiso   1.00
N954   N     0.16667   0.04760   0.83333   0.00000  Uiso   1.00
O955   O     0.10559   0.20487   0.83333   0.00000  Uiso   1.00
O956   O     0.22774   0.12846   0.83334   0.00000  Uiso   1.00
O957   O     0.22774   0.20487   0.83334   0.00000  Uiso   1.00
O958   O     0.10559   0.12846   0.83333   0.00000  Uiso   1.00
O959   O     0.16667   0.20488   0.76178   0.00000  Uiso   1.00
O960   O     0.16666   0.12845   0.90489   0.00000  Uiso   1.00
O961   O     0.16666   0.20488   0.90489   0.00000  Uiso   1.00
O962   O     0.16667   0.12845   0.76178   0.00000  Uiso   1.00
Zn963  Zn    0.16667   0.21771   0.83333   0.00000  Uiso   1.00
Zn964  Zn    0.16667   0.11563   0.83333   0.00000  Uiso   1.00
N965   N     0.04655   0.13600   0.91880   0.00000  Uiso   1.00
H966   H     0.03826   0.15548   0.94970   0.00000  Uiso   1.00
H967   H     0.03921   0.10250   0.92622   0.00000  Uiso   1.00
N968   N     0.28677   0.19723   0.74776   0.00000  Uiso   1.00
H969   H     0.29414   0.23071   0.74030   0.00000  Uiso   1.00
H970   H     0.29501   0.17771   0.71687   0.00000  Uiso   1.00
N971   N     0.28938   0.13549   0.91883   0.00000  Uiso   1.00
H972   H     0.29733   0.15565   0.94940   0.00000  Uiso   1.00
H973   H     0.29832   0.10236   0.92695   0.00000  Uiso   1.00
N974   N     0.04393   0.19732   0.74753   0.00000  Uiso   1.00
H975   H     0.03498   0.23037   0.73905   0.00000  Uiso   1.00
H976   H     0.03598   0.17690   0.71717   0.00000  Uiso   1.00
N977   N     0.22277   0.04792   0.89456   0.00000  Uiso   1.00
H978   H     0.21765   0.03887   0.93183   0.00000  Uiso   1.00
H979   H     0.25342   0.03871   0.88516   0.00000  Uiso   1.00
N980   N     0.10713   0.28914   0.77417   0.00000  Uiso   1.00
H981   H     0.08546   0.27412   0.79769   0.00000  Uiso   1.00
H982   H     0.12076   0.26590   0.75022   0.00000  Uiso   1.00
N983   N     0.11062   0.04989   0.77234   0.00000  Uiso   1.00
H984   H     0.11530   0.04023   0.73520   0.00000  Uiso   1.00
H985   H     0.07999   0.04148   0.78219   0.00000  Uiso   1.00
N986   N     0.22295   0.28375   0.89435   0.00000  Uiso   1.00
H987   H     0.21785   0.29260   0.93164   0.00000  Uiso   1.00
H988   H     0.25360   0.29241   0.88494   0.00000  Uiso   1.00
C989   C     0.42022   0.16684   0.83321   0.00000  Uiso   1.00
C990   C     0.57978   0.16649   0.83341   0.00000  Uiso   1.00
C991   C     0.49994   0.16672   0.73963   0.00000  Uiso   1.00
C992   C     0.50006   0.16661   0.92704   0.00000  Uiso   1.00
C993   C     0.49997   0.16674   0.68849   0.00000  Uiso   1.00
C994   C     0.50002   0.16659   0.97818   0.00000  Uiso   1.00
C995   C     0.35579   0.15100   0.87595   0.00000  Uiso   1.00
C996   C     0.64420   0.18223   0.79061   0.00000  Uiso   1.00
C997   C     0.64550   0.15056   0.87588   0.00000  Uiso   1.00
C998   C     0.35449   0.18259   0.79063   0.00000  Uiso   1.00
C999   C     0.62394   0.16619   0.83321   0.00000  Uiso   1.00
C1000  C     0.37606   0.16710   0.83337   0.00000  Uiso   1.00
C1001  C     0.52752   0.02371   0.86322   0.00000  Uiso   1.00
C1002  C     0.47201   0.31044   0.80401   0.00000  Uiso   1.00
C1003  C     0.47259   0.02487   0.80363   0.00000  Uiso   1.00
C1004  C     0.52763   0.30876   0.86309   0.00000  Uiso   1.00
N1005  N     0.50000   0.28573   0.83333   0.00000  Uiso   1.00
N1006  N     0.50000   0.04760   0.83333   0.00000  Uiso   1.00
O1007  O     0.43892   0.20487   0.83333   0.00000  Uiso   1.00
O1008  O     0.56108   0.12846   0.83334   0.00000  Uiso   1.00
O1009  O     0.56108   0.20487   0.83334   0.00000  Uiso   1.00
O1010  O     0.43892   0.12846   0.83333   0.00000  Uiso   1.00
O1011  O     0.50000   0.20488   0.76178   0.00000  Uiso   1.00
O1012  O     0.50000   0.12845   0.90489   0.00000  Uiso   1.00
O1013  O     0.50000   0.20488   0.90489   0.00000  Uiso   1.00
O1014  O     0.50000   0.12845   0.76178   0.00000  Uiso   1.00
Zn1015 Zn    0.50000   0.21771   0.83333   0.00000  Uiso   1.00
Zn1016 Zn    0.50000   0.11563   0.83333   0.00000  Uiso   1.00
N1017  N     0.37988   0.13600   0.91880   0.00000  Uiso   1.00
H1018  H     0.37160   0.15548   0.94970   0.00000  Uiso   1.00
H1019  H     0.37254   0.10250   0.92622   0.00000  Uiso   1.00
N1020  N     0.62010   0.19723   0.74776   0.00000  Uiso   1.00
H1021  H     0.62747   0.23071   0.74030   0.00000  Uiso   1.00
H1022  H     0.62835   0.17771   0.71687   0.00000  Uiso   1.00
N1023  N     0.62272   0.13549   0.91883   0.00000  Uiso   1.00
H1024  H     0.63066   0.15565   0.94940   0.00000  Uiso   1.00
H1025  H     0.63165   0.10236   0.92695   0.00000  Uiso   1.00
N1026  N     0.37726   0.19732   0.74753   0.00000  Uiso   1.00
H1027  H     0.36831   0.23037   0.73905   0.00000  Uiso   1.00
H1028  H     0.36931   0.17690   0.71717   0.00000  Uiso   1.00
N1029  N     0.55611   0.04792   0.89456   0.00000  Uiso   1.00
H1030  H     0.55098   0.03887   0.93183   0.00000  Uiso   1.00
H1031  H     0.58676   0.03871   0.88516   0.00000  Uiso   1.00
N1032  N     0.44046   0.28914   0.77417   0.00000  Uiso   1.00
H1033  H     0.41879   0.27412   0.79769   0.00000  Uiso   1.00
H1034  H     0.45409   0.26590   0.75022   0.00000  Uiso   1.00
N1035  N     0.44395   0.04989   0.77234   0.00000  Uiso   1.00
H1036  H     0.44863   0.04023   0.73520   0.00000  Uiso   1.00
H1037  H     0.41333   0.04148   0.78219   0.00000  Uiso   1.00
N1038  N     0.55628   0.28375   0.89435   0.00000  Uiso   1.00
H1039  H     0.55118   0.29260   0.93164   0.00000  Uiso   1.00
H1040  H     0.58693   0.29241   0.88494   0.00000  Uiso   1.00
C1041  C     0.75355   0.16684   0.83321   0.00000  Uiso   1.00
C1042  C     0.91311   0.16649   0.83341   0.00000  Uiso   1.00
C1043  C     0.83327   0.16672   0.73963   0.00000  Uiso   1.00
C1044  C     0.83340   0.16661   0.92704   0.00000  Uiso   1.00
C1045  C     0.83331   0.16674   0.68849   0.00000  Uiso   1.00
C1046  C     0.83335   0.16659   0.97818   0.00000  Uiso   1.00
C1047  C     0.68912   0.15100   0.87595   0.00000  Uiso   1.00
C1048  C     0.97754   0.18223   0.79061   0.00000  Uiso   1.00
C1049  C     0.97884   0.15056   0.87588   0.00000  Uiso   1.00
C1050  C     0.68782   0.18259   0.79063   0.00000  Uiso   1.00
C1051  C     0.95727   0.16619   0.83321   0.00000  Uiso   1.00
C1052  C     0.70939   0.16710   0.83337   0.00000  Uiso   1.00
C1053  C     0.86085   0.02371   0.86322   0.00000  Uiso   1.00
C1054  C     0.80534   0.31044   0.80401   0.00000  Uiso   1.00
C1055  C     0.80592   0.02487   0.80363   0.00000  Uiso   1.00
C1056  C     0.86097   0.30876   0.86309   0.00000  Uiso   1.00
N1057  N     0.83333   0.28573   0.83333   0.00000  Uiso   1.00
N1058  N     0.83333   0.04760   0.83333   0.00000  Uiso   1.00
O1059  O     0.77226   0.20487   0.83333   0.00000  Uiso   1.00
O1060  O     0.89441   0.12846   0.83334   0.00000  Uiso   1.00
O1061  O     0.89441   0.20487   0.83334   0.00000  Uiso   1.00
O1062  O     0.77226   0.12846   0.83333   0.00000  Uiso   1.00
O1063  O     0.83334   0.20488   0.76178   0.00000  Uiso   1.00
O1064  O     0.83333   0.12845   0.90489   0.00000  Uiso   1.00
O1065  O     0.83333   0.20488   0.90489   0.00000  Uiso   1.00
O1066  O     0.83334   0.12845   0.76178   0.00000  Uiso   1.00
Zn1067 Zn    0.83333   0.21771   0.83333   0.00000  Uiso   1.00
Zn1068 Zn    0.83333   0.11563   0.83333   0.00000  Uiso   1.00
N1069  N     0.71321   0.13600   0.91880   0.00000  Uiso   1.00
H1070  H     0.70493   0.15548   0.94970   0.00000  Uiso   1.00
H1071  H     0.70588   0.10250   0.92622   0.00000  Uiso   1.00
N1072  N     0.95344   0.19723   0.74776   0.00000  Uiso   1.00
H1073  H     0.96080   0.23071   0.74030   0.00000  Uiso   1.00
H1074  H     0.96168   0.17771   0.71687   0.00000  Uiso   1.00
N1075  N     0.95605   0.13549   0.91883   0.00000  Uiso   1.00
H1076  H     0.96400   0.15565   0.94940   0.00000  Uiso   1.00
H1077  H     0.96499   0.10236   0.92695   0.00000  Uiso   1.00
N1078  N     0.71060   0.19732   0.74753   0.00000  Uiso   1.00
H1079  H     0.70164   0.23037   0.73905   0.00000  Uiso   1.00
H1080  H     0.70264   0.17690   0.71717   0.00000  Uiso   1.00
N1081  N     0.88944   0.04792   0.89456   0.00000  Uiso   1.00
H1082  H     0.88431   0.03887   0.93183   0.00000  Uiso   1.00
H1083  H     0.92009   0.03871   0.88516   0.00000  Uiso   1.00
N1084  N     0.77380   0.28914   0.77417   0.00000  Uiso   1.00
H1085  H     0.75213   0.27412   0.79769   0.00000  Uiso   1.00
H1086  H     0.78743   0.26590   0.75022   0.00000  Uiso   1.00
N1087  N     0.77728   0.04989   0.77234   0.00000  Uiso   1.00
H1088  H     0.78196   0.04023   0.73520   0.00000  Uiso   1.00
H1089  H     0.74666   0.04148   0.78219   0.00000  Uiso   1.00
N1090  N     0.88962   0.28375   0.89435   0.00000  Uiso   1.00
H1091  H     0.88451   0.29260   0.93164   0.00000  Uiso   1.00
H1092  H     0.92026   0.29241   0.88494   0.00000  Uiso   1.00
C1093  C     0.08689   0.50017   0.83321   0.00000  Uiso   1.00
C1094  C     0.24644   0.49983   0.83341   0.00000  Uiso   1.00
C1095  C     0.16660   0.50005   0.73963   0.00000  Uiso   1.00
C1096  C     0.16673   0.49995   0.92704   0.00000  Uiso   1.00
C1097  C     0.16664   0.50008   0.68849   0.00000  Uiso   1.00
C1098  C     0.16669   0.49992   0.97818   0.00000  Uiso   1.00
C1099  C     0.02245   0.48434   0.87595   0.00000  Uiso   1.00
C1100  C     0.31087   0.51557   0.79061   0.00000  Uiso   1.00
C1101  C     0.31217   0.48389   0.87588   0.00000  Uiso   1.00
C1102  C     0.02116   0.51592   0.79063   0.00000  Uiso   1.00
C1103  C     0.29060   0.49952   0.83321   0.00000  Uiso   1.00
C1104  C     0.04273   0.50044   0.83337   0.00000  Uiso   1.00
C1105  C     0.19419   0.35704   0.86322   0.00000  Uiso   1.00
C1106  C     0.13868   0.64377   0.80401   0.00000  Uiso   1.00
C1107  C     0.13925   0.35821   0.80363   0.00000  Uiso   1.00
C1108  C     0.19430   0.64210   0.86309   0.00000  Uiso   1.00
N1109  N     0.16667   0.61907   0.83333   0.00000  Uiso   1.00
N1110  N     0.16667   0.38093   0.83333   0.00000  Uiso   1.00
O1111  O     0.10559   0.53821   0.83333   0.00000  Uiso   1.00
O1112  O     0.22774   0.46179   0.83334   0.00000  Uiso   1.00
O1113  O     0.22774   0.53821   0.83334   0.00000  Uiso   1.00
O1114  O     0.10559   0.46179   0.83333   0.00000  Uiso   1.00
O1115  O     0.16667   0.53821   0.76178   0.00000  Uiso   1.00
O1116  O     0.16666   0.46179   0.90489   0.00000  Uiso   1.00
O1117  O     0.16666   0.53821   0.90489   0.00000  Uiso   1.00
O1118  O     0.16667   0.46179   0.76178   0.00000  Uiso   1.00
Zn1119 Zn    0.16667   0.55104   0.83333   0.00000  Uiso   1.00
Zn1120 Zn    0.16667   0.44896   0.83333   0.00000  Uiso   1.00
N1121  N     0.04655   0.46933   0.91880   0.00000  Uiso   1.00
H1122  H     0.03826   0.48881   0.94970   0.00000  Uiso   1.00
H1123  H     0.03921   0.43583   0.92622   0.00000  Uiso   1.00
N1124  N     0.28677   0.53056   0.74776   0.00000  Uiso   1.00
H1125  H     0.29414   0.56405   0.74030   0.00000  Uiso   1.00
H1126  H     0.29501   0.51105   0.71687   0.00000  Uiso   1.00
N1127  N     0.28938   0.46882   0.91883   0.00000  Uiso   1.00
H1128  H     0.29733   0.48899   0.94940   0.00000  Uiso   1.00
H1129  H     0.29832   0.43570   0.92695   0.00000  Uiso   1.00
N1130  N     0.04393   0.53065   0.74753   0.00000  Uiso   1.00
H1131  H     0.03498   0.56370   0.73905   0.00000  Uiso   1.00
H1132  H     0.03598   0.51024   0.71717   0.00000  Uiso   1.00
N1133  N     0.22277   0.38125   0.89456   0.00000  Uiso   1.00
H1134  H     0.21765   0.37220   0.93183   0.00000  Uiso   1.00
H1135  H     0.25342   0.37204   0.88516   0.00000  Uiso   1.00
N1136  N     0.10713   0.62247   0.77417   0.00000  Uiso   1.00
H1137  H     0.08546   0.60745   0.79769   0.00000  Uiso   1.00
H1138  H     0.12076   0.59923   0.75022   0.00000  Uiso   1.00
N1139  N     0.11062   0.38322   0.77234   0.00000  Uiso   1.00
H1140  H     0.11530   0.37356   0.73520   0.00000  Uiso   1.00
H1141  H     0.07999   0.37481   0.78219   0.00000  Uiso   1.00
N1142  N     0.22295   0.61709   0.89435   0.00000  Uiso   1.00
H1143  H     0.21785   0.62593   0.93164   0.00000  Uiso   1.00
H1144  H     0.25360   0.62574   0.88494   0.00000  Uiso   1.00
C1145  C     0.42022   0.50017   0.83321   0.00000  Uiso   1.00
C1146  C     0.57978   0.49983   0.83341   0.00000  Uiso   1.00
C1147  C     0.49994   0.50005   0.73963   0.00000  Uiso   1.00
C1148  C     0.50006   0.49995   0.92704   0.00000  Uiso   1.00
C1149  C     0.49997   0.50008   0.68849   0.00000  Uiso   1.00
C1150  C     0.50002   0.49992   0.97818   0.00000  Uiso   1.00
C1151  C     0.35579   0.48434   0.87595   0.00000  Uiso   1.00
C1152  C     0.64420   0.51557   0.79061   0.00000  Uiso   1.00
C1153  C     0.64550   0.48389   0.87588   0.00000  Uiso   1.00
C1154  C     0.35449   0.51592   0.79063   0.00000  Uiso   1.00
C1155  C     0.62394   0.49952   0.83321   0.00000  Uiso   1.00
C1156  C     0.37606   0.50044   0.83337   0.00000  Uiso   1.00
C1157  C     0.52752   0.35704   0.86322   0.00000  Uiso   1.00
C1158  C     0.47201   0.64377   0.80401   0.00000  Uiso   1.00
C1159  C     0.47259   0.35821   0.80363   0.00000  Uiso   1.00
C1160  C     0.52763   0.64210   0.86309   0.00000  Uiso   1.00
N1161  N     0.50000   0.61907   0.83333   0.00000  Uiso   1.00
N1162  N     0.50000   0.38093   0.83333   0.00000  Uiso   1.00
O1163  O     0.43892   0.53821   0.83333   0.00000  Uiso   1.00
O1164  O     0.56108   0.46179   0.83334   0.00000  Uiso   1.00
O1165  O     0.56108   0.53821   0.83334   0.00000  Uiso   1.00
O1166  O     0.43892   0.46179   0.83333   0.00000  Uiso   1.00
O1167  O     0.50000   0.53821   0.76178   0.00000  Uiso   1.00
O1168  O     0.50000   0.46179   0.90489   0.00000  Uiso   1.00
O1169  O     0.50000   0.53821   0.90489   0.00000  Uiso   1.00
O1170  O     0.50000   0.46179   0.76178   0.00000  Uiso   1.00
Zn1171 Zn    0.50000   0.55104   0.83333   0.00000  Uiso   1.00
Zn1172 Zn    0.50000   0.44896   0.83333   0.00000  Uiso   1.00
N1173  N     0.37988   0.46933   0.91880   0.00000  Uiso   1.00
H1174  H     0.37160   0.48881   0.94970   0.00000  Uiso   1.00
H1175  H     0.37254   0.43583   0.92622   0.00000  Uiso   1.00
N1176  N     0.62010   0.53056   0.74776   0.00000  Uiso   1.00
H1177  H     0.62747   0.56405   0.74030   0.00000  Uiso   1.00
H1178  H     0.62835   0.51105   0.71687   0.00000  Uiso   1.00
N1179  N     0.62272   0.46882   0.91883   0.00000  Uiso   1.00
H1180  H     0.63066   0.48899   0.94940   0.00000  Uiso   1.00
H1181  H     0.63165   0.43570   0.92695   0.00000  Uiso   1.00
N1182  N     0.37726   0.53065   0.74753   0.00000  Uiso   1.00
H1183  H     0.36831   0.56370   0.73905   0.00000  Uiso   1.00
H1184  H     0.36931   0.51024   0.71717   0.00000  Uiso   1.00
N1185  N     0.55611   0.38125   0.89456   0.00000  Uiso   1.00
H1186  H     0.55098   0.37220   0.93183   0.00000  Uiso   1.00
H1187  H     0.58676   0.37204   0.88516   0.00000  Uiso   1.00
N1188  N     0.44046   0.62247   0.77417   0.00000  Uiso   1.00
H1189  H     0.41879   0.60745   0.79769   0.00000  Uiso   1.00
H1190  H     0.45409   0.59923   0.75022   0.00000  Uiso   1.00
N1191  N     0.44395   0.38322   0.77234   0.00000  Uiso   1.00
H1192  H     0.44863   0.37356   0.73520   0.00000  Uiso   1.00
H1193  H     0.41333   0.37481   0.78219   0.00000  Uiso   1.00
N1194  N     0.55628   0.61709   0.89435   0.00000  Uiso   1.00
H1195  H     0.55118   0.62593   0.93164   0.00000  Uiso   1.00
H1196  H     0.58693   0.62574   0.88494   0.00000  Uiso   1.00
C1197  C     0.75355   0.50017   0.83321   0.00000  Uiso   1.00
C1198  C     0.91311   0.49983   0.83341   0.00000  Uiso   1.00
C1199  C     0.83327   0.50005   0.73963   0.00000  Uiso   1.00
C1200  C     0.83340   0.49995   0.92704   0.00000  Uiso   1.00
C1201  C     0.83331   0.50008   0.68849   0.00000  Uiso   1.00
C1202  C     0.83335   0.49992   0.97818   0.00000  Uiso   1.00
C1203  C     0.68912   0.48434   0.87595   0.00000  Uiso   1.00
C1204  C     0.97754   0.51557   0.79061   0.00000  Uiso   1.00
C1205  C     0.97884   0.48389   0.87588   0.00000  Uiso   1.00
C1206  C     0.68782   0.51592   0.79063   0.00000  Uiso   1.00
C1207  C     0.95727   0.49952   0.83321   0.00000  Uiso   1.00
C1208  C     0.70939   0.50044   0.83337   0.00000  Uiso   1.00
C1209  C     0.86085   0.35704   0.86322   0.00000  Uiso   1.00
C1210  C     0.80534   0.64377   0.80401   0.00000  Uiso   1.00
C1211  C     0.80592   0.35821   0.80363   0.00000  Uiso   1.00
C1212  C     0.86097   0.64210   0.86309   0.00000  Uiso   1.00
N1213  N     0.83333   0.61907   0.83333   0.00000  Uiso   1.00
N1214  N     0.83333   0.38093   0.83333   0.00000  Uiso   1.00
O1215  O     0.77226   0.53821   0.83333   0.00000  Uiso   1.00
O1216  O     0.89441   0.46179   0.83334   0.00000  Uiso   1.00
O1217  O     0.89441   0.53821   0.83334   0.00000  Uiso   1.00
O1218  O     0.77226   0.46179   0.83333   0.00000  Uiso   1.00
O1219  O     0.83334   0.53821   0.76178   0.00000  Uiso   1.00
O1220  O     0.83333   0.46179   0.90489   0.00000  Uiso   1.00
O1221  O     0.83333   0.53821   0.90489   0.00000  Uiso   1.00
O1222  O     0.83334   0.46179   0.76178   0.00000  Uiso   1.00
Zn1223 Zn    0.83333   0.55104   0.83333   0.00000  Uiso   1.00
Zn1224 Zn    0.83333   0.44896   0.83333   0.00000  Uiso   1.00
N1225  N     0.71321   0.46933   0.91880   0.00000  Uiso   1.00
H1226  H     0.70493   0.48881   0.94970   0.00000  Uiso   1.00
H1227  H     0.70588   0.43583   0.92622   0.00000  Uiso   1.00
N1228  N     0.95344   0.53056   0.74776   0.00000  Uiso   1.00
H1229  H     0.96080   0.56405   0.74030   0.00000  Uiso   1.00
H1230  H     0.96168   0.51105   0.71687   0.00000  Uiso   1.00
N1231  N     0.95605   0.46882   0.91883   0.00000  Uiso   1.00
H1232  H     0.96400   0.48899   0.94940   0.00000  Uiso   1.00
H1233  H     0.96499   0.43570   0.92695   0.00000  Uiso   1.00
N1234  N     0.71060   0.53065   0.74753   0.00000  Uiso   1.00
H1235  H     0.70164   0.56370   0.73905   0.00000  Uiso   1.00
H1236  H     0.70264   0.51024   0.71717   0.00000  Uiso   1.00
N1237  N     0.88944   0.38125   0.89456   0.00000  Uiso   1.00
H1238  H     0.88431   0.37220   0.93183   0.00000  Uiso   1.00
H1239  H     0.92009   0.37204   0.88516   0.00000  Uiso   1.00
N1240  N     0.77380   0.62247   0.77417   0.00000  Uiso   1.00
H1241  H     0.75213   0.60745   0.79769   0.00000  Uiso   1.00
H1242  H     0.78743   0.59923   0.75022   0.00000  Uiso   1.00
N1243  N     0.77728   0.38322   0.77234   0.00000  Uiso   1.00
H1244  H     0.78196   0.37356   0.73520   0.00000  Uiso   1.00
H1245  H     0.74666   0.37481   0.78219   0.00000  Uiso   1.00
N1246  N     0.88962   0.61709   0.89435   0.00000  Uiso   1.00
H1247  H     0.88451   0.62593   0.93164   0.00000  Uiso   1.00
H1248  H     0.92026   0.62574   0.88494   0.00000  Uiso   1.00
C1249  C     0.08689   0.83350   0.83321   0.00000  Uiso   1.00
C1250  C     0.24644   0.83316   0.83341   0.00000  Uiso   1.00
C1251  C     0.16660   0.83339   0.73963   0.00000  Uiso   1.00
C1252  C     0.16673   0.83328   0.92704   0.00000  Uiso   1.00
C1253  C     0.16664   0.83341   0.68849   0.00000  Uiso   1.00
C1254  C     0.16669   0.83326   0.97818   0.00000  Uiso   1.00
C1255  C     0.02245   0.81767   0.87595   0.00000  Uiso   1.00
C1256  C     0.31087   0.84890   0.79061   0.00000  Uiso   1.00
C1257  C     0.31217   0.81722   0.87588   0.00000  Uiso   1.00
C1258  C     0.02116   0.84925   0.79063   0.00000  Uiso   1.00
C1259  C     0.29060   0.83285   0.83321   0.00000  Uiso   1.00
C1260  C     0.04273   0.83377   0.83337   0.00000  Uiso   1.00
C1261  C     0.19419   0.69038   0.86322   0.00000  Uiso   1.00
C1262  C     0.13868   0.97711   0.80401   0.00000  Uiso   1.00
C1263  C     0.13925   0.69154   0.80363   0.00000  Uiso   1.00
C1264  C     0.19430   0.97543   0.86309   0.00000  Uiso   1.00
N1265  N     0.16667   0.95240   0.83333   0.00000  Uiso   1.00
N1266  N     0.16667   0.71427   0.83333   0.00000  Uiso   1.00
O1267  O     0.10559   0.87154   0.83333   0.00000  Uiso   1.00
O1268  O     0.22774   0.79513   0.83334   0.00000  Uiso   1.00
O1269  O     0.22774   0.87154   0.83334   0.00000  Uiso   1.00
O1270  O     0.10559   0.79513   0.83333   0.00000  Uiso   1.00
O1271  O     0.16667   0.87155   0.76178   0.00000  Uiso   1.00
O1272  O     0.16666   0.79512   0.90489   0.00000  Uiso   1.00
O1273  O     0.16666   0.87155   0.90489   0.00000  Uiso   1.00
O1274  O     0.16667   0.79512   0.76178   0.00000  Uiso   1.00
Zn1275 Zn    0.16667   0.88437   0.83333   0.00000  Uiso   1.00
Zn1276 Zn    0.16667   0.78229   0.83333   0.00000  Uiso   1.00
N1277  N     0.04655   0.80266   0.91880   0.00000  Uiso   1.00
H1278  H     0.03826   0.82215   0.94970   0.00000  Uiso   1.00
H1279  H     0.03921   0.76917   0.92622   0.00000  Uiso   1.00
N1280  N     0.28677   0.86390   0.74776   0.00000  Uiso   1.00
H1281  H     0.29414   0.89738   0.74030   0.00000  Uiso   1.00
H1282  H     0.29501   0.84438   0.71687   0.00000  Uiso   1.00
N1283  N     0.28938   0.80215   0.91883   0.00000  Uiso   1.00
H1284  H     0.29733   0.82232   0.94940   0.00000  Uiso   1.00
H1285  H     0.29832   0.76903   0.92695   0.00000  Uiso   1.00
N1286  N     0.04393   0.86399   0.74753   0.00000  Uiso   1.00
H1287  H     0.03498   0.89704   0.73905   0.00000  Uiso   1.00
H1288  H     0.03598   0.84357   0.71717   0.00000  Uiso   1.00
N1289  N     0.22277   0.71458   0.89456   0.00000  Uiso   1.00
H1290  H     0.21765   0.70554   0.93183   0.00000  Uiso   1.00
H1291  H     0.25342   0.70538   0.88516   0.00000  Uiso   1.00
N1292  N     0.10713   0.95581   0.77417   0.00000  Uiso   1.00
H1293  H     0.08546   0.94078   0.79769   0.00000  Uiso   1.00
H1294  H     0.12076   0.93257   0.75022   0.00000  Uiso   1.00
N1295  N     0.11062   0.71656   0.77234   0.00000  Uiso   1.00
H1296  H     0.11530   0.70690   0.73520   0.00000  Uiso   1.00
H1297  H     0.07999   0.70814   0.78219   0.00000  Uiso   1.00
N1298  N     0.22295   0.95042   0.89435   0.00000  Uiso   1.00
H1299  H     0.21785   0.95926   0.93164   0.00000  Uiso   1.00
H1300  H     0.25360   0.95908   0.88494   0.00000  Uiso   1.00
C1301  C     0.42022   0.83350   0.83321   0.00000  Uiso   1.00
C1302  C     0.57978   0.83316   0.83341   0.00000  Uiso   1.00
C1303  C     0.49994   0.83339   0.73963   0.00000  Uiso   1.00
C1304  C     0.50006   0.83328   0.92704   0.00000  Uiso   1.00
C1305  C     0.49997   0.83341   0.68849   0.00000  Uiso   1.00
C1306  C     0.50002   0.83326   0.97818   0.00000  Uiso   1.00
C1307  C     0.35579   0.81767   0.87595   0.00000  Uiso   1.00
C1308  C     0.64420   0.84890   0.79061   0.00000  Uiso   1.00
C1309  C     0.64550   0.81722   0.87588   0.00000  Uiso   1.00
C1310  C     0.35449   0.84925   0.79063   0.00000  Uiso   1.00
C1311  C     0.62394   0.83285   0.83321   0.00000  Uiso   1.00
C1312  C     0.37606   0.83377   0.83337   0.00000  Uiso   1.00
C1313  C     0.52752   0.69038   0.86322   0.00000  Uiso   1.00
C1314  C     0.47201   0.97711   0.80401   0.00000  Uiso   1.00
C1315  C     0.47259   0.69154   0.80363   0.00000  Uiso   1.00
C1316  C     0.52763   0.97543   0.86309   0.00000  Uiso   1.00
N1317  N     0.50000   0.95240   0.83333   0.00000  Uiso   1.00
N1318  N     0.50000   0.71427   0.83333   0.00000  Uiso   1.00
O1319  O     0.43892   0.87154   0.83333   0.00000  Uiso   1.00
O1320  O     0.56108   0.79513   0.83334   0.00000  Uiso   1.00
O1321  O     0.56108   0.87154   0.83334   0.00000  Uiso   1.00
O1322  O     0.43892   0.79513   0.83333   0.00000  Uiso   1.00
O1323  O     0.50000   0.87155   0.76178   0.00000  Uiso   1.00
O1324  O     0.50000   0.79512   0.90489   0.00000  Uiso   1.00
O1325  O     0.50000   0.87155   0.90489   0.00000  Uiso   1.00
O1326  O     0.50000   0.79512   0.76178   0.00000  Uiso   1.00
Zn1327 Zn    0.50000   0.88437   0.83333   0.00000  Uiso   1.00
Zn1328 Zn    0.50000   0.78229   0.83333   0.00000  Uiso   1.00
N1329  N     0.37988   0.80266   0.91880   0.00000  Uiso   1.00
H1330  H     0.37160   0.82215   0.94970   0.00000  Uiso   1.00
H1331  H     0.37254   0.76917   0.92622   0.00000  Uiso   1.00
N1332  N     0.62010   0.86390   0.74776   0.00000  Uiso   1.00
H1333  H     0.62747   0.89738   0.74030   0.00000  Uiso   1.00
H1334  H     0.62835   0.84438   0.71687   0.00000  Uiso   1.00
N1335  N     0.62272   0.80215   0.91883   0.00000  Uiso   1.00
H1336  H     0.63066   0.82232   0.94940   0.00000  Uiso   1.00
H1337  H     0.63165   0.76903   0.92695   0.00000  Uiso   1.00
N1338  N     0.37726   0.86399   0.74753   0.00000  Uiso   1.00
H1339  H     0.36831   0.89704   0.73905   0.00000  Uiso   1.00
H1340  H     0.36931   0.84357   0.71717   0.00000  Uiso   1.00
N1341  N     0.55611   0.71458   0.89456   0.00000  Uiso   1.00
H1342  H     0.55098   0.70554   0.93183   0.00000  Uiso   1.00
H1343  H     0.58676   0.70538   0.88516   0.00000  Uiso   1.00
N1344  N     0.44046   0.95581   0.77417   0.00000  Uiso   1.00
H1345  H     0.41879   0.94078   0.79769   0.00000  Uiso   1.00
H1346  H     0.45409   0.93257   0.75022   0.00000  Uiso   1.00
N1347  N     0.44395   0.71656   0.77234   0.00000  Uiso   1.00
H1348  H     0.44863   0.70690   0.73520   0.00000  Uiso   1.00
H1349  H     0.41333   0.70814   0.78219   0.00000  Uiso   1.00
N1350  N     0.55628   0.95042   0.89435   0.00000  Uiso   1.00
H1351  H     0.55118   0.95926   0.93164   0.00000  Uiso   1.00
H1352  H     0.58693   0.95908   0.88494   0.00000  Uiso   1.00
C1353  C     0.75355   0.83350   0.83321   0.00000  Uiso   1.00
C1354  C     0.91311   0.83316   0.83341   0.00000  Uiso   1.00
C1355  C     0.83327   0.83339   0.73963   0.00000  Uiso   1.00
C1356  C     0.83340   0.83328   0.92704   0.00000  Uiso   1.00
C1357  C     0.83331   0.83341   0.68849   0.00000  Uiso   1.00
C1358  C     0.83335   0.83326   0.97818   0.00000  Uiso   1.00
C1359  C     0.68912   0.81767   0.87595   0.00000  Uiso   1.00
C1360  C     0.97754   0.84890   0.79061   0.00000  Uiso   1.00
C1361  C     0.97884   0.81722   0.87588   0.00000  Uiso   1.00
C1362  C     0.68782   0.84925   0.79063   0.00000  Uiso   1.00
C1363  C     0.95727   0.83285   0.83321   0.00000  Uiso   1.00
C1364  C     0.70939   0.83377   0.83337   0.00000  Uiso   1.00
C1365  C     0.86085   0.69038   0.86322   0.00000  Uiso   1.00
C1366  C     0.80534   0.97711   0.80401   0.00000  Uiso   1.00
C1367  C     0.80592   0.69154   0.80363   0.00000  Uiso   1.00
C1368  C     0.86097   0.97543   0.86309   0.00000  Uiso   1.00
N1369  N     0.83333   0.95240   0.83333   0.00000  Uiso   1.00
N1370  N     0.83333   0.71427   0.83333   0.00000  Uiso   1.00
O1371  O     0.77226   0.87154   0.83333   0.00000  Uiso   1.00
O1372  O     0.89441   0.79513   0.83334   0.00000  Uiso   1.00
O1373  O     0.89441   0.87154   0.83334   0.00000  Uiso   1.00
O1374  O     0.77226   0.79513   0.83333   0.00000  Uiso   1.00
O1375  O     0.83334   0.87155   0.76178   0.00000  Uiso   1.00
O1376  O     0.83333   0.79512   0.90489   0.00000  Uiso   1.00
O1377  O     0.83333   0.87155   0.90489   0.00000  Uiso   1.00
O1378  O     0.83334   0.79512   0.76178   0.00000  Uiso   1.00
Zn1379 Zn    0.83333   0.88437   0.83333   0.00000  Uiso   1.00
Zn1380 Zn    0.83333   0.78229   0.83333   0.00000  Uiso   1.00
N1381  N     0.71321   0.80266   0.91880   0.00000  Uiso   1.00
H1382  H     0.70493   0.82215   0.94970   0.00000  Uiso   1.00
H1383  H     0.70588   0.76917   0.92622   0.00000  Uiso   1.00
N1384  N     0.95344   0.86390   0.74776   0.00000  Uiso   1.00
H1385  H     0.96080   0.89738   0.74030   0.00000  Uiso   1.00
H1386  H     0.96168   0.84438   0.71687   0.00000  Uiso   1.00
N1387  N     0.95605   0.80215   0.91883   0.00000  Uiso   1.00
H1388  H     0.96400   0.82232   0.94940   0.00000  Uiso   1.00
H1389  H     0.96499   0.76903   0.92695   0.00000  Uiso   1.00
N1390  N     0.71060   0.86399   0.74753   0.00000  Uiso   1.00
H1391  H     0.70164   0.89704   0.73905   0.00000  Uiso   1.00
H1392  H     0.70264   0.84357   0.71717   0.00000  Uiso   1.00
N1393  N     0.88944   0.71458   0.89456   0.00000  Uiso   1.00
H1394  H     0.88431   0.70554   0.93183   0.00000  Uiso   1.00
H1395  H     0.92009   0.70538   0.88516   0.00000  Uiso   1.00
N1396  N     0.77380   0.95581   0.77417   0.00000  Uiso   1.00
H1397  H     0.75213   0.94078   0.79769   0.00000  Uiso   1.00
H1398  H     0.78743   0.93257   0.75022   0.00000  Uiso   1.00
N1399  N     0.77728   0.71656   0.77234   0.00000  Uiso   1.00
H1400  H     0.78196   0.70690   0.73520   0.00000  Uiso   1.00
H1401  H     0.74666   0.70814   0.78219   0.00000  Uiso   1.00
N1402  N     0.88962   0.95042   0.89435   0.00000  Uiso   1.00
H1403  H     0.88451   0.95926   0.93164   0.00000  Uiso   1.00
H1404  H     0.92026   0.95908   0.88494   0.00000  Uiso   1.00
loop_
_geom_bond_atom_site_label_1
_geom_bond_atom_site_label_2
_geom_bond_distance
_geom_bond_site_symmetry_2
_ccdc_geom_bond_type
C1     O22     1.283   .     A
C1     C12     1.406   .     S
C1     O19     1.284   .     A
C2     O21     1.283   .     A
C2     C11     1.406   .     S
C2     O20     1.284   .     A
C3     O23     1.283   .     A
C3     O26     1.282   .     A
C3     C5      1.365   .     S
C4     O25     1.282   .     A
C4     O24     1.283   .     A
C4     C6      1.366   .     S
C5     C942    1.165   1_554 S
C6     C473    1.165   .     S
C7     N29     1.437   .     S
C7     C12     1.399   .     A
C7     C113    1.389   1_455 S
C8     C11     1.399   .     A
C8     N32     1.437   .     S
C8     C62     1.389   .     S
C9     C11     1.399   .     A
C9     N35     1.437   .     S
C9     C59     1.389   .     S
C10    N38     1.437   .     S
C10    C12     1.399   .     A
C10    C112    1.389   1_455 S
C13    N41     1.430   .     S
C13    N18     1.370   .     A
C13    C328    1.437   1_545 S
C14    N44     1.429   .     S
C14    N17     1.384   .     A
C14    C171    1.422   .     S
C15    N18     1.359   .     A
C15    N47     1.431   .     S
C15    C326    1.422   1_545 S
C16    N50     1.431   .     S
C16    N17     1.369   .     A
C16    C169    1.437   .     S
N17    Zn27    2.025   .     S
N18    Zn28    2.025   .     S
O19    Zn27    1.985   .     S
O20    Zn28    1.985   .     S
O21    Zn27    1.978   .     S
O22    Zn28    1.978   .     S
O23    Zn27    1.950   .     S
O24    Zn28    1.950   .     S
O25    Zn27    1.947   .     S
O26    Zn28    1.947   .     S
N29    H30     1.045   .     S
N29    H31     1.045   .     S
N32    H33     1.045   .     S
N32    H34     1.045   .     S
N35    H37     1.045   .     S
N35    H36     1.045   .     S
N38    H40     1.045   .     S
N38    H39     1.045   .     S
N41    H42     1.045   .     S
N41    H43     1.045   .     S
N44    H45     1.041   .     S
N44    H46     1.039   .     S
N47    H48     1.045   .     S
N47    H49     1.046   .     S
N50    H52     1.045   .     S
N50    H51     1.045   .     S
C53    O74     1.283   .     A
C53    C64     1.406   .     S
C53    O71     1.284   .     A
C54    O73     1.283   .     A
C54    C63     1.406   .     S
C54    O72     1.284   .     A
C55    O75     1.283   .     A
C55    O78     1.282   .     A
C55    C57     1.365   .     S
C56    O77     1.282   .     A
C56    O76     1.283   .     A
C56    C58     1.366   .     S
C57    C994    1.165   1_554 S
C58    C525    1.165   .     S
C59    N81     1.437   .     S
C59    C64     1.399   .     A
C60    C63     1.399   .     A
C60    N84     1.437   .     S
C60    C114    1.389   .     S
C61    C63     1.399   .     A
C61    N87     1.437   .     S
C61    C111    1.389   .     S
C62    N90     1.437   .     S
C62    C64     1.399   .     A
C65    N93     1.430   .     S
C65    N70     1.370   .     A
C65    C380    1.437   1_545 S
C66    N96     1.429   .     S
C66    N69     1.384   .     A
C66    C223    1.422   .     S
C67    N70     1.359   .     A
C67    N99     1.431   .     S
C67    C378    1.422   1_545 S
C68    N102    1.431   .     S
C68    N69     1.369   .     A
C68    C221    1.437   .     S
N69    Zn79    2.025   .     S
N70    Zn80    2.025   .     S
O71    Zn79    1.985   .     S
O72    Zn80    1.985   .     S
O73    Zn79    1.978   .     S
O74    Zn80    1.978   .     S
O75    Zn79    1.950   .     S
O76    Zn80    1.950   .     S
O77    Zn79    1.947   .     S
O78    Zn80    1.947   .     S
N81    H82     1.045   .     S
N81    H83     1.045   .     S
N84    H85     1.045   .     S
N84    H86     1.045   .     S
N87    H89     1.045   .     S
N87    H88     1.045   .     S
N90    H92     1.045   .     S
N90    H91     1.045   .     S
N93    H94     1.045   .     S
N93    H95     1.045   .     S
N96    H97     1.041   .     S
N96    H98     1.039   .     S
N99    H100    1.045   .     S
N99    H101    1.046   .     S
N102   H104    1.045   .     S
N102   H103    1.045   .     S
C105   O126    1.283   .     A
C105   C116    1.406   .     S
C105   O123    1.284   .     A
C106   O125    1.283   .     A
C106   C115    1.406   .     S
C106   O124    1.284   .     A
C107   O127    1.283   .     A
C107   O130    1.282   .     A
C107   C109    1.365   .     S
C108   O129    1.282   .     A
C108   O128    1.283   .     A
C108   C110    1.366   .     S
C109   C1046   1.165   1_554 S
C110   C577    1.165   .     S
C111   N133    1.437   .     S
C111   C116    1.399   .     A
C112   C115    1.399   .     A
C112   N136    1.437   .     S
C112   C10     1.389   1_655 S
C113   C115    1.399   .     A
C113   N139    1.437   .     S
C113   C7      1.389   1_655 S
C114   N142    1.437   .     S
C114   C116    1.399   .     A
C117   N145    1.430   .     S
C117   N122    1.370   .     A
C117   C432    1.437   1_545 S
C118   N148    1.429   .     S
C118   N121    1.384   .     A
C118   C275    1.422   .     S
C119   N122    1.359   .     A
C119   N151    1.431   .     S
C119   C430    1.422   1_545 S
C120   N154    1.431   .     S
C120   N121    1.369   .     A
C120   C273    1.437   .     S
N121   Zn131   2.025   .     S
N122   Zn132   2.025   .     S
O123   Zn131   1.985   .     S
O124   Zn132   1.985   .     S
O125   Zn131   1.978   .     S
O126   Zn132   1.978   .     S
O127   Zn131   1.950   .     S
O128   Zn132   1.950   .     S
O129   Zn131   1.947   .     S
O130   Zn132   1.947   .     S
N133   H134    1.045   .     S
N133   H135    1.045   .     S
N136   H137    1.045   .     S
N136   H138    1.045   .     S
N139   H141    1.045   .     S
N139   H140    1.045   .     S
N142   H144    1.045   .     S
N142   H143    1.045   .     S
N145   H146    1.045   .     S
N145   H147    1.045   .     S
N148   H149    1.041   .     S
N148   H150    1.039   .     S
N151   H152    1.045   .     S
N151   H153    1.046   .     S
N154   H156    1.045   .     S
N154   H155    1.045   .     S
C157   O178    1.283   .     A
C157   C168    1.406   .     S
C157   O175    1.284   .     A
C158   O177    1.283   .     A
C158   C167    1.406   .     S
C158   O176    1.284   .     A
C159   O179    1.283   .     A
C159   O182    1.282   .     A
C159   C161    1.365   .     S
C160   O181    1.282   .     A
C160   O180    1.283   .     A
C160   C162    1.366   .     S
C161   C1098   1.165   1_554 S
C162   C629    1.165   .     S
C163   N185    1.437   .     S
C163   C168    1.399   .     A
C163   C269    1.389   1_455 S
C164   C167    1.399   .     A
C164   N188    1.437   .     S
C164   C218    1.389   .     S
C165   C167    1.399   .     A
C165   N191    1.437   .     S
C165   C215    1.389   .     S
C166   N194    1.437   .     S
C166   C168    1.399   .     A
C166   C268    1.389   1_455 S
C169   N197    1.430   .     S
C169   N174    1.370   .     A
C170   N200    1.429   .     S
C170   N173    1.384   .     A
C170   C327    1.422   .     S
C171   N174    1.359   .     A
C171   N203    1.431   .     S
C172   N206    1.431   .     S
C172   N173    1.369   .     A
C172   C325    1.437   .     S
N173   Zn183   2.025   .     S
N174   Zn184   2.025   .     S
O175   Zn183   1.985   .     S
O176   Zn184   1.985   .     S
O177   Zn183   1.978   .     S
O178   Zn184   1.978   .     S
O179   Zn183   1.950   .     S
O180   Zn184   1.950   .     S
O181   Zn183   1.947   .     S
O182   Zn184   1.947   .     S
N185   H186    1.045   .     S
N185   H187    1.045   .     S
N188   H189    1.045   .     S
N188   H190    1.045   .     S
N191   H193    1.045   .     S
N191   H192    1.045   .     S
N194   H196    1.045   .     S
N194   H195    1.045   .     S
N197   H198    1.045   .     S
N197   H199    1.045   .     S
N200   H201    1.041   .     S
N200   H202    1.039   .     S
N203   H204    1.045   .     S
N203   H205    1.046   .     S
N206   H208    1.045   .     S
N206   H207    1.045   .     S
C209   O230    1.283   .     A
C209   C220    1.406   .     S
C209   O227    1.284   .     A
C210   O229    1.283   .     A
C210   C219    1.406   .     S
C210   O228    1.284   .     A
C211   O231    1.283   .     A
C211   O234    1.282   .     A
C211   C213    1.365   .     S
C212   O233    1.282   .     A
C212   O232    1.283   .     A
C212   C214    1.366   .     S
C213   C1150   1.165   1_554 S
C214   C681    1.165   .     S
C215   N237    1.437   .     S
C215   C220    1.399   .     A
C216   C219    1.399   .     A
C216   N240    1.437   .     S
C216   C270    1.389   .     S
C217   C219    1.399   .     A
C217   N243    1.437   .     S
C217   C267    1.389   .     S
C218   N246    1.437   .     S
C218   C220    1.399   .     A
C221   N249    1.430   .     S
C221   N226    1.370   .     A
C222   N252    1.429   .     S
C222   N225    1.384   .     A
C222   C379    1.422   .     S
C223   N226    1.359   .     A
C223   N255    1.431   .     S
C224   N258    1.431   .     S
C224   N225    1.369   .     A
C224   C377    1.437   .     S
N225   Zn235   2.025   .     S
N226   Zn236   2.025   .     S
O227   Zn235   1.985   .     S
O228   Zn236   1.985   .     S
O229   Zn235   1.978   .     S
O230   Zn236   1.978   .     S
O231   Zn235   1.950   .     S
O232   Zn236   1.950   .     S
O233   Zn235   1.947   .     S
O234   Zn236   1.947   .     S
N237   H238    1.045   .     S
N237   H239    1.045   .     S
N240   H241    1.045   .     S
N240   H242    1.045   .     S
N243   H245    1.045   .     S
N243   H244    1.045   .     S
N246   H248    1.045   .     S
N246   H247    1.045   .     S
N249   H250    1.045   .     S
N249   H251    1.045   .     S
N252   H253    1.041   .     S
N252   H254    1.039   .     S
N255   H256    1.045   .     S
N255   H257    1.046   .     S
N258   H260    1.045   .     S
N258   H259    1.045   .     S
C261   O282    1.283   .     A
C261   C272    1.406   .     S
C261   O279    1.284   .     A
C262   O281    1.283   .     A
C262   C271    1.406   .     S
C262   O280    1.284   .     A
C263   O283    1.283   .     A
C263   O286    1.282   .     A
C263   C265    1.365   .     S
C264   O285    1.282   .     A
C264   O284    1.283   .     A
C264   C266    1.366   .     S
C265   C1202   1.165   1_554 S
C266   C733    1.165   .     S
C267   N289    1.437   .     S
C267   C272    1.399   .     A
C268   C271    1.399   .     A
C268   N292    1.437   .     S
C268   C166    1.389   1_655 S
C269   C271    1.399   .     A
C269   N295    1.437   .     S
C269   C163    1.389   1_655 S
C270   N298    1.437   .     S
C270   C272    1.399   .     A
C273   N301    1.430   .     S
C273   N278    1.370   .     A
C274   N304    1.429   .     S
C274   N277    1.384   .     A
C274   C431    1.422   .     S
C275   N278    1.359   .     A
C275   N307    1.431   .     S
C276   N310    1.431   .     S
C276   N277    1.369   .     A
C276   C429    1.437   .     S
N277   Zn287   2.025   .     S
N278   Zn288   2.025   .     S
O279   Zn287   1.985   .     S
O280   Zn288   1.985   .     S
O281   Zn287   1.978   .     S
O282   Zn288   1.978   .     S
O283   Zn287   1.950   .     S
O284   Zn288   1.950   .     S
O285   Zn287   1.947   .     S
O286   Zn288   1.947   .     S
N289   H290    1.045   .     S
N289   H291    1.045   .     S
N292   H293    1.045   .     S
N292   H294    1.045   .     S
N295   H297    1.045   .     S
N295   H296    1.045   .     S
N298   H300    1.045   .     S
N298   H299    1.045   .     S
N301   H302    1.045   .     S
N301   H303    1.045   .     S
N304   H305    1.041   .     S
N304   H306    1.039   .     S
N307   H308    1.045   .     S
N307   H309    1.046   .     S
N310   H312    1.045   .     S
N310   H311    1.045   .     S
C313   O334    1.283   .     A
C313   C324    1.406   .     S
C313   O331    1.284   .     A
C314   O333    1.283   .     A
C314   C323    1.406   .     S
C314   O332    1.284   .     A
C315   O335    1.283   .     A
C315   O338    1.282   .     A
C315   C317    1.365   .     S
C316   O337    1.282   .     A
C316   O336    1.283   .     A
C316   C318    1.366   .     S
C317   C1254   1.165   1_554 S
C318   C785    1.165   .     S
C319   N341    1.437   .     S
C319   C324    1.399   .     A
C319   C425    1.389   1_455 S
C320   C323    1.399   .     A
C320   N344    1.437   .     S
C320   C374    1.389   .     S
C321   C323    1.399   .     A
C321   N347    1.437   .     S
C321   C371    1.389   .     S
C322   N350    1.437   .     S
C322   C324    1.399   .     A
C322   C424    1.389   1_455 S
C325   N353    1.430   .     S
C325   N330    1.370   .     A
C326   N356    1.429   .     S
C326   N329    1.384   .     A
C326   C15     1.422   1_565 S
C327   N330    1.359   .     A
C327   N359    1.431   .     S
C328   N362    1.431   .     S
C328   N329    1.369   .     A
C328   C13     1.437   1_565 S
N329   Zn339   2.025   .     S
N330   Zn340   2.025   .     S
O331   Zn339   1.985   .     S
O332   Zn340   1.985   .     S
O333   Zn339   1.978   .     S
O334   Zn340   1.978   .     S
O335   Zn339   1.950   .     S
O336   Zn340   1.950   .     S
O337   Zn339   1.947   .     S
O338   Zn340   1.947   .     S
N341   H342    1.045   .     S
N341   H343    1.045   .     S
N344   H345    1.045   .     S
N344   H346    1.045   .     S
N347   H349    1.045   .     S
N347   H348    1.045   .     S
N350   H352    1.045   .     S
N350   H351    1.045   .     S
N353   H354    1.045   .     S
N353   H355    1.045   .     S
N356   H357    1.041   .     S
N356   H358    1.039   .     S
N359   H360    1.045   .     S
N359   H361    1.046   .     S
N362   H364    1.045   .     S
N362   H363    1.045   .     S
C365   O386    1.283   .     A
C365   C376    1.406   .     S
C365   O383    1.284   .     A
C366   O385    1.283   .     A
C366   C375    1.406   .     S
C366   O384    1.284   .     A
C367   O387    1.283   .     A
C367   O390    1.282   .     A
C367   C369    1.365   .     S
C368   O389    1.282   .     A
C368   O388    1.283   .     A
C368   C370    1.366   .     S
C369   C1306   1.165   1_554 S
C370   C837    1.165   .     S
C371   N393    1.437   .     S
C371   C376    1.399   .     A
C372   C375    1.399   .     A
C372   N396    1.437   .     S
C372   C426    1.389   .     S
C373   C375    1.399   .     A
C373   N399    1.437   .     S
C373   C423    1.389   .     S
C374   N402    1.437   .     S
C374   C376    1.399   .     A
C377   N405    1.430   .     S
C377   N382    1.370   .     A
C378   N408    1.429   .     S
C378   N381    1.384   .     A
C378   C67     1.422   1_565 S
C379   N382    1.359   .     A
C379   N411    1.431   .     S
C380   N414    1.431   .     S
C380   N381    1.369   .     A
C380   C65     1.437   1_565 S
N381   Zn391   2.025   .     S
N382   Zn392   2.025   .     S
O383   Zn391   1.985   .     S
O384   Zn392   1.985   .     S
O385   Zn391   1.978   .     S
O386   Zn392   1.978   .     S
O387   Zn391   1.950   .     S
O388   Zn392   1.950   .     S
O389   Zn391   1.947   .     S
O390   Zn392   1.947   .     S
N393   H394    1.045   .     S
N393   H395    1.045   .     S
N396   H397    1.045   .     S
N396   H398    1.045   .     S
N399   H401    1.045   .     S
N399   H400    1.045   .     S
N402   H404    1.045   .     S
N402   H403    1.045   .     S
N405   H406    1.045   .     S
N405   H407    1.045   .     S
N408   H409    1.041   .     S
N408   H410    1.039   .     S
N411   H412    1.045   .     S
N411   H413    1.046   .     S
N414   H416    1.045   .     S
N414   H415    1.045   .     S
C417   O438    1.283   .     A
C417   C428    1.406   .     S
C417   O435    1.284   .     A
C418   O437    1.283   .     A
C418   C427    1.406   .     S
C418   O436    1.284   .     A
C419   O439    1.283   .     A
C419   O442    1.282   .     A
C419   C421    1.365   .     S
C420   O441    1.282   .     A
C420   O440    1.283   .     A
C420   C422    1.366   .     S
C421   C1358   1.165   1_554 S
C422   C889    1.165   .     S
C423   N445    1.437   .     S
C423   C428    1.399   .     A
C424   C427    1.399   .     A
C424   N448    1.437   .     S
C424   C322    1.389   1_655 S
C425   C427    1.399   .     A
C425   N451    1.437   .     S
C425   C319    1.389   1_655 S
C426   N454    1.437   .     S
C426   C428    1.399   .     A
C429   N457    1.430   .     S
C429   N434    1.370   .     A
C430   N460    1.429   .     S
C430   N433    1.384   .     A
C430   C119    1.422   1_565 S
C431   N434    1.359   .     A
C431   N463    1.431   .     S
C432   N466    1.431   .     S
C432   N433    1.369   .     A
C432   C117    1.437   1_565 S
N433   Zn443   2.025   .     S
N434   Zn444   2.025   .     S
O435   Zn443   1.985   .     S
O436   Zn444   1.985   .     S
O437   Zn443   1.978   .     S
O438   Zn444   1.978   .     S
O439   Zn443   1.950   .     S
O440   Zn444   1.950   .     S
O441   Zn443   1.947   .     S
O442   Zn444   1.947   .     S
N445   H446    1.045   .     S
N445   H447    1.045   .     S
N448   H449    1.045   .     S
N448   H450    1.045   .     S
N451   H453    1.045   .     S
N451   H452    1.045   .     S
N454   H456    1.045   .     S
N454   H455    1.045   .     S
N457   H458    1.045   .     S
N457   H459    1.045   .     S
N460   H461    1.041   .     S
N460   H462    1.039   .     S
N463   H464    1.045   .     S
N463   H465    1.046   .     S
N466   H468    1.045   .     S
N466   H467    1.045   .     S
C469   O490    1.283   .     A
C469   C480    1.406   .     S
C469   O487    1.284   .     A
C470   O489    1.283   .     A
C470   C479    1.406   .     S
C470   O488    1.284   .     A
C471   O491    1.283   .     A
C471   O494    1.282   .     A
C471   C473    1.365   .     S
C472   O493    1.282   .     A
C472   O492    1.283   .     A
C472   C474    1.366   .     S
C474   C941    1.165   .     S
C475   N497    1.437   .     S
C475   C480    1.399   .     A
C475   C581    1.389   1_455 S
C476   C479    1.399   .     A
C476   N500    1.437   .     S
C476   C530    1.389   .     S
C477   C479    1.399   .     A
C477   N503    1.437   .     S
C477   C527    1.389   .     S
C478   N506    1.437   .     S
C478   C480    1.399   .     A
C478   C580    1.389   1_455 S
C481   N509    1.430   .     S
C481   N486    1.370   .     A
C481   C796    1.437   1_545 S
C482   N512    1.429   .     S
C482   N485    1.384   .     A
C482   C639    1.422   .     S
C483   N486    1.359   .     A
C483   N515    1.431   .     S
C483   C794    1.422   1_545 S
C484   N518    1.431   .     S
C484   N485    1.369   .     A
C484   C637    1.437   .     S
N485   Zn495   2.025   .     S
N486   Zn496   2.025   .     S
O487   Zn495   1.985   .     S
O488   Zn496   1.985   .     S
O489   Zn495   1.978   .     S
O490   Zn496   1.978   .     S
O491   Zn495   1.950   .     S
O492   Zn496   1.950   .     S
O493   Zn495   1.947   .     S
O494   Zn496   1.947   .     S
N497   H498    1.045   .     S
N497   H499    1.045   .     S
N500   H501    1.045   .     S
N500   H502    1.045   .     S
N503   H505    1.045   .     S
N503   H504    1.045   .     S
N506   H508    1.045   .     S
N506   H507    1.045   .     S
N509   H510    1.045   .     S
N509   H511    1.045   .     S
N512   H513    1.041   .     S
N512   H514    1.039   .     S
N515   H516    1.045   .     S
N515   H517    1.046   .     S
N518   H520    1.045   .     S
N518   H519    1.045   .     S
C521   O542    1.283   .     A
C521   C532    1.406   .     S
C521   O539    1.284   .     A
C522   O541    1.283   .     A
C522   C531    1.406   .     S
C522   O540    1.284   .     A
C523   O543    1.283   .     A
C523   O546    1.282   .     A
C523   C525    1.365   .     S
C524   O545    1.282   .     A
C524   O544    1.283   .     A
C524   C526    1.366   .     S
C526   C993    1.165   .     S
C527   N549    1.437   .     S
C527   C532    1.399   .     A
C528   C531    1.399   .     A
C528   N552    1.437   .     S
C528   C582    1.389   .     S
C529   C531    1.399   .     A
C529   N555    1.437   .     S
C529   C579    1.389   .     S
C530   N558    1.437   .     S
C530   C532    1.399   .     A
C533   N561    1.430   .     S
C533   N538    1.370   .     A
C533   C848    1.437   1_545 S
C534   N564    1.429   .     S
C534   N537    1.384   .     A
C534   C691    1.422   .     S
C535   N538    1.359   .     A
C535   N567    1.431   .     S
C535   C846    1.422   1_545 S
C536   N570    1.431   .     S
C536   N537    1.369   .     A
C536   C689    1.437   .     S
N537   Zn547   2.025   .     S
N538   Zn548   2.025   .     S
O539   Zn547   1.985   .     S
O540   Zn548   1.985   .     S
O541   Zn547   1.978   .     S
O542   Zn548   1.978   .     S
O543   Zn547   1.950   .     S
O544   Zn548   1.950   .     S
O545   Zn547   1.947   .     S
O546   Zn548   1.947   .     S
N549   H550    1.045   .     S
N549   H551    1.045   .     S
N552   H553    1.045   .     S
N552   H554    1.045   .     S
N555   H557    1.045   .     S
N555   H556    1.045   .     S
N558   H560    1.045   .     S
N558   H559    1.045   .     S
N561   H562    1.045   .     S
N561   H563    1.045   .     S
N564   H565    1.041   .     S
N564   H566    1.039   .     S
N567   H568    1.045   .     S
N567   H569    1.046   .     S
N570   H572    1.045   .     S
N570   H571    1.045   .     S
C573   O594    1.283   .     A
C573   C584    1.406   .     S
C573   O591    1.284   .     A
C574   O593    1.283   .     A
C574   C583    1.406   .     S
C574   O592    1.284   .     A
C575   O595    1.283   .     A
C575   O598    1.282   .     A
C575   C577    1.365   .     S
C576   O597    1.282   .     A
C576   O596    1.283   .     A
C576   C578    1.366   .     S
C578   C1045   1.165   .     S
C579   N601    1.437   .     S
C579   C584    1.399   .     A
C580   C583    1.399   .     A
C580   N604    1.437   .     S
C580   C478    1.389   1_655 S
C581   C583    1.399   .     A
C581   N607    1.437   .     S
C581   C475    1.389   1_655 S
C582   N610    1.437   .     S
C582   C584    1.399   .     A
C585   N613    1.430   .     S
C585   N590    1.370   .     A
C585   C900    1.437   1_545 S
C586   N616    1.429   .     S
C586   N589    1.384   .     A
C586   C743    1.422   .     S
C587   N590    1.359   .     A
C587   N619    1.431   .     S
C587   C898    1.422   1_545 S
C588   N622    1.431   .     S
C588   N589    1.369   .     A
C588   C741    1.437   .     S
N589   Zn599   2.025   .     S
N590   Zn600   2.025   .     S
O591   Zn599   1.985   .     S
O592   Zn600   1.985   .     S
O593   Zn599   1.978   .     S
O594   Zn600   1.978   .     S
O595   Zn599   1.950   .     S
O596   Zn600   1.950   .     S
O597   Zn599   1.947   .     S
O598   Zn600   1.947   .     S
N601   H602    1.045   .     S
N601   H603    1.045   .     S
N604   H605    1.045   .     S
N604   H606    1.045   .     S
N607   H609    1.045   .     S
N607   H608    1.045   .     S
N610   H612    1.045   .     S
N610   H611    1.045   .     S
N613   H614    1.045   .     S
N613   H615    1.045   .     S
N616   H617    1.041   .     S
N616   H618    1.039   .     S
N619   H620    1.045   .     S
N619   H621    1.046   .     S
N622   H624    1.045   .     S
N622   H623    1.045   .     S
C625   O646    1.283   .     A
C625   C636    1.406   .     S
C625   O643    1.284   .     A
C626   O645    1.283   .     A
C626   C635    1.406   .     S
C626   O644    1.284   .     A
C627   O647    1.283   .     A
C627   O650    1.282   .     A
C627   C629    1.365   .     S
C628   O649    1.282   .     A
C628   O648    1.283   .     A
C628   C630    1.366   .     S
C630   C1097   1.165   .     S
C631   N653    1.437   .     S
C631   C636    1.399   .     A
C631   C737    1.389   1_455 S
C632   C635    1.399   .     A
C632   N656    1.437   .     S
C632   C686    1.389   .     S
C633   C635    1.399   .     A
C633   N659    1.437   .     S
C633   C683    1.389   .     S
C634   N662    1.437   .     S
C634   C636    1.399   .     A
C634   C736    1.389   1_455 S
C637   N665    1.430   .     S
C637   N642    1.370   .     A
C638   N668    1.429   .     S
C638   N641    1.384   .     A
C638   C795    1.422   .     S
C639   N642    1.359   .     A
C639   N671    1.431   .     S
C640   N674    1.431   .     S
C640   N641    1.369   .     A
C640   C793    1.437   .     S
N641   Zn651   2.025   .     S
N642   Zn652   2.025   .     S
O643   Zn651   1.985   .     S
O644   Zn652   1.985   .     S
O645   Zn651   1.978   .     S
O646   Zn652   1.978   .     S
O647   Zn651   1.950   .     S
O648   Zn652   1.950   .     S
O649   Zn651   1.947   .     S
O650   Zn652   1.947   .     S
N653   H654    1.045   .     S
N653   H655    1.045   .     S
N656   H657    1.045   .     S
N656   H658    1.045   .     S
N659   H661    1.045   .     S
N659   H660    1.045   .     S
N662   H664    1.045   .     S
N662   H663    1.045   .     S
N665   H666    1.045   .     S
N665   H667    1.045   .     S
N668   H669    1.041   .     S
N668   H670    1.039   .     S
N671   H672    1.045   .     S
N671   H673    1.046   .     S
N674   H676    1.045   .     S
N674   H675    1.045   .     S
C677   O698    1.283   .     A
C677   C688    1.406   .     S
C677   O695    1.284   .     A
C678   O697    1.283   .     A
C678   C687    1.406   .     S
C678   O696    1.284   .     A
C679   O699    1.283   .     A
C679   O702    1.282   .     A
C679   C681    1.365   .     S
C680   O701    1.282   .     A
C680   O700    1.283   .     A
C680   C682    1.366   .     S
C682   C1149   1.165   .     S
C683   N705    1.437   .     S
C683   C688    1.399   .     A
C684   C687    1.399   .     A
C684   N708    1.437   .     S
C684   C738    1.389   .     S
C685   C687    1.399   .     A
C685   N711    1.437   .     S
C685   C735    1.389   .     S
C686   N714    1.437   .     S
C686   C688    1.399   .     A
C689   N717    1.430   .     S
C689   N694    1.370   .     A
C690   N720    1.429   .     S
C690   N693    1.384   .     A
C690   C847    1.422   .     S
C691   N694    1.359   .     A
C691   N723    1.431   .     S
C692   N726    1.431   .     S
C692   N693    1.369   .     A
C692   C845    1.437   .     S
N693   Zn703   2.025   .     S
N694   Zn704   2.025   .     S
O695   Zn703   1.985   .     S
O696   Zn704   1.985   .     S
O697   Zn703   1.978   .     S
O698   Zn704   1.978   .     S
O699   Zn703   1.950   .     S
O700   Zn704   1.950   .     S
O701   Zn703   1.947   .     S
O702   Zn704   1.947   .     S
N705   H706    1.045   .     S
N705   H707    1.045   .     S
N708   H709    1.045   .     S
N708   H710    1.045   .     S
N711   H713    1.045   .     S
N711   H712    1.045   .     S
N714   H716    1.045   .     S
N714   H715    1.045   .     S
N717   H718    1.045   .     S
N717   H719    1.045   .     S
N720   H721    1.041   .     S
N720   H722    1.039   .     S
N723   H724    1.045   .     S
N723   H725    1.046   .     S
N726   H728    1.045   .     S
N726   H727    1.045   .     S
C729   O750    1.283   .     A
C729   C740    1.406   .     S
C729   O747    1.284   .     A
C730   O749    1.283   .     A
C730   C739    1.406   .     S
C730   O748    1.284   .     A
C731   O751    1.283   .     A
C731   O754    1.282   .     A
C731   C733    1.365   .     S
C732   O753    1.282   .     A
C732   O752    1.283   .     A
C732   C734    1.366   .     S
C734   C1201   1.165   .     S
C735   N757    1.437   .     S
C735   C740    1.399   .     A
C736   C739    1.399   .     A
C736   N760    1.437   .     S
C736   C634    1.389   1_655 S
C737   C739    1.399   .     A
C737   N763    1.437   .     S
C737   C631    1.389   1_655 S
C738   N766    1.437   .     S
C738   C740    1.399   .     A
C741   N769    1.430   .     S
C741   N746    1.370   .     A
C742   N772    1.429   .     S
C742   N745    1.384   .     A
C742   C899    1.422   .     S
C743   N746    1.359   .     A
C743   N775    1.431   .     S
C744   N778    1.431   .     S
C744   N745    1.369   .     A
C744   C897    1.437   .     S
N745   Zn755   2.025   .     S
N746   Zn756   2.025   .     S
O747   Zn755   1.985   .     S
O748   Zn756   1.985   .     S
O749   Zn755   1.978   .     S
O750   Zn756   1.978   .     S
O751   Zn755   1.950   .     S
O752   Zn756   1.950   .     S
O753   Zn755   1.947   .     S
O754   Zn756   1.947   .     S
N757   H758    1.045   .     S
N757   H759    1.045   .     S
N760   H761    1.045   .     S
N760   H762    1.045   .     S
N763   H765    1.045   .     S
N763   H764    1.045   .     S
N766   H768    1.045   .     S
N766   H767    1.045   .     S
N769   H770    1.045   .     S
N769   H771    1.045   .     S
N772   H773    1.041   .     S
N772   H774    1.039   .     S
N775   H776    1.045   .     S
N775   H777    1.046   .     S
N778   H780    1.045   .     S
N778   H779    1.045   .     S
C781   O802    1.283   .     A
C781   C792    1.406   .     S
C781   O799    1.284   .     A
C782   O801    1.283   .     A
C782   C791    1.406   .     S
C782   O800    1.284   .     A
C783   O803    1.283   .     A
C783   O806    1.282   .     A
C783   C785    1.365   .     S
C784   O805    1.282   .     A
C784   O804    1.283   .     A
C784   C786    1.366   .     S
C786   C1253   1.165   .     S
C787   N809    1.437   .     S
C787   C792    1.399   .     A
C787   C893    1.389   1_455 S
C788   C791    1.399   .     A
C788   N812    1.437   .     S
C788   C842    1.389   .     S
C789   C791    1.399   .     A
C789   N815    1.437   .     S
C789   C839    1.389   .     S
C790   N818    1.437   .     S
C790   C792    1.399   .     A
C790   C892    1.389   1_455 S
C793   N821    1.430   .     S
C793   N798    1.370   .     A
C794   N824    1.429   .     S
C794   N797    1.384   .     A
C794   C483    1.422   1_565 S
C795   N798    1.359   .     A
C795   N827    1.431   .     S
C796   N830    1.431   .     S
C796   N797    1.369   .     A
C796   C481    1.437   1_565 S
N797   Zn807   2.025   .     S
N798   Zn808   2.025   .     S
O799   Zn807   1.985   .     S
O800   Zn808   1.985   .     S
O801   Zn807   1.978   .     S
O802   Zn808   1.978   .     S
O803   Zn807   1.950   .     S
O804   Zn808   1.950   .     S
O805   Zn807   1.947   .     S
O806   Zn808   1.947   .     S
N809   H810    1.045   .     S
N809   H811    1.045   .     S
N812   H813    1.045   .     S
N812   H814    1.045   .     S
N815   H817    1.045   .     S
N815   H816    1.045   .     S
N818   H820    1.045   .     S
N818   H819    1.045   .     S
N821   H822    1.045   .     S
N821   H823    1.045   .     S
N824   H825    1.041   .     S
N824   H826    1.039   .     S
N827   H828    1.045   .     S
N827   H829    1.046   .     S
N830   H832    1.045   .     S
N830   H831    1.045   .     S
C833   O854    1.283   .     A
C833   C844    1.406   .     S
C833   O851    1.284   .     A
C834   O853    1.283   .     A
C834   C843    1.406   .     S
C834   O852    1.284   .     A
C835   O855    1.283   .     A
C835   O858    1.282   .     A
C835   C837    1.365   .     S
C836   O857    1.282   .     A
C836   O856    1.283   .     A
C836   C838    1.366   .     S
C838   C1305   1.165   .     S
C839   N861    1.437   .     S
C839   C844    1.399   .     A
C840   C843    1.399   .     A
C840   N864    1.437   .     S
C840   C894    1.389   .     S
C841   C843    1.399   .     A
C841   N867    1.437   .     S
C841   C891    1.389   .     S
C842   N870    1.437   .     S
C842   C844    1.399   .     A
C845   N873    1.430   .     S
C845   N850    1.370   .     A
C846   N876    1.429   .     S
C846   N849    1.384   .     A
C846   C535    1.422   1_565 S
C847   N850    1.359   .     A
C847   N879    1.431   .     S
C848   N882    1.431   .     S
C848   N849    1.369   .     A
C848   C533    1.437   1_565 S
N849   Zn859   2.025   .     S
N850   Zn860   2.025   .     S
O851   Zn859   1.985   .     S
O852   Zn860   1.985   .     S
O853   Zn859   1.978   .     S
O854   Zn860   1.978   .     S
O855   Zn859   1.950   .     S
O856   Zn860   1.950   .     S
O857   Zn859   1.947   .     S
O858   Zn860   1.947   .     S
N861   H862    1.045   .     S
N861   H863    1.045   .     S
N864   H865    1.045   .     S
N864   H866    1.045   .     S
N867   H869    1.045   .     S
N867   H868    1.045   .     S
N870   H872    1.045   .     S
N870   H871    1.045   .     S
N873   H874    1.045   .     S
N873   H875    1.045   .     S
N876   H877    1.041   .     S
N876   H878    1.039   .     S
N879   H880    1.045   .     S
N879   H881    1.046   .     S
N882   H884    1.045   .     S
N882   H883    1.045   .     S
C885   O906    1.283   .     A
C885   C896    1.406   .     S
C885   O903    1.284   .     A
C886   O905    1.283   .     A
C886   C895    1.406   .     S
C886   O904    1.284   .     A
C887   O907    1.283   .     A
C887   O910    1.282   .     A
C887   C889    1.365   .     S
C888   O909    1.282   .     A
C888   O908    1.283   .     A
C888   C890    1.366   .     S
C890   C1357   1.165   .     S
C891   N913    1.437   .     S
C891   C896    1.399   .     A
C892   C895    1.399   .     A
C892   N916    1.437   .     S
C892   C790    1.389   1_655 S
C893   C895    1.399   .     A
C893   N919    1.437   .     S
C893   C787    1.389   1_655 S
C894   N922    1.437   .     S
C894   C896    1.399   .     A
C897   N925    1.430   .     S
C897   N902    1.370   .     A
C898   N928    1.429   .     S
C898   N901    1.384   .     A
C898   C587    1.422   1_565 S
C899   N902    1.359   .     A
C899   N931    1.431   .     S
C900   N934    1.431   .     S
C900   N901    1.369   .     A
C900   C585    1.437   1_565 S
N901   Zn911   2.025   .     S
N902   Zn912   2.025   .     S
O903   Zn911   1.985   .     S
O904   Zn912   1.985   .     S
O905   Zn911   1.978   .     S
O906   Zn912   1.978   .     S
O907   Zn911   1.950   .     S
O908   Zn912   1.950   .     S
O909   Zn911   1.947   .     S
O910   Zn912   1.947   .     S
N913   H914    1.045   .     S
N913   H915    1.045   .     S
N916   H917    1.045   .     S
N916   H918    1.045   .     S
N919   H921    1.045   .     S
N919   H920    1.045   .     S
N922   H924    1.045   .     S
N922   H923    1.045   .     S
N925   H926    1.045   .     S
N925   H927    1.045   .     S
N928   H929    1.041   .     S
N928   H930    1.039   .     S
N931   H932    1.045   .     S
N931   H933    1.046   .     S
N934   H936    1.045   .     S
N934   H935    1.045   .     S
C937   O958    1.283   .     A
C937   C948    1.406   .     S
C937   O955    1.284   .     A
C938   O957    1.283   .     A
C938   C947    1.406   .     S
C938   O956    1.284   .     A
C939   O959    1.283   .     A
C939   O962    1.282   .     A
C939   C941    1.365   .     S
C940   O961    1.282   .     A
C940   O960    1.283   .     A
C940   C942    1.366   .     S
C942   C5      1.165   1_556 S
C943   N965    1.437   .     S
C943   C948    1.399   .     A
C943   C1049   1.389   1_455 S
C944   C947    1.399   .     A
C944   N968    1.437   .     S
C944   C998    1.389   .     S
C945   C947    1.399   .     A
C945   N971    1.437   .     S
C945   C995    1.389   .     S
C946   N974    1.437   .     S
C946   C948    1.399   .     A
C946   C1048   1.389   1_455 S
C949   N977    1.430   .     S
C949   N954    1.370   .     A
C949   C1264   1.437   1_545 S
C950   N980    1.429   .     S
C950   N953    1.384   .     A
C950   C1107   1.422   .     S
C951   N954    1.359   .     A
C951   N983    1.431   .     S
C951   C1262   1.422   1_545 S
C952   N986    1.431   .     S
C952   N953    1.369   .     A
C952   C1105   1.437   .     S
N953   Zn963   2.025   .     S
N954   Zn964   2.025   .     S
O955   Zn963   1.985   .     S
O956   Zn964   1.985   .     S
O957   Zn963   1.978   .     S
O958   Zn964   1.978   .     S
O959   Zn963   1.950   .     S
O960   Zn964   1.950   .     S
O961   Zn963   1.947   .     S
O962   Zn964   1.947   .     S
N965   H966    1.045   .     S
N965   H967    1.045   .     S
N968   H969    1.045   .     S
N968   H970    1.045   .     S
N971   H973    1.045   .     S
N971   H972    1.045   .     S
N974   H976    1.045   .     S
N974   H975    1.045   .     S
N977   H978    1.045   .     S
N977   H979    1.045   .     S
N980   H981    1.041   .     S
N980   H982    1.039   .     S
N983   H984    1.045   .     S
N983   H985    1.046   .     S
N986   H988    1.045   .     S
N986   H987    1.045   .     S
C989   O1010   1.283   .     A
C989   C1000   1.406   .     S
C989   O1007   1.284   .     A
C990   O1009   1.283   .     A
C990   C999    1.406   .     S
C990   O1008   1.284   .     A
C991   O1011   1.283   .     A
C991   O1014   1.282   .     A
C991   C993    1.365   .     S
C992   O1013   1.282   .     A
C992   O1012   1.283   .     A
C992   C994    1.366   .     S
C994   C57     1.165   1_556 S
C995   N1017   1.437   .     S
C995   C1000   1.399   .     A
C996   C999    1.399   .     A
C996   N1020   1.437   .     S
C996   C1050   1.389   .     S
C997   C999    1.399   .     A
C997   N1023   1.437   .     S
C997   C1047   1.389   .     S
C998   N1026   1.437   .     S
C998   C1000   1.399   .     A
C1001  N1029   1.430   .     S
C1001  N1006   1.370   .     A
C1001  C1316   1.437   1_545 S
C1002  N1032   1.429   .     S
C1002  N1005   1.384   .     A
C1002  C1159   1.422   .     S
C1003  N1006   1.359   .     A
C1003  N1035   1.431   .     S
C1003  C1314   1.422   1_545 S
C1004  N1038   1.431   .     S
C1004  N1005   1.369   .     A
C1004  C1157   1.437   .     S
N1005  Zn1015  2.025   .     S
N1006  Zn1016  2.025   .     S
O1007  Zn1015  1.985   .     S
O1008  Zn1016  1.985   .     S
O1009  Zn1015  1.978   .     S
O1010  Zn1016  1.978   .     S
O1011  Zn1015  1.950   .     S
O1012  Zn1016  1.950   .     S
O1013  Zn1015  1.947   .     S
O1014  Zn1016  1.947   .     S
N1017  H1018   1.045   .     S
N1017  H1019   1.045   .     S
N1020  H1021   1.045   .     S
N1020  H1022   1.045   .     S
N1023  H1025   1.045   .     S
N1023  H1024   1.045   .     S
N1026  H1028   1.045   .     S
N1026  H1027   1.045   .     S
N1029  H1030   1.045   .     S
N1029  H1031   1.045   .     S
N1032  H1033   1.041   .     S
N1032  H1034   1.039   .     S
N1035  H1036   1.045   .     S
N1035  H1037   1.046   .     S
N1038  H1040   1.045   .     S
N1038  H1039   1.045   .     S
C1041  O1062   1.283   .     A
C1041  C1052   1.406   .     S
C1041  O1059   1.284   .     A
C1042  O1061   1.283   .     A
C1042  C1051   1.406   .     S
C1042  O1060   1.284   .     A
C1043  O1063   1.283   .     A
C1043  O1066   1.282   .     A
C1043  C1045   1.365   .     S
C1044  O1065   1.282   .     A
C1044  O1064   1.283   .     A
C1044  C1046   1.366   .     S
C1046  C109    1.165   1_556 S
C1047  N1069   1.437   .     S
C1047  C1052   1.399   .     A
C1048  C1051   1.399   .     A
C1048  N1072   1.437   .     S
C1048  C946    1.389   1_655 S
C1049  C1051   1.399   .     A
C1049  N1075   1.437   .     S
C1049  C943    1.389   1_655 S
C1050  N1078   1.437   .     S
C1050  C1052   1.399   .     A
C1053  N1081   1.430   .     S
C1053  N1058   1.370   .     A
C1053  C1368   1.437   1_545 S
C1054  N1084   1.429   .     S
C1054  N1057   1.384   .     A
C1054  C1211   1.422   .     S
C1055  N1058   1.359   .     A
C1055  N1087   1.431   .     S
C1055  C1366   1.422   1_545 S
C1056  N1090   1.431   .     S
C1056  N1057   1.369   .     A
C1056  C1209   1.437   .     S
N1057  Zn1067  2.025   .     S
N1058  Zn1068  2.025   .     S
O1059  Zn1067  1.985   .     S
O1060  Zn1068  1.985   .     S
O1061  Zn1067  1.978   .     S
O1062  Zn1068  1.978   .     S
O1063  Zn1067  1.950   .     S
O1064  Zn1068  1.950   .     S
O1065  Zn1067  1.947   .     S
O1066  Zn1068  1.947   .     S
N1069  H1070   1.045   .     S
N1069  H1071   1.045   .     S
N1072  H1073   1.045   .     S
N1072  H1074   1.045   .     S
N1075  H1077   1.045   .     S
N1075  H1076   1.045   .     S
N1078  H1080   1.045   .     S
N1078  H1079   1.045   .     S
N1081  H1082   1.045   .     S
N1081  H1083   1.045   .     S
N1084  H1085   1.041   .     S
N1084  H1086   1.039   .     S
N1087  H1088   1.045   .     S
N1087  H1089   1.046   .     S
N1090  H1092   1.045   .     S
N1090  H1091   1.045   .     S
C1093  O1114   1.283   .     A
C1093  C1104   1.406   .     S
C1093  O1111   1.284   .     A
C1094  O1113   1.283   .     A
C1094  C1103   1.406   .     S
C1094  O1112   1.284   .     A
C1095  O1115   1.283   .     A
C1095  O1118   1.282   .     A
C1095  C1097   1.365   .     S
C1096  O1117   1.282   .     A
C1096  O1116   1.283   .     A
C1096  C1098   1.366   .     S
C1098  C161    1.165   1_556 S
C1099  N1121   1.437   .     S
C1099  C1104   1.399   .     A
C1099  C1205   1.389   1_455 S
C1100  C1103   1.399   .     A
C1100  N1124   1.437   .     S
C1100  C1154   1.389   .     S
C1101  C1103   1.399   .     A
C1101  N1127   1.437   .     S
C1101  C1151   1.389   .     S
C1102  N1130   1.437   .     S
C1102  C1104   1.399   .     A
C1102  C1204   1.389   1_455 S
C1105  N1133   1.430   .     S
C1105  N1110   1.370   .     A
C1106  N1136   1.429   .     S
C1106  N1109   1.384   .     A
C1106  C1263   1.422   .     S
C1107  N1110   1.359   .     A
C1107  N1139   1.431   .     S
C1108  N1142   1.431   .     S
C1108  N1109   1.369   .     A
C1108  C1261   1.437   .     S
N1109  Zn1119  2.025   .     S
N1110  Zn1120  2.025   .     S
O1111  Zn1119  1.985   .     S
O1112  Zn1120  1.985   .     S
O1113  Zn1119  1.978   .     S
O1114  Zn1120  1.978   .     S
O1115  Zn1119  1.950   .     S
O1116  Zn1120  1.950   .     S
O1117  Zn1119  1.947   .     S
O1118  Zn1120  1.947   .     S
N1121  H1122   1.045   .     S
N1121  H1123   1.045   .     S
N1124  H1125   1.045   .     S
N1124  H1126   1.045   .     S
N1127  H1129   1.045   .     S
N1127  H1128   1.045   .     S
N1130  H1132   1.045   .     S
N1130  H1131   1.045   .     S
N1133  H1134   1.045   .     S
N1133  H1135   1.045   .     S
N1136  H1137   1.041   .     S
N1136  H1138   1.039   .     S
N1139  H1140   1.045   .     S
N1139  H1141   1.046   .     S
N1142  H1144   1.045   .     S
N1142  H1143   1.045   .     S
C1145  O1166   1.283   .     A
C1145  C1156   1.406   .     S
C1145  O1163   1.284   .     A
C1146  O1165   1.283   .     A
C1146  C1155   1.406   .     S
C1146  O1164   1.284   .     A
C1147  O1167   1.283   .     A
C1147  O1170   1.282   .     A
C1147  C1149   1.365   .     S
C1148  O1169   1.282   .     A
C1148  O1168   1.283   .     A
C1148  C1150   1.366   .     S
C1150  C213    1.165   1_556 S
C1151  N1173   1.437   .     S
C1151  C1156   1.399   .     A
C1152  C1155   1.399   .     A
C1152  N1176   1.437   .     S
C1152  C1206   1.389   .     S
C1153  C1155   1.399   .     A
C1153  N1179   1.437   .     S
C1153  C1203   1.389   .     S
C1154  N1182   1.437   .     S
C1154  C1156   1.399   .     A
C1157  N1185   1.430   .     S
C1157  N1162   1.370   .     A
C1158  N1188   1.429   .     S
C1158  N1161   1.384   .     A
C1158  C1315   1.422   .     S
C1159  N1162   1.359   .     A
C1159  N1191   1.431   .     S
C1160  N1194   1.431   .     S
C1160  N1161   1.369   .     A
C1160  C1313   1.437   .     S
N1161  Zn1171  2.025   .     S
N1162  Zn1172  2.025   .     S
O1163  Zn1171  1.985   .     S
O1164  Zn1172  1.985   .     S
O1165  Zn1171  1.978   .     S
O1166  Zn1172  1.978   .     S
O1167  Zn1171  1.950   .     S
O1168  Zn1172  1.950   .     S
O1169  Zn1171  1.947   .     S
O1170  Zn1172  1.947   .     S
N1173  H1174   1.045   .     S
N1173  H1175   1.045   .     S
N1176  H1177   1.045   .     S
N1176  H1178   1.045   .     S
N1179  H1181   1.045   .     S
N1179  H1180   1.045   .     S
N1182  H1184   1.045   .     S
N1182  H1183   1.045   .     S
N1185  H1186   1.045   .     S
N1185  H1187   1.045   .     S
N1188  H1189   1.041   .     S
N1188  H1190   1.039   .     S
N1191  H1192   1.045   .     S
N1191  H1193   1.046   .     S
N1194  H1196   1.045   .     S
N1194  H1195   1.045   .     S
C1197  O1218   1.283   .     A
C1197  C1208   1.406   .     S
C1197  O1215   1.284   .     A
C1198  O1217   1.283   .     A
C1198  C1207   1.406   .     S
C1198  O1216   1.284   .     A
C1199  O1219   1.283   .     A
C1199  O1222   1.282   .     A
C1199  C1201   1.365   .     S
C1200  O1221   1.282   .     A
C1200  O1220   1.283   .     A
C1200  C1202   1.366   .     S
C1202  C265    1.165   1_556 S
C1203  N1225   1.437   .     S
C1203  C1208   1.399   .     A
C1204  C1207   1.399   .     A
C1204  N1228   1.437   .     S
C1204  C1102   1.389   1_655 S
C1205  C1207   1.399   .     A
C1205  N1231   1.437   .     S
C1205  C1099   1.389   1_655 S
C1206  N1234   1.437   .     S
C1206  C1208   1.399   .     A
C1209  N1237   1.430   .     S
C1209  N1214   1.370   .     A
C1210  N1240   1.429   .     S
C1210  N1213   1.384   .     A
C1210  C1367   1.422   .     S
C1211  N1214   1.359   .     A
C1211  N1243   1.431   .     S
C1212  N1246   1.431   .     S
C1212  N1213   1.369   .     A
C1212  C1365   1.437   .     S
N1213  Zn1223  2.025   .     S
N1214  Zn1224  2.025   .     S
O1215  Zn1223  1.985   .     S
O1216  Zn1224  1.985   .     S
O1217  Zn1223  1.978   .     S
O1218  Zn1224  1.978   .     S
O1219  Zn1223  1.950   .     S
O1220  Zn1224  1.950   .     S
O1221  Zn1223  1.947   .     S
O1222  Zn1224  1.947   .     S
N1225  H1226   1.045   .     S
N1225  H1227   1.045   .     S
N1228  H1229   1.045   .     S
N1228  H1230   1.045   .     S
N1231  H1233   1.045   .     S
N1231  H1232   1.045   .     S
N1234  H1236   1.045   .     S
N1234  H1235   1.045   .     S
N1237  H1238   1.045   .     S
N1237  H1239   1.045   .     S
N1240  H1241   1.041   .     S
N1240  H1242   1.039   .     S
N1243  H1244   1.045   .     S
N1243  H1245   1.046   .     S
N1246  H1248   1.045   .     S
N1246  H1247   1.045   .     S
C1249  O1270   1.283   .     A
C1249  C1260   1.406   .     S
C1249  O1267   1.284   .     A
C1250  O1269   1.283   .     A
C1250  C1259   1.406   .     S
C1250  O1268   1.284   .     A
C1251  O1271   1.283   .     A
C1251  O1274   1.282   .     A
C1251  C1253   1.365   .     S
C1252  O1273   1.282   .     A
C1252  O1272   1.283   .     A
C1252  C1254   1.366   .     S
C1254  C317    1.165   1_556 S
C1255  N1277   1.437   .     S
C1255  C1260   1.399   .     A
C1255  C1361   1.389   1_455 S
C1256  C1259   1.399   .     A
C1256  N1280   1.437   .     S
C1256  C1310   1.389   .     S
C1257  C1259   1.399   .     A
C1257  N1283   1.437   .     S
C1257  C1307   1.389   .     S
C1258  N1286   1.437   .     S
C1258  C1260   1.399   .     A
C1258  C1360   1.389   1_455 S
C1261  N1289   1.430   .     S
C1261  N1266   1.370   .     A
C1262  N1292   1.429   .     S
C1262  N1265   1.384   .     A
C1262  C951    1.422   1_565 S
C1263  N1266   1.359   .     A
C1263  N1295   1.431   .     S
C1264  N1298   1.431   .     S
C1264  N1265   1.369   .     A
C1264  C949    1.437   1_565 S
N1265  Zn1275  2.025   .     S
N1266  Zn1276  2.025   .     S
O1267  Zn1275  1.985   .     S
O1268  Zn1276  1.985   .     S
O1269  Zn1275  1.978   .     S
O1270  Zn1276  1.978   .     S
O1271  Zn1275  1.950   .     S
O1272  Zn1276  1.950   .     S
O1273  Zn1275  1.947   .     S
O1274  Zn1276  1.947   .     S
N1277  H1278   1.045   .     S
N1277  H1279   1.045   .     S
N1280  H1281   1.045   .     S
N1280  H1282   1.045   .     S
N1283  H1285   1.045   .     S
N1283  H1284   1.045   .     S
N1286  H1288   1.045   .     S
N1286  H1287   1.045   .     S
N1289  H1290   1.045   .     S
N1289  H1291   1.045   .     S
N1292  H1293   1.041   .     S
N1292  H1294   1.039   .     S
N1295  H1296   1.045   .     S
N1295  H1297   1.046   .     S
N1298  H1300   1.045   .     S
N1298  H1299   1.045   .     S
C1301  O1322   1.283   .     A
C1301  C1312   1.406   .     S
C1301  O1319   1.284   .     A
C1302  O1321   1.283   .     A
C1302  C1311   1.406   .     S
C1302  O1320   1.284   .     A
C1303  O1323   1.283   .     A
C1303  O1326   1.282   .     A
C1303  C1305   1.365   .     S
C1304  O1325   1.282   .     A
C1304  O1324   1.283   .     A
C1304  C1306   1.366   .     S
C1306  C369    1.165   1_556 S
C1307  N1329   1.437   .     S
C1307  C1312   1.399   .     A
C1308  C1311   1.399   .     A
C1308  N1332   1.437   .     S
C1308  C1362   1.389   .     S
C1309  C1311   1.399   .     A
C1309  N1335   1.437   .     S
C1309  C1359   1.389   .     S
C1310  N1338   1.437   .     S
C1310  C1312   1.399   .     A
C1313  N1341   1.430   .     S
C1313  N1318   1.370   .     A
C1314  N1344   1.429   .     S
C1314  N1317   1.384   .     A
C1314  C1003   1.422   1_565 S
C1315  N1318   1.359   .     A
C1315  N1347   1.431   .     S
C1316  N1350   1.431   .     S
C1316  N1317   1.369   .     A
C1316  C1001   1.437   1_565 S
N1317  Zn1327  2.025   .     S
N1318  Zn1328  2.025   .     S
O1319  Zn1327  1.985   .     S
O1320  Zn1328  1.985   .     S
O1321  Zn1327  1.978   .     S
O1322  Zn1328  1.978   .     S
O1323  Zn1327  1.950   .     S
O1324  Zn1328  1.950   .     S
O1325  Zn1327  1.947   .     S
O1326  Zn1328  1.947   .     S
N1329  H1330   1.045   .     S
N1329  H1331   1.045   .     S
N1332  H1333   1.045   .     S
N1332  H1334   1.045   .     S
N1335  H1337   1.045   .     S
N1335  H1336   1.045   .     S
N1338  H1340   1.045   .     S
N1338  H1339   1.045   .     S
N1341  H1342   1.045   .     S
N1341  H1343   1.045   .     S
N1344  H1345   1.041   .     S
N1344  H1346   1.039   .     S
N1347  H1348   1.045   .     S
N1347  H1349   1.046   .     S
N1350  H1352   1.045   .     S
N1350  H1351   1.045   .     S
C1353  O1374   1.283   .     A
C1353  C1364   1.406   .     S
C1353  O1371   1.284   .     A
C1354  O1373   1.283   .     A
C1354  C1363   1.406   .     S
C1354  O1372   1.284   .     A
C1355  O1375   1.283   .     A
C1355  O1378   1.282   .     A
C1355  C1357   1.365   .     S
C1356  O1377   1.282   .     A
C1356  O1376   1.283   .     A
C1356  C1358   1.366   .     S
C1358  C421    1.165   1_556 S
C1359  N1381   1.437   .     S
C1359  C1364   1.399   .     A
C1360  C1363   1.399   .     A
C1360  N1384   1.437   .     S
C1360  C1258   1.389   1_655 S
C1361  C1363   1.399   .     A
C1361  N1387   1.437   .     S
C1361  C1255   1.389   1_655 S
C1362  N1390   1.437   .     S
C1362  C1364   1.399   .     A
C1365  N1393   1.430   .     S
C1365  N1370   1.370   .     A
C1366  N1396   1.429   .     S
C1366  N1369   1.384   .     A
C1366  C1055   1.422   1_565 S
C1367  N1370   1.359   .     A
C1367  N1399   1.431   .     S
C1368  N1402   1.431   .     S
C1368  N1369   1.369   .     A
C1368  C1053   1.437   1_565 S
N1369  Zn1379  2.025   .     S
N1370  Zn1380  2.025   .     S
O1371  Zn1379  1.985   .     S
O1372  Zn1380  1.985   .     S
O1373  Zn1379  1.978   .     S
O1374  Zn1380  1.978   .     S
O1375  Zn1379  1.950   .     S
O1376  Zn1380  1.950   .     S
O1377  Zn1379  1.947   .     S
O1378  Zn1380  1.947   .     S
N1381  H1382   1.045   .     S
N1381  H1383   1.045   .     S
N1384  H1385   1.045   .     S
N1384  H1386   1.045   .     S
N1387  H1389   1.045   .     S
N1387  H1388   1.045   .     S
N1390  H1392   1.045   .     S
N1390  H1391   1.045   .     S
N1393  H1394   1.045   .     S
N1393  H1395   1.045   .     S
N1396  H1397   1.041   .     S
N1396  H1398   1.039   .     S
N1399  H1400   1.045   .     S
N1399  H1401   1.046   .     S
N1402  H1404   1.045   .     S
N1402  H1403   1.045   .     S
