data_str_m3_o1_o5_pcu_sym.45
_audit_creation_date              2020-01-03
_audit_creation_method            'Materials Studio'
_symmetry_space_group_name_H-M    'P1'
_symmetry_Int_Tables_number       1
_symmetry_cell_setting            triclinic
loop_
_symmetry_equiv_pos_as_xyz
  x,y,z
_cell_length_a                    31.8755
_cell_length_b                    29.6188
_cell_length_c                    26.7268
_cell_angle_alpha                 89.9636
_cell_angle_beta                  90.1268
_cell_angle_gamma                 89.9772
loop_
_atom_site_label
_atom_site_type_symbol
_atom_site_fract_x
_atom_site_fract_y
_atom_site_fract_z
_atom_site_U_iso_or_equiv
_atom_site_adp_type
_atom_site_occupancy
Br1    Br    0.05206   0.13058   0.06575   0.00000  Uiso   1.00
Br2    Br    0.28128   0.20263   0.26760   0.00000  Uiso   1.00
Br3    Br    0.28095   0.13065   0.06570   0.00000  Uiso   1.00
Br4    Br    0.05238   0.20273   0.26760   0.00000  Uiso   1.00
C5     C     0.08679   0.16667   0.16666   0.00000  Uiso   1.00
C6     C     0.02176   0.18259   0.20920   0.00000  Uiso   1.00
C7     C     0.29066   0.16665   0.16666   0.00000  Uiso   1.00
C8     C     0.04267   0.16668   0.16667   0.00000  Uiso   1.00
C9     C     0.19292   0.02391   0.19756   0.00000  Uiso   1.00
C10    C     0.14042   0.30942   0.13577   0.00000  Uiso   1.00
C11    C     0.14042   0.02398   0.13577   0.00000  Uiso   1.00
C12    C     0.19292   0.30935   0.19756   0.00000  Uiso   1.00
C13    C     0.24654   0.16666   0.16666   0.00000  Uiso   1.00
C14    C     0.16664   0.16668   0.07290   0.00000  Uiso   1.00
C15    C     0.16669   0.16665   0.26043   0.00000  Uiso   1.00
C16    C     0.16666   0.16668   0.02180   0.00000  Uiso   1.00
C17    C     0.16667   0.16665   0.31154   0.00000  Uiso   1.00
C18    C     0.02162   0.15075   0.12413   0.00000  Uiso   1.00
C19    C     0.31171   0.18257   0.20919   0.00000  Uiso   1.00
C20    C     0.31157   0.15076   0.12412   0.00000  Uiso   1.00
H21    H     0.21394   0.04196   0.22230   0.00000  Uiso   1.00
H22    H     0.11941   0.29137   0.11102   0.00000  Uiso   1.00
H23    H     0.11940   0.04208   0.11103   0.00000  Uiso   1.00
H24    H     0.21393   0.29125   0.22231   0.00000  Uiso   1.00
N25    N     0.16667   0.28573   0.16667   0.00000  Uiso   1.00
N26    N     0.16667   0.04760   0.16667   0.00000  Uiso   1.00
O27    O     0.10559   0.20487   0.16666   0.00000  Uiso   1.00
O28    O     0.22774   0.12846   0.16667   0.00000  Uiso   1.00
O29    O     0.22774   0.20487   0.16667   0.00000  Uiso   1.00
O30    O     0.10559   0.12846   0.16666   0.00000  Uiso   1.00
O31    O     0.16667   0.20488   0.09511   0.00000  Uiso   1.00
O32    O     0.16666   0.12845   0.23822   0.00000  Uiso   1.00
O33    O     0.16666   0.20488   0.23822   0.00000  Uiso   1.00
O34    O     0.16667   0.12845   0.09511   0.00000  Uiso   1.00
Zn35   Zn    0.16667   0.21771   0.16667   0.00000  Uiso   1.00
Zn36   Zn    0.16667   0.11563   0.16667   0.00000  Uiso   1.00
Br37   Br    0.38539   0.13058   0.06575   0.00000  Uiso   1.00
Br38   Br    0.61461   0.20263   0.26760   0.00000  Uiso   1.00
Br39   Br    0.61428   0.13065   0.06570   0.00000  Uiso   1.00
Br40   Br    0.38571   0.20273   0.26760   0.00000  Uiso   1.00
C41    C     0.42012   0.16667   0.16666   0.00000  Uiso   1.00
C42    C     0.35509   0.18259   0.20920   0.00000  Uiso   1.00
C43    C     0.62400   0.16665   0.16666   0.00000  Uiso   1.00
C44    C     0.37600   0.16668   0.16667   0.00000  Uiso   1.00
C45    C     0.52625   0.02391   0.19756   0.00000  Uiso   1.00
C46    C     0.47376   0.30942   0.13577   0.00000  Uiso   1.00
C47    C     0.47375   0.02398   0.13577   0.00000  Uiso   1.00
C48    C     0.52625   0.30935   0.19756   0.00000  Uiso   1.00
C49    C     0.57987   0.16666   0.16666   0.00000  Uiso   1.00
C50    C     0.49998   0.16668   0.07290   0.00000  Uiso   1.00
C51    C     0.50002   0.16665   0.26043   0.00000  Uiso   1.00
C52    C     0.49999   0.16668   0.02180   0.00000  Uiso   1.00
C53    C     0.50001   0.16665   0.31154   0.00000  Uiso   1.00
C54    C     0.35495   0.15075   0.12413   0.00000  Uiso   1.00
C55    C     0.64504   0.18257   0.20919   0.00000  Uiso   1.00
C56    C     0.64490   0.15076   0.12412   0.00000  Uiso   1.00
H57    H     0.54727   0.04196   0.22230   0.00000  Uiso   1.00
H58    H     0.45274   0.29137   0.11102   0.00000  Uiso   1.00
H59    H     0.45274   0.04208   0.11103   0.00000  Uiso   1.00
H60    H     0.54726   0.29125   0.22231   0.00000  Uiso   1.00
N61    N     0.50000   0.28573   0.16667   0.00000  Uiso   1.00
N62    N     0.50000   0.04760   0.16667   0.00000  Uiso   1.00
O63    O     0.43892   0.20487   0.16666   0.00000  Uiso   1.00
O64    O     0.56108   0.12846   0.16667   0.00000  Uiso   1.00
O65    O     0.56108   0.20487   0.16667   0.00000  Uiso   1.00
O66    O     0.43892   0.12846   0.16666   0.00000  Uiso   1.00
O67    O     0.50000   0.20488   0.09511   0.00000  Uiso   1.00
O68    O     0.50000   0.12845   0.23822   0.00000  Uiso   1.00
O69    O     0.50000   0.20488   0.23822   0.00000  Uiso   1.00
O70    O     0.50000   0.12845   0.09511   0.00000  Uiso   1.00
Zn71   Zn    0.50000   0.21771   0.16667   0.00000  Uiso   1.00
Zn72   Zn    0.50000   0.11563   0.16667   0.00000  Uiso   1.00
Br73   Br    0.71872   0.13058   0.06575   0.00000  Uiso   1.00
Br74   Br    0.94794   0.20263   0.26760   0.00000  Uiso   1.00
Br75   Br    0.94761   0.13065   0.06570   0.00000  Uiso   1.00
Br76   Br    0.71905   0.20273   0.26760   0.00000  Uiso   1.00
C77    C     0.75346   0.16667   0.16666   0.00000  Uiso   1.00
C78    C     0.68843   0.18259   0.20920   0.00000  Uiso   1.00
C79    C     0.95733   0.16665   0.16666   0.00000  Uiso   1.00
C80    C     0.70933   0.16668   0.16667   0.00000  Uiso   1.00
C81    C     0.85958   0.02391   0.19756   0.00000  Uiso   1.00
C82    C     0.80709   0.30942   0.13577   0.00000  Uiso   1.00
C83    C     0.80709   0.02398   0.13577   0.00000  Uiso   1.00
C84    C     0.85958   0.30935   0.19756   0.00000  Uiso   1.00
C85    C     0.91321   0.16666   0.16666   0.00000  Uiso   1.00
C86    C     0.83331   0.16668   0.07290   0.00000  Uiso   1.00
C87    C     0.83335   0.16665   0.26043   0.00000  Uiso   1.00
C88    C     0.83332   0.16668   0.02180   0.00000  Uiso   1.00
C89    C     0.83334   0.16665   0.31154   0.00000  Uiso   1.00
C90    C     0.68829   0.15075   0.12413   0.00000  Uiso   1.00
C91    C     0.97838   0.18257   0.20919   0.00000  Uiso   1.00
C92    C     0.97824   0.15076   0.12412   0.00000  Uiso   1.00
H93    H     0.88060   0.04196   0.22230   0.00000  Uiso   1.00
H94    H     0.78608   0.29137   0.11102   0.00000  Uiso   1.00
H95    H     0.78607   0.04208   0.11103   0.00000  Uiso   1.00
H96    H     0.88060   0.29125   0.22231   0.00000  Uiso   1.00
N97    N     0.83333   0.28573   0.16667   0.00000  Uiso   1.00
N98    N     0.83333   0.04760   0.16667   0.00000  Uiso   1.00
O99    O     0.77226   0.20487   0.16666   0.00000  Uiso   1.00
O100   O     0.89441   0.12846   0.16667   0.00000  Uiso   1.00
O101   O     0.89441   0.20487   0.16667   0.00000  Uiso   1.00
O102   O     0.77226   0.12846   0.16666   0.00000  Uiso   1.00
O103   O     0.83334   0.20488   0.09511   0.00000  Uiso   1.00
O104   O     0.83333   0.12845   0.23822   0.00000  Uiso   1.00
O105   O     0.83333   0.20488   0.23822   0.00000  Uiso   1.00
O106   O     0.83334   0.12845   0.09511   0.00000  Uiso   1.00
Zn107  Zn    0.83333   0.21771   0.16667   0.00000  Uiso   1.00
Zn108  Zn    0.83333   0.11563   0.16667   0.00000  Uiso   1.00
Br109  Br    0.05206   0.46391   0.06575   0.00000  Uiso   1.00
Br110  Br    0.28128   0.53597   0.26760   0.00000  Uiso   1.00
Br111  Br    0.28095   0.46398   0.06570   0.00000  Uiso   1.00
Br112  Br    0.05238   0.53606   0.26760   0.00000  Uiso   1.00
C113   C     0.08679   0.50001   0.16666   0.00000  Uiso   1.00
C114   C     0.02176   0.51592   0.20920   0.00000  Uiso   1.00
C115   C     0.29066   0.49998   0.16666   0.00000  Uiso   1.00
C116   C     0.04267   0.50001   0.16667   0.00000  Uiso   1.00
C117   C     0.19292   0.35725   0.19756   0.00000  Uiso   1.00
C118   C     0.14042   0.64275   0.13577   0.00000  Uiso   1.00
C119   C     0.14042   0.35731   0.13577   0.00000  Uiso   1.00
C120   C     0.19292   0.64269   0.19756   0.00000  Uiso   1.00
C121   C     0.24654   0.49999   0.16666   0.00000  Uiso   1.00
C122   C     0.16664   0.50001   0.07290   0.00000  Uiso   1.00
C123   C     0.16669   0.49999   0.26043   0.00000  Uiso   1.00
C124   C     0.16666   0.50002   0.02180   0.00000  Uiso   1.00
C125   C     0.16667   0.49998   0.31154   0.00000  Uiso   1.00
C126   C     0.02162   0.48408   0.12413   0.00000  Uiso   1.00
C127   C     0.31171   0.51590   0.20919   0.00000  Uiso   1.00
C128   C     0.31157   0.48409   0.12412   0.00000  Uiso   1.00
H129   H     0.21394   0.37530   0.22230   0.00000  Uiso   1.00
H130   H     0.11941   0.62470   0.11102   0.00000  Uiso   1.00
H131   H     0.11940   0.37542   0.11103   0.00000  Uiso   1.00
H132   H     0.21393   0.62458   0.22231   0.00000  Uiso   1.00
N133   N     0.16667   0.61907   0.16667   0.00000  Uiso   1.00
N134   N     0.16667   0.38093   0.16667   0.00000  Uiso   1.00
O135   O     0.10559   0.53821   0.16666   0.00000  Uiso   1.00
O136   O     0.22774   0.46179   0.16667   0.00000  Uiso   1.00
O137   O     0.22774   0.53821   0.16667   0.00000  Uiso   1.00
O138   O     0.10559   0.46179   0.16666   0.00000  Uiso   1.00
O139   O     0.16667   0.53821   0.09511   0.00000  Uiso   1.00
O140   O     0.16666   0.46179   0.23822   0.00000  Uiso   1.00
O141   O     0.16666   0.53821   0.23822   0.00000  Uiso   1.00
O142   O     0.16667   0.46179   0.09511   0.00000  Uiso   1.00
Zn143  Zn    0.16667   0.55104   0.16667   0.00000  Uiso   1.00
Zn144  Zn    0.16667   0.44896   0.16667   0.00000  Uiso   1.00
Br145  Br    0.38539   0.46391   0.06575   0.00000  Uiso   1.00
Br146  Br    0.61461   0.53597   0.26760   0.00000  Uiso   1.00
Br147  Br    0.61428   0.46398   0.06570   0.00000  Uiso   1.00
Br148  Br    0.38571   0.53606   0.26760   0.00000  Uiso   1.00
C149   C     0.42012   0.50001   0.16666   0.00000  Uiso   1.00
C150   C     0.35509   0.51592   0.20920   0.00000  Uiso   1.00
C151   C     0.62400   0.49998   0.16666   0.00000  Uiso   1.00
C152   C     0.37600   0.50001   0.16667   0.00000  Uiso   1.00
C153   C     0.52625   0.35725   0.19756   0.00000  Uiso   1.00
C154   C     0.47376   0.64275   0.13577   0.00000  Uiso   1.00
C155   C     0.47375   0.35731   0.13577   0.00000  Uiso   1.00
C156   C     0.52625   0.64269   0.19756   0.00000  Uiso   1.00
C157   C     0.57987   0.49999   0.16666   0.00000  Uiso   1.00
C158   C     0.49998   0.50001   0.07290   0.00000  Uiso   1.00
C159   C     0.50002   0.49999   0.26043   0.00000  Uiso   1.00
C160   C     0.49999   0.50002   0.02180   0.00000  Uiso   1.00
C161   C     0.50001   0.49998   0.31154   0.00000  Uiso   1.00
C162   C     0.35495   0.48408   0.12413   0.00000  Uiso   1.00
C163   C     0.64504   0.51590   0.20919   0.00000  Uiso   1.00
C164   C     0.64490   0.48409   0.12412   0.00000  Uiso   1.00
H165   H     0.54727   0.37530   0.22230   0.00000  Uiso   1.00
H166   H     0.45274   0.62470   0.11102   0.00000  Uiso   1.00
H167   H     0.45274   0.37542   0.11103   0.00000  Uiso   1.00
H168   H     0.54726   0.62458   0.22231   0.00000  Uiso   1.00
N169   N     0.50000   0.61907   0.16667   0.00000  Uiso   1.00
N170   N     0.50000   0.38093   0.16667   0.00000  Uiso   1.00
O171   O     0.43892   0.53821   0.16666   0.00000  Uiso   1.00
O172   O     0.56108   0.46179   0.16667   0.00000  Uiso   1.00
O173   O     0.56108   0.53821   0.16667   0.00000  Uiso   1.00
O174   O     0.43892   0.46179   0.16666   0.00000  Uiso   1.00
O175   O     0.50000   0.53821   0.09511   0.00000  Uiso   1.00
O176   O     0.50000   0.46179   0.23822   0.00000  Uiso   1.00
O177   O     0.50000   0.53821   0.23822   0.00000  Uiso   1.00
O178   O     0.50000   0.46179   0.09511   0.00000  Uiso   1.00
Zn179  Zn    0.50000   0.55104   0.16667   0.00000  Uiso   1.00
Zn180  Zn    0.50000   0.44896   0.16667   0.00000  Uiso   1.00
Br181  Br    0.71872   0.46391   0.06575   0.00000  Uiso   1.00
Br182  Br    0.94794   0.53597   0.26760   0.00000  Uiso   1.00
Br183  Br    0.94761   0.46398   0.06570   0.00000  Uiso   1.00
Br184  Br    0.71905   0.53606   0.26760   0.00000  Uiso   1.00
C185   C     0.75346   0.50001   0.16666   0.00000  Uiso   1.00
C186   C     0.68843   0.51592   0.20920   0.00000  Uiso   1.00
C187   C     0.95733   0.49998   0.16666   0.00000  Uiso   1.00
C188   C     0.70933   0.50001   0.16667   0.00000  Uiso   1.00
C189   C     0.85958   0.35725   0.19756   0.00000  Uiso   1.00
C190   C     0.80709   0.64275   0.13577   0.00000  Uiso   1.00
C191   C     0.80709   0.35731   0.13577   0.00000  Uiso   1.00
C192   C     0.85958   0.64269   0.19756   0.00000  Uiso   1.00
C193   C     0.91321   0.49999   0.16666   0.00000  Uiso   1.00
C194   C     0.83331   0.50001   0.07290   0.00000  Uiso   1.00
C195   C     0.83335   0.49999   0.26043   0.00000  Uiso   1.00
C196   C     0.83332   0.50002   0.02180   0.00000  Uiso   1.00
C197   C     0.83334   0.49998   0.31154   0.00000  Uiso   1.00
C198   C     0.68829   0.48408   0.12413   0.00000  Uiso   1.00
C199   C     0.97838   0.51590   0.20919   0.00000  Uiso   1.00
C200   C     0.97824   0.48409   0.12412   0.00000  Uiso   1.00
H201   H     0.88060   0.37530   0.22230   0.00000  Uiso   1.00
H202   H     0.78608   0.62470   0.11102   0.00000  Uiso   1.00
H203   H     0.78607   0.37542   0.11103   0.00000  Uiso   1.00
H204   H     0.88060   0.62458   0.22231   0.00000  Uiso   1.00
N205   N     0.83333   0.61907   0.16667   0.00000  Uiso   1.00
N206   N     0.83333   0.38093   0.16667   0.00000  Uiso   1.00
O207   O     0.77226   0.53821   0.16666   0.00000  Uiso   1.00
O208   O     0.89441   0.46179   0.16667   0.00000  Uiso   1.00
O209   O     0.89441   0.53821   0.16667   0.00000  Uiso   1.00
O210   O     0.77226   0.46179   0.16666   0.00000  Uiso   1.00
O211   O     0.83334   0.53821   0.09511   0.00000  Uiso   1.00
O212   O     0.83333   0.46179   0.23822   0.00000  Uiso   1.00
O213   O     0.83333   0.53821   0.23822   0.00000  Uiso   1.00
O214   O     0.83334   0.46179   0.09511   0.00000  Uiso   1.00
Zn215  Zn    0.83333   0.55104   0.16667   0.00000  Uiso   1.00
Zn216  Zn    0.83333   0.44896   0.16667   0.00000  Uiso   1.00
Br217  Br    0.05206   0.79724   0.06575   0.00000  Uiso   1.00
Br218  Br    0.28128   0.86930   0.26760   0.00000  Uiso   1.00
Br219  Br    0.28095   0.79731   0.06570   0.00000  Uiso   1.00
Br220  Br    0.05238   0.86940   0.26760   0.00000  Uiso   1.00
C221   C     0.08679   0.83334   0.16666   0.00000  Uiso   1.00
C222   C     0.02176   0.84925   0.20920   0.00000  Uiso   1.00
C223   C     0.29066   0.83332   0.16666   0.00000  Uiso   1.00
C224   C     0.04267   0.83335   0.16667   0.00000  Uiso   1.00
C225   C     0.19292   0.69058   0.19756   0.00000  Uiso   1.00
C226   C     0.14042   0.97609   0.13577   0.00000  Uiso   1.00
C227   C     0.14042   0.69065   0.13577   0.00000  Uiso   1.00
C228   C     0.19292   0.97602   0.19756   0.00000  Uiso   1.00
C229   C     0.24654   0.83333   0.16666   0.00000  Uiso   1.00
C230   C     0.16664   0.83335   0.07290   0.00000  Uiso   1.00
C231   C     0.16669   0.83332   0.26043   0.00000  Uiso   1.00
C232   C     0.16666   0.83335   0.02180   0.00000  Uiso   1.00
C233   C     0.16667   0.83332   0.31154   0.00000  Uiso   1.00
C234   C     0.02162   0.81742   0.12413   0.00000  Uiso   1.00
C235   C     0.31171   0.84923   0.20919   0.00000  Uiso   1.00
C236   C     0.31157   0.81742   0.12412   0.00000  Uiso   1.00
H237   H     0.21394   0.70863   0.22230   0.00000  Uiso   1.00
H238   H     0.11941   0.95804   0.11102   0.00000  Uiso   1.00
H239   H     0.11940   0.70875   0.11103   0.00000  Uiso   1.00
H240   H     0.21393   0.95792   0.22231   0.00000  Uiso   1.00
N241   N     0.16667   0.95240   0.16667   0.00000  Uiso   1.00
N242   N     0.16667   0.71427   0.16667   0.00000  Uiso   1.00
O243   O     0.10559   0.87154   0.16666   0.00000  Uiso   1.00
O244   O     0.22774   0.79513   0.16667   0.00000  Uiso   1.00
O245   O     0.22774   0.87154   0.16667   0.00000  Uiso   1.00
O246   O     0.10559   0.79513   0.16666   0.00000  Uiso   1.00
O247   O     0.16667   0.87155   0.09511   0.00000  Uiso   1.00
O248   O     0.16666   0.79512   0.23822   0.00000  Uiso   1.00
O249   O     0.16666   0.87155   0.23822   0.00000  Uiso   1.00
O250   O     0.16667   0.79512   0.09511   0.00000  Uiso   1.00
Zn251  Zn    0.16667   0.88437   0.16667   0.00000  Uiso   1.00
Zn252  Zn    0.16667   0.78229   0.16667   0.00000  Uiso   1.00
Br253  Br    0.38539   0.79724   0.06575   0.00000  Uiso   1.00
Br254  Br    0.61461   0.86930   0.26760   0.00000  Uiso   1.00
Br255  Br    0.61428   0.79731   0.06570   0.00000  Uiso   1.00
Br256  Br    0.38571   0.86940   0.26760   0.00000  Uiso   1.00
C257   C     0.42012   0.83334   0.16666   0.00000  Uiso   1.00
C258   C     0.35509   0.84925   0.20920   0.00000  Uiso   1.00
C259   C     0.62400   0.83332   0.16666   0.00000  Uiso   1.00
C260   C     0.37600   0.83335   0.16667   0.00000  Uiso   1.00
C261   C     0.52625   0.69058   0.19756   0.00000  Uiso   1.00
C262   C     0.47376   0.97609   0.13577   0.00000  Uiso   1.00
C263   C     0.47375   0.69065   0.13577   0.00000  Uiso   1.00
C264   C     0.52625   0.97602   0.19756   0.00000  Uiso   1.00
C265   C     0.57987   0.83333   0.16666   0.00000  Uiso   1.00
C266   C     0.49998   0.83335   0.07290   0.00000  Uiso   1.00
C267   C     0.50002   0.83332   0.26043   0.00000  Uiso   1.00
C268   C     0.49999   0.83335   0.02180   0.00000  Uiso   1.00
C269   C     0.50001   0.83332   0.31154   0.00000  Uiso   1.00
C270   C     0.35495   0.81742   0.12413   0.00000  Uiso   1.00
C271   C     0.64504   0.84923   0.20919   0.00000  Uiso   1.00
C272   C     0.64490   0.81742   0.12412   0.00000  Uiso   1.00
H273   H     0.54727   0.70863   0.22230   0.00000  Uiso   1.00
H274   H     0.45274   0.95804   0.11102   0.00000  Uiso   1.00
H275   H     0.45274   0.70875   0.11103   0.00000  Uiso   1.00
H276   H     0.54726   0.95792   0.22231   0.00000  Uiso   1.00
N277   N     0.50000   0.95240   0.16667   0.00000  Uiso   1.00
N278   N     0.50000   0.71427   0.16667   0.00000  Uiso   1.00
O279   O     0.43892   0.87154   0.16666   0.00000  Uiso   1.00
O280   O     0.56108   0.79513   0.16667   0.00000  Uiso   1.00
O281   O     0.56108   0.87154   0.16667   0.00000  Uiso   1.00
O282   O     0.43892   0.79513   0.16666   0.00000  Uiso   1.00
O283   O     0.50000   0.87155   0.09511   0.00000  Uiso   1.00
O284   O     0.50000   0.79512   0.23822   0.00000  Uiso   1.00
O285   O     0.50000   0.87155   0.23822   0.00000  Uiso   1.00
O286   O     0.50000   0.79512   0.09511   0.00000  Uiso   1.00
Zn287  Zn    0.50000   0.88437   0.16667   0.00000  Uiso   1.00
Zn288  Zn    0.50000   0.78229   0.16667   0.00000  Uiso   1.00
Br289  Br    0.71872   0.79724   0.06575   0.00000  Uiso   1.00
Br290  Br    0.94794   0.86930   0.26760   0.00000  Uiso   1.00
Br291  Br    0.94761   0.79731   0.06570   0.00000  Uiso   1.00
Br292  Br    0.71905   0.86940   0.26760   0.00000  Uiso   1.00
C293   C     0.75346   0.83334   0.16666   0.00000  Uiso   1.00
C294   C     0.68843   0.84925   0.20920   0.00000  Uiso   1.00
C295   C     0.95733   0.83332   0.16666   0.00000  Uiso   1.00
C296   C     0.70933   0.83335   0.16667   0.00000  Uiso   1.00
C297   C     0.85958   0.69058   0.19756   0.00000  Uiso   1.00
C298   C     0.80709   0.97609   0.13577   0.00000  Uiso   1.00
C299   C     0.80709   0.69065   0.13577   0.00000  Uiso   1.00
C300   C     0.85958   0.97602   0.19756   0.00000  Uiso   1.00
C301   C     0.91321   0.83333   0.16666   0.00000  Uiso   1.00
C302   C     0.83331   0.83335   0.07290   0.00000  Uiso   1.00
C303   C     0.83335   0.83332   0.26043   0.00000  Uiso   1.00
C304   C     0.83332   0.83335   0.02180   0.00000  Uiso   1.00
C305   C     0.83334   0.83332   0.31154   0.00000  Uiso   1.00
C306   C     0.68829   0.81742   0.12413   0.00000  Uiso   1.00
C307   C     0.97838   0.84923   0.20919   0.00000  Uiso   1.00
C308   C     0.97824   0.81742   0.12412   0.00000  Uiso   1.00
H309   H     0.88060   0.70863   0.22230   0.00000  Uiso   1.00
H310   H     0.78608   0.95804   0.11102   0.00000  Uiso   1.00
H311   H     0.78607   0.70875   0.11103   0.00000  Uiso   1.00
H312   H     0.88060   0.95792   0.22231   0.00000  Uiso   1.00
N313   N     0.83333   0.95240   0.16667   0.00000  Uiso   1.00
N314   N     0.83333   0.71427   0.16667   0.00000  Uiso   1.00
O315   O     0.77226   0.87154   0.16666   0.00000  Uiso   1.00
O316   O     0.89441   0.79513   0.16667   0.00000  Uiso   1.00
O317   O     0.89441   0.87154   0.16667   0.00000  Uiso   1.00
O318   O     0.77226   0.79513   0.16666   0.00000  Uiso   1.00
O319   O     0.83334   0.87155   0.09511   0.00000  Uiso   1.00
O320   O     0.83333   0.79512   0.23822   0.00000  Uiso   1.00
O321   O     0.83333   0.87155   0.23822   0.00000  Uiso   1.00
O322   O     0.83334   0.79512   0.09511   0.00000  Uiso   1.00
Zn323  Zn    0.83333   0.88437   0.16667   0.00000  Uiso   1.00
Zn324  Zn    0.83333   0.78229   0.16667   0.00000  Uiso   1.00
Br325  Br    0.05206   0.13058   0.39908   0.00000  Uiso   1.00
Br326  Br    0.28128   0.20263   0.60093   0.00000  Uiso   1.00
Br327  Br    0.28095   0.13065   0.39903   0.00000  Uiso   1.00
Br328  Br    0.05238   0.20273   0.60094   0.00000  Uiso   1.00
C329   C     0.08679   0.16667   0.50000   0.00000  Uiso   1.00
C330   C     0.02176   0.18259   0.54254   0.00000  Uiso   1.00
C331   C     0.29066   0.16665   0.49999   0.00000  Uiso   1.00
C332   C     0.04267   0.16668   0.50000   0.00000  Uiso   1.00
C333   C     0.19292   0.02391   0.53089   0.00000  Uiso   1.00
C334   C     0.14042   0.30942   0.46910   0.00000  Uiso   1.00
C335   C     0.14042   0.02398   0.46910   0.00000  Uiso   1.00
C336   C     0.19292   0.30935   0.53090   0.00000  Uiso   1.00
C337   C     0.24654   0.16666   0.49999   0.00000  Uiso   1.00
C338   C     0.16664   0.16668   0.40623   0.00000  Uiso   1.00
C339   C     0.16669   0.16665   0.59377   0.00000  Uiso   1.00
C340   C     0.16666   0.16668   0.35513   0.00000  Uiso   1.00
C341   C     0.16667   0.16665   0.64487   0.00000  Uiso   1.00
C342   C     0.02162   0.15075   0.45747   0.00000  Uiso   1.00
C343   C     0.31171   0.18257   0.54253   0.00000  Uiso   1.00
C344   C     0.31157   0.15076   0.45745   0.00000  Uiso   1.00
H345   H     0.21394   0.04196   0.55563   0.00000  Uiso   1.00
H346   H     0.11941   0.29137   0.44436   0.00000  Uiso   1.00
H347   H     0.11940   0.04208   0.44436   0.00000  Uiso   1.00
H348   H     0.21393   0.29125   0.55564   0.00000  Uiso   1.00
N349   N     0.16667   0.28573   0.50000   0.00000  Uiso   1.00
N350   N     0.16667   0.04760   0.50000   0.00000  Uiso   1.00
O351   O     0.10559   0.20487   0.50000   0.00000  Uiso   1.00
O352   O     0.22774   0.12846   0.50000   0.00000  Uiso   1.00
O353   O     0.22774   0.20487   0.50000   0.00000  Uiso   1.00
O354   O     0.10559   0.12846   0.50000   0.00000  Uiso   1.00
O355   O     0.16667   0.20488   0.42845   0.00000  Uiso   1.00
O356   O     0.16666   0.12845   0.57155   0.00000  Uiso   1.00
O357   O     0.16666   0.20488   0.57155   0.00000  Uiso   1.00
O358   O     0.16667   0.12845   0.42845   0.00000  Uiso   1.00
Zn359  Zn    0.16667   0.21771   0.50000   0.00000  Uiso   1.00
Zn360  Zn    0.16667   0.11563   0.50000   0.00000  Uiso   1.00
Br361  Br    0.38539   0.13058   0.39908   0.00000  Uiso   1.00
Br362  Br    0.61461   0.20263   0.60093   0.00000  Uiso   1.00
Br363  Br    0.61428   0.13065   0.39903   0.00000  Uiso   1.00
Br364  Br    0.38571   0.20273   0.60094   0.00000  Uiso   1.00
C365   C     0.42012   0.16667   0.50000   0.00000  Uiso   1.00
C366   C     0.35509   0.18259   0.54254   0.00000  Uiso   1.00
C367   C     0.62400   0.16665   0.49999   0.00000  Uiso   1.00
C368   C     0.37600   0.16668   0.50000   0.00000  Uiso   1.00
C369   C     0.52625   0.02391   0.53089   0.00000  Uiso   1.00
C370   C     0.47376   0.30942   0.46910   0.00000  Uiso   1.00
C371   C     0.47375   0.02398   0.46910   0.00000  Uiso   1.00
C372   C     0.52625   0.30935   0.53090   0.00000  Uiso   1.00
C373   C     0.57987   0.16666   0.49999   0.00000  Uiso   1.00
C374   C     0.49998   0.16668   0.40623   0.00000  Uiso   1.00
C375   C     0.50002   0.16665   0.59377   0.00000  Uiso   1.00
C376   C     0.49999   0.16668   0.35513   0.00000  Uiso   1.00
C377   C     0.50001   0.16665   0.64487   0.00000  Uiso   1.00
C378   C     0.35495   0.15075   0.45747   0.00000  Uiso   1.00
C379   C     0.64504   0.18257   0.54253   0.00000  Uiso   1.00
C380   C     0.64490   0.15076   0.45745   0.00000  Uiso   1.00
H381   H     0.54727   0.04196   0.55563   0.00000  Uiso   1.00
H382   H     0.45274   0.29137   0.44436   0.00000  Uiso   1.00
H383   H     0.45274   0.04208   0.44436   0.00000  Uiso   1.00
H384   H     0.54726   0.29125   0.55564   0.00000  Uiso   1.00
N385   N     0.50000   0.28573   0.50000   0.00000  Uiso   1.00
N386   N     0.50000   0.04760   0.50000   0.00000  Uiso   1.00
O387   O     0.43892   0.20487   0.50000   0.00000  Uiso   1.00
O388   O     0.56108   0.12846   0.50000   0.00000  Uiso   1.00
O389   O     0.56108   0.20487   0.50000   0.00000  Uiso   1.00
O390   O     0.43892   0.12846   0.50000   0.00000  Uiso   1.00
O391   O     0.50000   0.20488   0.42845   0.00000  Uiso   1.00
O392   O     0.50000   0.12845   0.57155   0.00000  Uiso   1.00
O393   O     0.50000   0.20488   0.57155   0.00000  Uiso   1.00
O394   O     0.50000   0.12845   0.42845   0.00000  Uiso   1.00
Zn395  Zn    0.50000   0.21771   0.50000   0.00000  Uiso   1.00
Zn396  Zn    0.50000   0.11563   0.50000   0.00000  Uiso   1.00
Br397  Br    0.71872   0.13058   0.39908   0.00000  Uiso   1.00
Br398  Br    0.94794   0.20263   0.60093   0.00000  Uiso   1.00
Br399  Br    0.94761   0.13065   0.39903   0.00000  Uiso   1.00
Br400  Br    0.71905   0.20273   0.60094   0.00000  Uiso   1.00
C401   C     0.75346   0.16667   0.50000   0.00000  Uiso   1.00
C402   C     0.68843   0.18259   0.54254   0.00000  Uiso   1.00
C403   C     0.95733   0.16665   0.49999   0.00000  Uiso   1.00
C404   C     0.70933   0.16668   0.50000   0.00000  Uiso   1.00
C405   C     0.85958   0.02391   0.53089   0.00000  Uiso   1.00
C406   C     0.80709   0.30942   0.46910   0.00000  Uiso   1.00
C407   C     0.80709   0.02398   0.46910   0.00000  Uiso   1.00
C408   C     0.85958   0.30935   0.53090   0.00000  Uiso   1.00
C409   C     0.91321   0.16666   0.49999   0.00000  Uiso   1.00
C410   C     0.83331   0.16668   0.40623   0.00000  Uiso   1.00
C411   C     0.83335   0.16665   0.59377   0.00000  Uiso   1.00
C412   C     0.83332   0.16668   0.35513   0.00000  Uiso   1.00
C413   C     0.83334   0.16665   0.64487   0.00000  Uiso   1.00
C414   C     0.68829   0.15075   0.45747   0.00000  Uiso   1.00
C415   C     0.97838   0.18257   0.54253   0.00000  Uiso   1.00
C416   C     0.97824   0.15076   0.45745   0.00000  Uiso   1.00
H417   H     0.88060   0.04196   0.55563   0.00000  Uiso   1.00
H418   H     0.78608   0.29137   0.44436   0.00000  Uiso   1.00
H419   H     0.78607   0.04208   0.44436   0.00000  Uiso   1.00
H420   H     0.88060   0.29125   0.55564   0.00000  Uiso   1.00
N421   N     0.83333   0.28573   0.50000   0.00000  Uiso   1.00
N422   N     0.83333   0.04760   0.50000   0.00000  Uiso   1.00
O423   O     0.77226   0.20487   0.50000   0.00000  Uiso   1.00
O424   O     0.89441   0.12846   0.50000   0.00000  Uiso   1.00
O425   O     0.89441   0.20487   0.50000   0.00000  Uiso   1.00
O426   O     0.77226   0.12846   0.50000   0.00000  Uiso   1.00
O427   O     0.83334   0.20488   0.42845   0.00000  Uiso   1.00
O428   O     0.83333   0.12845   0.57155   0.00000  Uiso   1.00
O429   O     0.83333   0.20488   0.57155   0.00000  Uiso   1.00
O430   O     0.83334   0.12845   0.42845   0.00000  Uiso   1.00
Zn431  Zn    0.83333   0.21771   0.50000   0.00000  Uiso   1.00
Zn432  Zn    0.83333   0.11563   0.50000   0.00000  Uiso   1.00
Br433  Br    0.05206   0.46391   0.39908   0.00000  Uiso   1.00
Br434  Br    0.28128   0.53597   0.60093   0.00000  Uiso   1.00
Br435  Br    0.28095   0.46398   0.39903   0.00000  Uiso   1.00
Br436  Br    0.05238   0.53606   0.60094   0.00000  Uiso   1.00
C437   C     0.08679   0.50001   0.50000   0.00000  Uiso   1.00
C438   C     0.02176   0.51592   0.54254   0.00000  Uiso   1.00
C439   C     0.29066   0.49998   0.49999   0.00000  Uiso   1.00
C440   C     0.04267   0.50001   0.50000   0.00000  Uiso   1.00
C441   C     0.19292   0.35725   0.53089   0.00000  Uiso   1.00
C442   C     0.14042   0.64275   0.46910   0.00000  Uiso   1.00
C443   C     0.14042   0.35731   0.46910   0.00000  Uiso   1.00
C444   C     0.19292   0.64269   0.53090   0.00000  Uiso   1.00
C445   C     0.24654   0.49999   0.49999   0.00000  Uiso   1.00
C446   C     0.16664   0.50001   0.40623   0.00000  Uiso   1.00
C447   C     0.16669   0.49999   0.59377   0.00000  Uiso   1.00
C448   C     0.16666   0.50002   0.35513   0.00000  Uiso   1.00
C449   C     0.16667   0.49998   0.64487   0.00000  Uiso   1.00
C450   C     0.02162   0.48408   0.45747   0.00000  Uiso   1.00
C451   C     0.31171   0.51590   0.54253   0.00000  Uiso   1.00
C452   C     0.31157   0.48409   0.45745   0.00000  Uiso   1.00
H453   H     0.21394   0.37530   0.55563   0.00000  Uiso   1.00
H454   H     0.11941   0.62470   0.44436   0.00000  Uiso   1.00
H455   H     0.11940   0.37542   0.44436   0.00000  Uiso   1.00
H456   H     0.21393   0.62458   0.55564   0.00000  Uiso   1.00
N457   N     0.16667   0.61907   0.50000   0.00000  Uiso   1.00
N458   N     0.16667   0.38093   0.50000   0.00000  Uiso   1.00
O459   O     0.10559   0.53821   0.50000   0.00000  Uiso   1.00
O460   O     0.22774   0.46179   0.50000   0.00000  Uiso   1.00
O461   O     0.22774   0.53821   0.50000   0.00000  Uiso   1.00
O462   O     0.10559   0.46179   0.50000   0.00000  Uiso   1.00
O463   O     0.16667   0.53821   0.42845   0.00000  Uiso   1.00
O464   O     0.16666   0.46179   0.57155   0.00000  Uiso   1.00
O465   O     0.16666   0.53821   0.57155   0.00000  Uiso   1.00
O466   O     0.16667   0.46179   0.42845   0.00000  Uiso   1.00
Zn467  Zn    0.16667   0.55104   0.50000   0.00000  Uiso   1.00
Zn468  Zn    0.16667   0.44896   0.50000   0.00000  Uiso   1.00
Br469  Br    0.38539   0.46391   0.39908   0.00000  Uiso   1.00
Br470  Br    0.61461   0.53597   0.60093   0.00000  Uiso   1.00
Br471  Br    0.61428   0.46398   0.39903   0.00000  Uiso   1.00
Br472  Br    0.38571   0.53606   0.60094   0.00000  Uiso   1.00
C473   C     0.42012   0.50001   0.50000   0.00000  Uiso   1.00
C474   C     0.35509   0.51592   0.54254   0.00000  Uiso   1.00
C475   C     0.62400   0.49998   0.49999   0.00000  Uiso   1.00
C476   C     0.37600   0.50001   0.50000   0.00000  Uiso   1.00
C477   C     0.52625   0.35725   0.53089   0.00000  Uiso   1.00
C478   C     0.47376   0.64275   0.46910   0.00000  Uiso   1.00
C479   C     0.47375   0.35731   0.46910   0.00000  Uiso   1.00
C480   C     0.52625   0.64269   0.53090   0.00000  Uiso   1.00
C481   C     0.57987   0.49999   0.49999   0.00000  Uiso   1.00
C482   C     0.49998   0.50001   0.40623   0.00000  Uiso   1.00
C483   C     0.50002   0.49999   0.59377   0.00000  Uiso   1.00
C484   C     0.49999   0.50002   0.35513   0.00000  Uiso   1.00
C485   C     0.50001   0.49998   0.64487   0.00000  Uiso   1.00
C486   C     0.35495   0.48408   0.45747   0.00000  Uiso   1.00
C487   C     0.64504   0.51590   0.54253   0.00000  Uiso   1.00
C488   C     0.64490   0.48409   0.45745   0.00000  Uiso   1.00
H489   H     0.54727   0.37530   0.55563   0.00000  Uiso   1.00
H490   H     0.45274   0.62470   0.44436   0.00000  Uiso   1.00
H491   H     0.45274   0.37542   0.44436   0.00000  Uiso   1.00
H492   H     0.54726   0.62458   0.55564   0.00000  Uiso   1.00
N493   N     0.50000   0.61907   0.50000   0.00000  Uiso   1.00
N494   N     0.50000   0.38093   0.50000   0.00000  Uiso   1.00
O495   O     0.43892   0.53821   0.50000   0.00000  Uiso   1.00
O496   O     0.56108   0.46179   0.50000   0.00000  Uiso   1.00
O497   O     0.56108   0.53821   0.50000   0.00000  Uiso   1.00
O498   O     0.43892   0.46179   0.50000   0.00000  Uiso   1.00
O499   O     0.50000   0.53821   0.42845   0.00000  Uiso   1.00
O500   O     0.50000   0.46179   0.57155   0.00000  Uiso   1.00
O501   O     0.50000   0.53821   0.57155   0.00000  Uiso   1.00
O502   O     0.50000   0.46179   0.42845   0.00000  Uiso   1.00
Zn503  Zn    0.50000   0.55104   0.50000   0.00000  Uiso   1.00
Zn504  Zn    0.50000   0.44896   0.50000   0.00000  Uiso   1.00
Br505  Br    0.71872   0.46391   0.39908   0.00000  Uiso   1.00
Br506  Br    0.94794   0.53597   0.60093   0.00000  Uiso   1.00
Br507  Br    0.94761   0.46398   0.39903   0.00000  Uiso   1.00
Br508  Br    0.71905   0.53606   0.60094   0.00000  Uiso   1.00
C509   C     0.75346   0.50001   0.50000   0.00000  Uiso   1.00
C510   C     0.68843   0.51592   0.54254   0.00000  Uiso   1.00
C511   C     0.95733   0.49998   0.49999   0.00000  Uiso   1.00
C512   C     0.70933   0.50001   0.50000   0.00000  Uiso   1.00
C513   C     0.85958   0.35725   0.53089   0.00000  Uiso   1.00
C514   C     0.80709   0.64275   0.46910   0.00000  Uiso   1.00
C515   C     0.80709   0.35731   0.46910   0.00000  Uiso   1.00
C516   C     0.85958   0.64269   0.53090   0.00000  Uiso   1.00
C517   C     0.91321   0.49999   0.49999   0.00000  Uiso   1.00
C518   C     0.83331   0.50001   0.40623   0.00000  Uiso   1.00
C519   C     0.83335   0.49999   0.59377   0.00000  Uiso   1.00
C520   C     0.83332   0.50002   0.35513   0.00000  Uiso   1.00
C521   C     0.83334   0.49998   0.64487   0.00000  Uiso   1.00
C522   C     0.68829   0.48408   0.45747   0.00000  Uiso   1.00
C523   C     0.97838   0.51590   0.54253   0.00000  Uiso   1.00
C524   C     0.97824   0.48409   0.45745   0.00000  Uiso   1.00
H525   H     0.88060   0.37530   0.55563   0.00000  Uiso   1.00
H526   H     0.78608   0.62470   0.44436   0.00000  Uiso   1.00
H527   H     0.78607   0.37542   0.44436   0.00000  Uiso   1.00
H528   H     0.88060   0.62458   0.55564   0.00000  Uiso   1.00
N529   N     0.83333   0.61907   0.50000   0.00000  Uiso   1.00
N530   N     0.83333   0.38093   0.50000   0.00000  Uiso   1.00
O531   O     0.77226   0.53821   0.50000   0.00000  Uiso   1.00
O532   O     0.89441   0.46179   0.50000   0.00000  Uiso   1.00
O533   O     0.89441   0.53821   0.50000   0.00000  Uiso   1.00
O534   O     0.77226   0.46179   0.50000   0.00000  Uiso   1.00
O535   O     0.83334   0.53821   0.42845   0.00000  Uiso   1.00
O536   O     0.83333   0.46179   0.57155   0.00000  Uiso   1.00
O537   O     0.83333   0.53821   0.57155   0.00000  Uiso   1.00
O538   O     0.83334   0.46179   0.42845   0.00000  Uiso   1.00
Zn539  Zn    0.83333   0.55104   0.50000   0.00000  Uiso   1.00
Zn540  Zn    0.83333   0.44896   0.50000   0.00000  Uiso   1.00
Br541  Br    0.05206   0.79724   0.39908   0.00000  Uiso   1.00
Br542  Br    0.28128   0.86930   0.60093   0.00000  Uiso   1.00
Br543  Br    0.28095   0.79731   0.39903   0.00000  Uiso   1.00
Br544  Br    0.05238   0.86940   0.60094   0.00000  Uiso   1.00
C545   C     0.08679   0.83334   0.50000   0.00000  Uiso   1.00
C546   C     0.02176   0.84925   0.54254   0.00000  Uiso   1.00
C547   C     0.29066   0.83332   0.49999   0.00000  Uiso   1.00
C548   C     0.04267   0.83335   0.50000   0.00000  Uiso   1.00
C549   C     0.19292   0.69058   0.53089   0.00000  Uiso   1.00
C550   C     0.14042   0.97609   0.46910   0.00000  Uiso   1.00
C551   C     0.14042   0.69065   0.46910   0.00000  Uiso   1.00
C552   C     0.19292   0.97602   0.53090   0.00000  Uiso   1.00
C553   C     0.24654   0.83333   0.49999   0.00000  Uiso   1.00
C554   C     0.16664   0.83335   0.40623   0.00000  Uiso   1.00
C555   C     0.16669   0.83332   0.59377   0.00000  Uiso   1.00
C556   C     0.16666   0.83335   0.35513   0.00000  Uiso   1.00
C557   C     0.16667   0.83332   0.64487   0.00000  Uiso   1.00
C558   C     0.02162   0.81742   0.45747   0.00000  Uiso   1.00
C559   C     0.31171   0.84923   0.54253   0.00000  Uiso   1.00
C560   C     0.31157   0.81742   0.45745   0.00000  Uiso   1.00
H561   H     0.21394   0.70863   0.55563   0.00000  Uiso   1.00
H562   H     0.11941   0.95804   0.44436   0.00000  Uiso   1.00
H563   H     0.11940   0.70875   0.44436   0.00000  Uiso   1.00
H564   H     0.21393   0.95792   0.55564   0.00000  Uiso   1.00
N565   N     0.16667   0.95240   0.50000   0.00000  Uiso   1.00
N566   N     0.16667   0.71427   0.50000   0.00000  Uiso   1.00
O567   O     0.10559   0.87154   0.50000   0.00000  Uiso   1.00
O568   O     0.22774   0.79513   0.50000   0.00000  Uiso   1.00
O569   O     0.22774   0.87154   0.50000   0.00000  Uiso   1.00
O570   O     0.10559   0.79513   0.50000   0.00000  Uiso   1.00
O571   O     0.16667   0.87155   0.42845   0.00000  Uiso   1.00
O572   O     0.16666   0.79512   0.57155   0.00000  Uiso   1.00
O573   O     0.16666   0.87155   0.57155   0.00000  Uiso   1.00
O574   O     0.16667   0.79512   0.42845   0.00000  Uiso   1.00
Zn575  Zn    0.16667   0.88437   0.50000   0.00000  Uiso   1.00
Zn576  Zn    0.16667   0.78229   0.50000   0.00000  Uiso   1.00
Br577  Br    0.38539   0.79724   0.39908   0.00000  Uiso   1.00
Br578  Br    0.61461   0.86930   0.60093   0.00000  Uiso   1.00
Br579  Br    0.61428   0.79731   0.39903   0.00000  Uiso   1.00
Br580  Br    0.38571   0.86940   0.60094   0.00000  Uiso   1.00
C581   C     0.42012   0.83334   0.50000   0.00000  Uiso   1.00
C582   C     0.35509   0.84925   0.54254   0.00000  Uiso   1.00
C583   C     0.62400   0.83332   0.49999   0.00000  Uiso   1.00
C584   C     0.37600   0.83335   0.50000   0.00000  Uiso   1.00
C585   C     0.52625   0.69058   0.53089   0.00000  Uiso   1.00
C586   C     0.47376   0.97609   0.46910   0.00000  Uiso   1.00
C587   C     0.47375   0.69065   0.46910   0.00000  Uiso   1.00
C588   C     0.52625   0.97602   0.53090   0.00000  Uiso   1.00
C589   C     0.57987   0.83333   0.49999   0.00000  Uiso   1.00
C590   C     0.49998   0.83335   0.40623   0.00000  Uiso   1.00
C591   C     0.50002   0.83332   0.59377   0.00000  Uiso   1.00
C592   C     0.49999   0.83335   0.35513   0.00000  Uiso   1.00
C593   C     0.50001   0.83332   0.64487   0.00000  Uiso   1.00
C594   C     0.35495   0.81742   0.45747   0.00000  Uiso   1.00
C595   C     0.64504   0.84923   0.54253   0.00000  Uiso   1.00
C596   C     0.64490   0.81742   0.45745   0.00000  Uiso   1.00
H597   H     0.54727   0.70863   0.55563   0.00000  Uiso   1.00
H598   H     0.45274   0.95804   0.44436   0.00000  Uiso   1.00
H599   H     0.45274   0.70875   0.44436   0.00000  Uiso   1.00
H600   H     0.54726   0.95792   0.55564   0.00000  Uiso   1.00
N601   N     0.50000   0.95240   0.50000   0.00000  Uiso   1.00
N602   N     0.50000   0.71427   0.50000   0.00000  Uiso   1.00
O603   O     0.43892   0.87154   0.50000   0.00000  Uiso   1.00
O604   O     0.56108   0.79513   0.50000   0.00000  Uiso   1.00
O605   O     0.56108   0.87154   0.50000   0.00000  Uiso   1.00
O606   O     0.43892   0.79513   0.50000   0.00000  Uiso   1.00
O607   O     0.50000   0.87155   0.42845   0.00000  Uiso   1.00
O608   O     0.50000   0.79512   0.57155   0.00000  Uiso   1.00
O609   O     0.50000   0.87155   0.57155   0.00000  Uiso   1.00
O610   O     0.50000   0.79512   0.42845   0.00000  Uiso   1.00
Zn611  Zn    0.50000   0.88437   0.50000   0.00000  Uiso   1.00
Zn612  Zn    0.50000   0.78229   0.50000   0.00000  Uiso   1.00
Br613  Br    0.71872   0.79724   0.39908   0.00000  Uiso   1.00
Br614  Br    0.94794   0.86930   0.60093   0.00000  Uiso   1.00
Br615  Br    0.94761   0.79731   0.39903   0.00000  Uiso   1.00
Br616  Br    0.71905   0.86940   0.60094   0.00000  Uiso   1.00
C617   C     0.75346   0.83334   0.50000   0.00000  Uiso   1.00
C618   C     0.68843   0.84925   0.54254   0.00000  Uiso   1.00
C619   C     0.95733   0.83332   0.49999   0.00000  Uiso   1.00
C620   C     0.70933   0.83335   0.50000   0.00000  Uiso   1.00
C621   C     0.85958   0.69058   0.53089   0.00000  Uiso   1.00
C622   C     0.80709   0.97609   0.46910   0.00000  Uiso   1.00
C623   C     0.80709   0.69065   0.46910   0.00000  Uiso   1.00
C624   C     0.85958   0.97602   0.53090   0.00000  Uiso   1.00
C625   C     0.91321   0.83333   0.49999   0.00000  Uiso   1.00
C626   C     0.83331   0.83335   0.40623   0.00000  Uiso   1.00
C627   C     0.83335   0.83332   0.59377   0.00000  Uiso   1.00
C628   C     0.83332   0.83335   0.35513   0.00000  Uiso   1.00
C629   C     0.83334   0.83332   0.64487   0.00000  Uiso   1.00
C630   C     0.68829   0.81742   0.45747   0.00000  Uiso   1.00
C631   C     0.97838   0.84923   0.54253   0.00000  Uiso   1.00
C632   C     0.97824   0.81742   0.45745   0.00000  Uiso   1.00
H633   H     0.88060   0.70863   0.55563   0.00000  Uiso   1.00
H634   H     0.78608   0.95804   0.44436   0.00000  Uiso   1.00
H635   H     0.78607   0.70875   0.44436   0.00000  Uiso   1.00
H636   H     0.88060   0.95792   0.55564   0.00000  Uiso   1.00
N637   N     0.83333   0.95240   0.50000   0.00000  Uiso   1.00
N638   N     0.83333   0.71427   0.50000   0.00000  Uiso   1.00
O639   O     0.77226   0.87154   0.50000   0.00000  Uiso   1.00
O640   O     0.89441   0.79513   0.50000   0.00000  Uiso   1.00
O641   O     0.89441   0.87154   0.50000   0.00000  Uiso   1.00
O642   O     0.77226   0.79513   0.50000   0.00000  Uiso   1.00
O643   O     0.83334   0.87155   0.42845   0.00000  Uiso   1.00
O644   O     0.83333   0.79512   0.57155   0.00000  Uiso   1.00
O645   O     0.83333   0.87155   0.57155   0.00000  Uiso   1.00
O646   O     0.83334   0.79512   0.42845   0.00000  Uiso   1.00
Zn647  Zn    0.83333   0.88437   0.50000   0.00000  Uiso   1.00
Zn648  Zn    0.83333   0.78229   0.50000   0.00000  Uiso   1.00
Br649  Br    0.05206   0.13058   0.73241   0.00000  Uiso   1.00
Br650  Br    0.28128   0.20263   0.93426   0.00000  Uiso   1.00
Br651  Br    0.28095   0.13065   0.73236   0.00000  Uiso   1.00
Br652  Br    0.05238   0.20273   0.93427   0.00000  Uiso   1.00
C653   C     0.08679   0.16667   0.83333   0.00000  Uiso   1.00
C654   C     0.02176   0.18259   0.87587   0.00000  Uiso   1.00
C655   C     0.29066   0.16665   0.83332   0.00000  Uiso   1.00
C656   C     0.04267   0.16668   0.83333   0.00000  Uiso   1.00
C657   C     0.19292   0.02391   0.86423   0.00000  Uiso   1.00
C658   C     0.14042   0.30942   0.80244   0.00000  Uiso   1.00
C659   C     0.14042   0.02398   0.80244   0.00000  Uiso   1.00
C660   C     0.19292   0.30935   0.86423   0.00000  Uiso   1.00
C661   C     0.24654   0.16666   0.83333   0.00000  Uiso   1.00
C662   C     0.16664   0.16668   0.73957   0.00000  Uiso   1.00
C663   C     0.16669   0.16665   0.92710   0.00000  Uiso   1.00
C664   C     0.16666   0.16668   0.68846   0.00000  Uiso   1.00
C665   C     0.16667   0.16665   0.97820   0.00000  Uiso   1.00
C666   C     0.02162   0.15075   0.79080   0.00000  Uiso   1.00
C667   C     0.31171   0.18257   0.87586   0.00000  Uiso   1.00
C668   C     0.31157   0.15076   0.79078   0.00000  Uiso   1.00
H669   H     0.21394   0.04196   0.88897   0.00000  Uiso   1.00
H670   H     0.11941   0.29137   0.77769   0.00000  Uiso   1.00
H671   H     0.11940   0.04208   0.77770   0.00000  Uiso   1.00
H672   H     0.21393   0.29125   0.88897   0.00000  Uiso   1.00
N673   N     0.16667   0.28573   0.83333   0.00000  Uiso   1.00
N674   N     0.16667   0.04760   0.83333   0.00000  Uiso   1.00
O675   O     0.10559   0.20487   0.83333   0.00000  Uiso   1.00
O676   O     0.22774   0.12846   0.83334   0.00000  Uiso   1.00
O677   O     0.22774   0.20487   0.83334   0.00000  Uiso   1.00
O678   O     0.10559   0.12846   0.83333   0.00000  Uiso   1.00
O679   O     0.16667   0.20488   0.76178   0.00000  Uiso   1.00
O680   O     0.16666   0.12845   0.90489   0.00000  Uiso   1.00
O681   O     0.16666   0.20488   0.90489   0.00000  Uiso   1.00
O682   O     0.16667   0.12845   0.76178   0.00000  Uiso   1.00
Zn683  Zn    0.16667   0.21771   0.83333   0.00000  Uiso   1.00
Zn684  Zn    0.16667   0.11563   0.83333   0.00000  Uiso   1.00
Br685  Br    0.38539   0.13058   0.73241   0.00000  Uiso   1.00
Br686  Br    0.61461   0.20263   0.93426   0.00000  Uiso   1.00
Br687  Br    0.61428   0.13065   0.73236   0.00000  Uiso   1.00
Br688  Br    0.38571   0.20273   0.93427   0.00000  Uiso   1.00
C689   C     0.42012   0.16667   0.83333   0.00000  Uiso   1.00
C690   C     0.35509   0.18259   0.87587   0.00000  Uiso   1.00
C691   C     0.62400   0.16665   0.83332   0.00000  Uiso   1.00
C692   C     0.37600   0.16668   0.83333   0.00000  Uiso   1.00
C693   C     0.52625   0.02391   0.86423   0.00000  Uiso   1.00
C694   C     0.47376   0.30942   0.80244   0.00000  Uiso   1.00
C695   C     0.47375   0.02398   0.80244   0.00000  Uiso   1.00
C696   C     0.52625   0.30935   0.86423   0.00000  Uiso   1.00
C697   C     0.57987   0.16666   0.83333   0.00000  Uiso   1.00
C698   C     0.49998   0.16668   0.73957   0.00000  Uiso   1.00
C699   C     0.50002   0.16665   0.92710   0.00000  Uiso   1.00
C700   C     0.49999   0.16668   0.68846   0.00000  Uiso   1.00
C701   C     0.50001   0.16665   0.97820   0.00000  Uiso   1.00
C702   C     0.35495   0.15075   0.79080   0.00000  Uiso   1.00
C703   C     0.64504   0.18257   0.87586   0.00000  Uiso   1.00
C704   C     0.64490   0.15076   0.79078   0.00000  Uiso   1.00
H705   H     0.54727   0.04196   0.88897   0.00000  Uiso   1.00
H706   H     0.45274   0.29137   0.77769   0.00000  Uiso   1.00
H707   H     0.45274   0.04208   0.77770   0.00000  Uiso   1.00
H708   H     0.54726   0.29125   0.88897   0.00000  Uiso   1.00
N709   N     0.50000   0.28573   0.83333   0.00000  Uiso   1.00
N710   N     0.50000   0.04760   0.83333   0.00000  Uiso   1.00
O711   O     0.43892   0.20487   0.83333   0.00000  Uiso   1.00
O712   O     0.56108   0.12846   0.83334   0.00000  Uiso   1.00
O713   O     0.56108   0.20487   0.83334   0.00000  Uiso   1.00
O714   O     0.43892   0.12846   0.83333   0.00000  Uiso   1.00
O715   O     0.50000   0.20488   0.76178   0.00000  Uiso   1.00
O716   O     0.50000   0.12845   0.90489   0.00000  Uiso   1.00
O717   O     0.50000   0.20488   0.90489   0.00000  Uiso   1.00
O718   O     0.50000   0.12845   0.76178   0.00000  Uiso   1.00
Zn719  Zn    0.50000   0.21771   0.83333   0.00000  Uiso   1.00
Zn720  Zn    0.50000   0.11563   0.83333   0.00000  Uiso   1.00
Br721  Br    0.71872   0.13058   0.73241   0.00000  Uiso   1.00
Br722  Br    0.94794   0.20263   0.93426   0.00000  Uiso   1.00
Br723  Br    0.94761   0.13065   0.73236   0.00000  Uiso   1.00
Br724  Br    0.71905   0.20273   0.93427   0.00000  Uiso   1.00
C725   C     0.75346   0.16667   0.83333   0.00000  Uiso   1.00
C726   C     0.68843   0.18259   0.87587   0.00000  Uiso   1.00
C727   C     0.95733   0.16665   0.83332   0.00000  Uiso   1.00
C728   C     0.70933   0.16668   0.83333   0.00000  Uiso   1.00
C729   C     0.85958   0.02391   0.86423   0.00000  Uiso   1.00
C730   C     0.80709   0.30942   0.80244   0.00000  Uiso   1.00
C731   C     0.80709   0.02398   0.80244   0.00000  Uiso   1.00
C732   C     0.85958   0.30935   0.86423   0.00000  Uiso   1.00
C733   C     0.91321   0.16666   0.83333   0.00000  Uiso   1.00
C734   C     0.83331   0.16668   0.73957   0.00000  Uiso   1.00
C735   C     0.83335   0.16665   0.92710   0.00000  Uiso   1.00
C736   C     0.83332   0.16668   0.68846   0.00000  Uiso   1.00
C737   C     0.83334   0.16665   0.97820   0.00000  Uiso   1.00
C738   C     0.68829   0.15075   0.79080   0.00000  Uiso   1.00
C739   C     0.97838   0.18257   0.87586   0.00000  Uiso   1.00
C740   C     0.97824   0.15076   0.79078   0.00000  Uiso   1.00
H741   H     0.88060   0.04196   0.88897   0.00000  Uiso   1.00
H742   H     0.78608   0.29137   0.77769   0.00000  Uiso   1.00
H743   H     0.78607   0.04208   0.77770   0.00000  Uiso   1.00
H744   H     0.88060   0.29125   0.88897   0.00000  Uiso   1.00
N745   N     0.83333   0.28573   0.83333   0.00000  Uiso   1.00
N746   N     0.83333   0.04760   0.83333   0.00000  Uiso   1.00
O747   O     0.77226   0.20487   0.83333   0.00000  Uiso   1.00
O748   O     0.89441   0.12846   0.83334   0.00000  Uiso   1.00
O749   O     0.89441   0.20487   0.83334   0.00000  Uiso   1.00
O750   O     0.77226   0.12846   0.83333   0.00000  Uiso   1.00
O751   O     0.83334   0.20488   0.76178   0.00000  Uiso   1.00
O752   O     0.83333   0.12845   0.90489   0.00000  Uiso   1.00
O753   O     0.83333   0.20488   0.90489   0.00000  Uiso   1.00
O754   O     0.83334   0.12845   0.76178   0.00000  Uiso   1.00
Zn755  Zn    0.83333   0.21771   0.83333   0.00000  Uiso   1.00
Zn756  Zn    0.83333   0.11563   0.83333   0.00000  Uiso   1.00
Br757  Br    0.05206   0.46391   0.73241   0.00000  Uiso   1.00
Br758  Br    0.28128   0.53597   0.93426   0.00000  Uiso   1.00
Br759  Br    0.28095   0.46398   0.73236   0.00000  Uiso   1.00
Br760  Br    0.05238   0.53606   0.93427   0.00000  Uiso   1.00
C761   C     0.08679   0.50001   0.83333   0.00000  Uiso   1.00
C762   C     0.02176   0.51592   0.87587   0.00000  Uiso   1.00
C763   C     0.29066   0.49998   0.83332   0.00000  Uiso   1.00
C764   C     0.04267   0.50001   0.83333   0.00000  Uiso   1.00
C765   C     0.19292   0.35725   0.86423   0.00000  Uiso   1.00
C766   C     0.14042   0.64275   0.80244   0.00000  Uiso   1.00
C767   C     0.14042   0.35731   0.80244   0.00000  Uiso   1.00
C768   C     0.19292   0.64269   0.86423   0.00000  Uiso   1.00
C769   C     0.24654   0.49999   0.83333   0.00000  Uiso   1.00
C770   C     0.16664   0.50001   0.73957   0.00000  Uiso   1.00
C771   C     0.16669   0.49999   0.92710   0.00000  Uiso   1.00
C772   C     0.16666   0.50002   0.68846   0.00000  Uiso   1.00
C773   C     0.16667   0.49998   0.97820   0.00000  Uiso   1.00
C774   C     0.02162   0.48408   0.79080   0.00000  Uiso   1.00
C775   C     0.31171   0.51590   0.87586   0.00000  Uiso   1.00
C776   C     0.31157   0.48409   0.79078   0.00000  Uiso   1.00
H777   H     0.21394   0.37530   0.88897   0.00000  Uiso   1.00
H778   H     0.11941   0.62470   0.77769   0.00000  Uiso   1.00
H779   H     0.11940   0.37542   0.77770   0.00000  Uiso   1.00
H780   H     0.21393   0.62458   0.88897   0.00000  Uiso   1.00
N781   N     0.16667   0.61907   0.83333   0.00000  Uiso   1.00
N782   N     0.16667   0.38093   0.83333   0.00000  Uiso   1.00
O783   O     0.10559   0.53821   0.83333   0.00000  Uiso   1.00
O784   O     0.22774   0.46179   0.83334   0.00000  Uiso   1.00
O785   O     0.22774   0.53821   0.83334   0.00000  Uiso   1.00
O786   O     0.10559   0.46179   0.83333   0.00000  Uiso   1.00
O787   O     0.16667   0.53821   0.76178   0.00000  Uiso   1.00
O788   O     0.16666   0.46179   0.90489   0.00000  Uiso   1.00
O789   O     0.16666   0.53821   0.90489   0.00000  Uiso   1.00
O790   O     0.16667   0.46179   0.76178   0.00000  Uiso   1.00
Zn791  Zn    0.16667   0.55104   0.83333   0.00000  Uiso   1.00
Zn792  Zn    0.16667   0.44896   0.83333   0.00000  Uiso   1.00
Br793  Br    0.38539   0.46391   0.73241   0.00000  Uiso   1.00
Br794  Br    0.61461   0.53597   0.93426   0.00000  Uiso   1.00
Br795  Br    0.61428   0.46398   0.73236   0.00000  Uiso   1.00
Br796  Br    0.38571   0.53606   0.93427   0.00000  Uiso   1.00
C797   C     0.42012   0.50001   0.83333   0.00000  Uiso   1.00
C798   C     0.35509   0.51592   0.87587   0.00000  Uiso   1.00
C799   C     0.62400   0.49998   0.83332   0.00000  Uiso   1.00
C800   C     0.37600   0.50001   0.83333   0.00000  Uiso   1.00
C801   C     0.52625   0.35725   0.86423   0.00000  Uiso   1.00
C802   C     0.47376   0.64275   0.80244   0.00000  Uiso   1.00
C803   C     0.47375   0.35731   0.80244   0.00000  Uiso   1.00
C804   C     0.52625   0.64269   0.86423   0.00000  Uiso   1.00
C805   C     0.57987   0.49999   0.83333   0.00000  Uiso   1.00
C806   C     0.49998   0.50001   0.73957   0.00000  Uiso   1.00
C807   C     0.50002   0.49999   0.92710   0.00000  Uiso   1.00
C808   C     0.49999   0.50002   0.68846   0.00000  Uiso   1.00
C809   C     0.50001   0.49998   0.97820   0.00000  Uiso   1.00
C810   C     0.35495   0.48408   0.79080   0.00000  Uiso   1.00
C811   C     0.64504   0.51590   0.87586   0.00000  Uiso   1.00
C812   C     0.64490   0.48409   0.79078   0.00000  Uiso   1.00
H813   H     0.54727   0.37530   0.88897   0.00000  Uiso   1.00
H814   H     0.45274   0.62470   0.77769   0.00000  Uiso   1.00
H815   H     0.45274   0.37542   0.77770   0.00000  Uiso   1.00
H816   H     0.54726   0.62458   0.88897   0.00000  Uiso   1.00
N817   N     0.50000   0.61907   0.83333   0.00000  Uiso   1.00
N818   N     0.50000   0.38093   0.83333   0.00000  Uiso   1.00
O819   O     0.43892   0.53821   0.83333   0.00000  Uiso   1.00
O820   O     0.56108   0.46179   0.83334   0.00000  Uiso   1.00
O821   O     0.56108   0.53821   0.83334   0.00000  Uiso   1.00
O822   O     0.43892   0.46179   0.83333   0.00000  Uiso   1.00
O823   O     0.50000   0.53821   0.76178   0.00000  Uiso   1.00
O824   O     0.50000   0.46179   0.90489   0.00000  Uiso   1.00
O825   O     0.50000   0.53821   0.90489   0.00000  Uiso   1.00
O826   O     0.50000   0.46179   0.76178   0.00000  Uiso   1.00
Zn827  Zn    0.50000   0.55104   0.83333   0.00000  Uiso   1.00
Zn828  Zn    0.50000   0.44896   0.83333   0.00000  Uiso   1.00
Br829  Br    0.71872   0.46391   0.73241   0.00000  Uiso   1.00
Br830  Br    0.94794   0.53597   0.93426   0.00000  Uiso   1.00
Br831  Br    0.94761   0.46398   0.73236   0.00000  Uiso   1.00
Br832  Br    0.71905   0.53606   0.93427   0.00000  Uiso   1.00
C833   C     0.75346   0.50001   0.83333   0.00000  Uiso   1.00
C834   C     0.68843   0.51592   0.87587   0.00000  Uiso   1.00
C835   C     0.95733   0.49998   0.83332   0.00000  Uiso   1.00
C836   C     0.70933   0.50001   0.83333   0.00000  Uiso   1.00
C837   C     0.85958   0.35725   0.86423   0.00000  Uiso   1.00
C838   C     0.80709   0.64275   0.80244   0.00000  Uiso   1.00
C839   C     0.80709   0.35731   0.80244   0.00000  Uiso   1.00
C840   C     0.85958   0.64269   0.86423   0.00000  Uiso   1.00
C841   C     0.91321   0.49999   0.83333   0.00000  Uiso   1.00
C842   C     0.83331   0.50001   0.73957   0.00000  Uiso   1.00
C843   C     0.83335   0.49999   0.92710   0.00000  Uiso   1.00
C844   C     0.83332   0.50002   0.68846   0.00000  Uiso   1.00
C845   C     0.83334   0.49998   0.97820   0.00000  Uiso   1.00
C846   C     0.68829   0.48408   0.79080   0.00000  Uiso   1.00
C847   C     0.97838   0.51590   0.87586   0.00000  Uiso   1.00
C848   C     0.97824   0.48409   0.79078   0.00000  Uiso   1.00
H849   H     0.88060   0.37530   0.88897   0.00000  Uiso   1.00
H850   H     0.78608   0.62470   0.77769   0.00000  Uiso   1.00
H851   H     0.78607   0.37542   0.77770   0.00000  Uiso   1.00
H852   H     0.88060   0.62458   0.88897   0.00000  Uiso   1.00
N853   N     0.83333   0.61907   0.83333   0.00000  Uiso   1.00
N854   N     0.83333   0.38093   0.83333   0.00000  Uiso   1.00
O855   O     0.77226   0.53821   0.83333   0.00000  Uiso   1.00
O856   O     0.89441   0.46179   0.83334   0.00000  Uiso   1.00
O857   O     0.89441   0.53821   0.83334   0.00000  Uiso   1.00
O858   O     0.77226   0.46179   0.83333   0.00000  Uiso   1.00
O859   O     0.83334   0.53821   0.76178   0.00000  Uiso   1.00
O860   O     0.83333   0.46179   0.90489   0.00000  Uiso   1.00
O861   O     0.83333   0.53821   0.90489   0.00000  Uiso   1.00
O862   O     0.83334   0.46179   0.76178   0.00000  Uiso   1.00
Zn863  Zn    0.83333   0.55104   0.83333   0.00000  Uiso   1.00
Zn864  Zn    0.83333   0.44896   0.83333   0.00000  Uiso   1.00
Br865  Br    0.05206   0.79724   0.73241   0.00000  Uiso   1.00
Br866  Br    0.28128   0.86930   0.93426   0.00000  Uiso   1.00
Br867  Br    0.28095   0.79731   0.73236   0.00000  Uiso   1.00
Br868  Br    0.05238   0.86940   0.93427   0.00000  Uiso   1.00
C869   C     0.08679   0.83334   0.83333   0.00000  Uiso   1.00
C870   C     0.02176   0.84925   0.87587   0.00000  Uiso   1.00
C871   C     0.29066   0.83332   0.83332   0.00000  Uiso   1.00
C872   C     0.04267   0.83335   0.83333   0.00000  Uiso   1.00
C873   C     0.19292   0.69058   0.86423   0.00000  Uiso   1.00
C874   C     0.14042   0.97609   0.80244   0.00000  Uiso   1.00
C875   C     0.14042   0.69065   0.80244   0.00000  Uiso   1.00
C876   C     0.19292   0.97602   0.86423   0.00000  Uiso   1.00
C877   C     0.24654   0.83333   0.83333   0.00000  Uiso   1.00
C878   C     0.16664   0.83335   0.73957   0.00000  Uiso   1.00
C879   C     0.16669   0.83332   0.92710   0.00000  Uiso   1.00
C880   C     0.16666   0.83335   0.68846   0.00000  Uiso   1.00
C881   C     0.16667   0.83332   0.97820   0.00000  Uiso   1.00
C882   C     0.02162   0.81742   0.79080   0.00000  Uiso   1.00
C883   C     0.31171   0.84923   0.87586   0.00000  Uiso   1.00
C884   C     0.31157   0.81742   0.79078   0.00000  Uiso   1.00
H885   H     0.21394   0.70863   0.88897   0.00000  Uiso   1.00
H886   H     0.11941   0.95804   0.77769   0.00000  Uiso   1.00
H887   H     0.11940   0.70875   0.77770   0.00000  Uiso   1.00
H888   H     0.21393   0.95792   0.88897   0.00000  Uiso   1.00
N889   N     0.16667   0.95240   0.83333   0.00000  Uiso   1.00
N890   N     0.16667   0.71427   0.83333   0.00000  Uiso   1.00
O891   O     0.10559   0.87154   0.83333   0.00000  Uiso   1.00
O892   O     0.22774   0.79513   0.83334   0.00000  Uiso   1.00
O893   O     0.22774   0.87154   0.83334   0.00000  Uiso   1.00
O894   O     0.10559   0.79513   0.83333   0.00000  Uiso   1.00
O895   O     0.16667   0.87155   0.76178   0.00000  Uiso   1.00
O896   O     0.16666   0.79512   0.90489   0.00000  Uiso   1.00
O897   O     0.16666   0.87155   0.90489   0.00000  Uiso   1.00
O898   O     0.16667   0.79512   0.76178   0.00000  Uiso   1.00
Zn899  Zn    0.16667   0.88437   0.83333   0.00000  Uiso   1.00
Zn900  Zn    0.16667   0.78229   0.83333   0.00000  Uiso   1.00
Br901  Br    0.38539   0.79724   0.73241   0.00000  Uiso   1.00
Br902  Br    0.61461   0.86930   0.93426   0.00000  Uiso   1.00
Br903  Br    0.61428   0.79731   0.73236   0.00000  Uiso   1.00
Br904  Br    0.38571   0.86940   0.93427   0.00000  Uiso   1.00
C905   C     0.42012   0.83334   0.83333   0.00000  Uiso   1.00
C906   C     0.35509   0.84925   0.87587   0.00000  Uiso   1.00
C907   C     0.62400   0.83332   0.83332   0.00000  Uiso   1.00
C908   C     0.37600   0.83335   0.83333   0.00000  Uiso   1.00
C909   C     0.52625   0.69058   0.86423   0.00000  Uiso   1.00
C910   C     0.47376   0.97609   0.80244   0.00000  Uiso   1.00
C911   C     0.47375   0.69065   0.80244   0.00000  Uiso   1.00
C912   C     0.52625   0.97602   0.86423   0.00000  Uiso   1.00
C913   C     0.57987   0.83333   0.83333   0.00000  Uiso   1.00
C914   C     0.49998   0.83335   0.73957   0.00000  Uiso   1.00
C915   C     0.50002   0.83332   0.92710   0.00000  Uiso   1.00
C916   C     0.49999   0.83335   0.68846   0.00000  Uiso   1.00
C917   C     0.50001   0.83332   0.97820   0.00000  Uiso   1.00
C918   C     0.35495   0.81742   0.79080   0.00000  Uiso   1.00
C919   C     0.64504   0.84923   0.87586   0.00000  Uiso   1.00
C920   C     0.64490   0.81742   0.79078   0.00000  Uiso   1.00
H921   H     0.54727   0.70863   0.88897   0.00000  Uiso   1.00
H922   H     0.45274   0.95804   0.77769   0.00000  Uiso   1.00
H923   H     0.45274   0.70875   0.77770   0.00000  Uiso   1.00
H924   H     0.54726   0.95792   0.88897   0.00000  Uiso   1.00
N925   N     0.50000   0.95240   0.83333   0.00000  Uiso   1.00
N926   N     0.50000   0.71427   0.83333   0.00000  Uiso   1.00
O927   O     0.43892   0.87154   0.83333   0.00000  Uiso   1.00
O928   O     0.56108   0.79513   0.83334   0.00000  Uiso   1.00
O929   O     0.56108   0.87154   0.83334   0.00000  Uiso   1.00
O930   O     0.43892   0.79513   0.83333   0.00000  Uiso   1.00
O931   O     0.50000   0.87155   0.76178   0.00000  Uiso   1.00
O932   O     0.50000   0.79512   0.90489   0.00000  Uiso   1.00
O933   O     0.50000   0.87155   0.90489   0.00000  Uiso   1.00
O934   O     0.50000   0.79512   0.76178   0.00000  Uiso   1.00
Zn935  Zn    0.50000   0.88437   0.83333   0.00000  Uiso   1.00
Zn936  Zn    0.50000   0.78229   0.83333   0.00000  Uiso   1.00
Br937  Br    0.71872   0.79724   0.73241   0.00000  Uiso   1.00
Br938  Br    0.94794   0.86930   0.93426   0.00000  Uiso   1.00
Br939  Br    0.94761   0.79731   0.73236   0.00000  Uiso   1.00
Br940  Br    0.71905   0.86940   0.93427   0.00000  Uiso   1.00
C941   C     0.75346   0.83334   0.83333   0.00000  Uiso   1.00
C942   C     0.68843   0.84925   0.87587   0.00000  Uiso   1.00
C943   C     0.95733   0.83332   0.83332   0.00000  Uiso   1.00
C944   C     0.70933   0.83335   0.83333   0.00000  Uiso   1.00
C945   C     0.85958   0.69058   0.86423   0.00000  Uiso   1.00
C946   C     0.80709   0.97609   0.80244   0.00000  Uiso   1.00
C947   C     0.80709   0.69065   0.80244   0.00000  Uiso   1.00
C948   C     0.85958   0.97602   0.86423   0.00000  Uiso   1.00
C949   C     0.91321   0.83333   0.83333   0.00000  Uiso   1.00
C950   C     0.83331   0.83335   0.73957   0.00000  Uiso   1.00
C951   C     0.83335   0.83332   0.92710   0.00000  Uiso   1.00
C952   C     0.83332   0.83335   0.68846   0.00000  Uiso   1.00
C953   C     0.83334   0.83332   0.97820   0.00000  Uiso   1.00
C954   C     0.68829   0.81742   0.79080   0.00000  Uiso   1.00
C955   C     0.97838   0.84923   0.87586   0.00000  Uiso   1.00
C956   C     0.97824   0.81742   0.79078   0.00000  Uiso   1.00
H957   H     0.88060   0.70863   0.88897   0.00000  Uiso   1.00
H958   H     0.78608   0.95804   0.77769   0.00000  Uiso   1.00
H959   H     0.78607   0.70875   0.77770   0.00000  Uiso   1.00
H960   H     0.88060   0.95792   0.88897   0.00000  Uiso   1.00
N961   N     0.83333   0.95240   0.83333   0.00000  Uiso   1.00
N962   N     0.83333   0.71427   0.83333   0.00000  Uiso   1.00
O963   O     0.77226   0.87154   0.83333   0.00000  Uiso   1.00
O964   O     0.89441   0.79513   0.83334   0.00000  Uiso   1.00
O965   O     0.89441   0.87154   0.83334   0.00000  Uiso   1.00
O966   O     0.77226   0.79513   0.83333   0.00000  Uiso   1.00
O967   O     0.83334   0.87155   0.76178   0.00000  Uiso   1.00
O968   O     0.83333   0.79512   0.90489   0.00000  Uiso   1.00
O969   O     0.83333   0.87155   0.90489   0.00000  Uiso   1.00
O970   O     0.83334   0.79512   0.76178   0.00000  Uiso   1.00
Zn971  Zn    0.83333   0.88437   0.83333   0.00000  Uiso   1.00
Zn972  Zn    0.83333   0.78229   0.83333   0.00000  Uiso   1.00
loop_
_geom_bond_atom_site_label_1
_geom_bond_atom_site_label_2
_geom_bond_distance
_geom_bond_site_symmetry_2
_ccdc_geom_bond_type
Br1    C18     1.934   .     S
Br2    C19     1.933   .     S
Br3    C20     1.934   .     S
Br4    C6      1.934   .     S
C5     C8      1.406   .     S
C5     O30     1.280   .     A
C5     O27     1.281   .     A
C6     C8      1.401   .     A
C6     C91     1.383   1_455 S
C7     C13     1.406   .     S
C7     C20     1.401   .     A
C7     C19     1.401   .     A
C8     C18     1.401   .     A
C9     H21     1.082   .     S
C9     N26     1.367   .     A
C9     C228    1.418   1_545 S
C10    H22     1.082   .     S
C10    N25     1.367   .     A
C10    C119    1.419   .     S
C11    H23     1.082   .     S
C11    N26     1.367   .     A
C11    C226    1.419   1_545 S
C12    H24     1.082   .     S
C12    N25     1.367   .     A
C12    C117    1.418   .     S
C13    O28     1.280   .     A
C13    O29     1.280   .     A
C14    O34     1.278   .     A
C14    C16     1.366   .     S
C14    O31     1.278   .     A
C15    C17     1.366   .     S
C15    O33     1.278   .     A
C15    O32     1.278   .     A
C16    C665    1.165   1_554 S
C17    C340    1.165   .     S
C18    C92     1.383   1_455 S
C19    C42     1.383   .     S
C20    C54     1.383   .     S
N25    Zn35    2.015   .     S
N26    Zn36    2.015   .     S
O27    Zn35    1.984   .     S
O28    Zn36    1.984   .     S
O29    Zn35    1.983   .     S
O30    Zn36    1.983   .     S
O31    Zn35    1.950   .     S
O32    Zn36    1.950   .     S
O33    Zn35    1.950   .     S
O34    Zn36    1.950   .     S
Br37   C54     1.934   .     S
Br38   C55     1.933   .     S
Br39   C56     1.934   .     S
Br40   C42     1.934   .     S
C41    C44     1.406   .     S
C41    O66     1.280   .     A
C41    O63     1.281   .     A
C42    C44     1.401   .     A
C43    C49     1.406   .     S
C43    C56     1.401   .     A
C43    C55     1.401   .     A
C44    C54     1.401   .     A
C45    H57     1.082   .     S
C45    N62     1.367   .     A
C45    C264    1.418   1_545 S
C46    H58     1.082   .     S
C46    N61     1.367   .     A
C46    C155    1.419   .     S
C47    H59     1.082   .     S
C47    N62     1.367   .     A
C47    C262    1.419   1_545 S
C48    H60     1.082   .     S
C48    N61     1.367   .     A
C48    C153    1.418   .     S
C49    O64     1.280   .     A
C49    O65     1.280   .     A
C50    O70     1.278   .     A
C50    C52     1.366   .     S
C50    O67     1.278   .     A
C51    C53     1.366   .     S
C51    O69     1.278   .     A
C51    O68     1.278   .     A
C52    C701    1.165   1_554 S
C53    C376    1.165   .     S
C55    C78     1.383   .     S
C56    C90     1.383   .     S
N61    Zn71    2.015   .     S
N62    Zn72    2.015   .     S
O63    Zn71    1.984   .     S
O64    Zn72    1.984   .     S
O65    Zn71    1.983   .     S
O66    Zn72    1.983   .     S
O67    Zn71    1.950   .     S
O68    Zn72    1.950   .     S
O69    Zn71    1.950   .     S
O70    Zn72    1.950   .     S
Br73   C90     1.934   .     S
Br74   C91     1.933   .     S
Br75   C92     1.934   .     S
Br76   C78     1.934   .     S
C77    C80     1.406   .     S
C77    O102    1.280   .     A
C77    O99     1.281   .     A
C78    C80     1.401   .     A
C79    C85     1.406   .     S
C79    C92     1.401   .     A
C79    C91     1.401   .     A
C80    C90     1.401   .     A
C81    H93     1.082   .     S
C81    N98     1.367   .     A
C81    C300    1.418   1_545 S
C82    H94     1.082   .     S
C82    N97     1.367   .     A
C82    C191    1.419   .     S
C83    H95     1.082   .     S
C83    N98     1.367   .     A
C83    C298    1.419   1_545 S
C84    H96     1.082   .     S
C84    N97     1.367   .     A
C84    C189    1.418   .     S
C85    O100    1.280   .     A
C85    O101    1.280   .     A
C86    O106    1.278   .     A
C86    C88     1.366   .     S
C86    O103    1.278   .     A
C87    C89     1.366   .     S
C87    O105    1.278   .     A
C87    O104    1.278   .     A
C88    C737    1.165   1_554 S
C89    C412    1.165   .     S
C91    C6      1.383   1_655 S
C92    C18     1.383   1_655 S
N97    Zn107   2.015   .     S
N98    Zn108   2.015   .     S
O99    Zn107   1.984   .     S
O100   Zn108   1.984   .     S
O101   Zn107   1.983   .     S
O102   Zn108   1.983   .     S
O103   Zn107   1.950   .     S
O104   Zn108   1.950   .     S
O105   Zn107   1.950   .     S
O106   Zn108   1.950   .     S
Br109  C126    1.934   .     S
Br110  C127    1.933   .     S
Br111  C128    1.934   .     S
Br112  C114    1.934   .     S
C113   C116    1.406   .     S
C113   O138    1.280   .     A
C113   O135    1.281   .     A
C114   C116    1.401   .     A
C114   C199    1.383   1_455 S
C115   C121    1.406   .     S
C115   C128    1.401   .     A
C115   C127    1.401   .     A
C116   C126    1.401   .     A
C117   H129    1.082   .     S
C117   N134    1.367   .     A
C118   H130    1.082   .     S
C118   N133    1.367   .     A
C118   C227    1.419   .     S
C119   H131    1.082   .     S
C119   N134    1.367   .     A
C120   H132    1.082   .     S
C120   N133    1.367   .     A
C120   C225    1.418   .     S
C121   O136    1.280   .     A
C121   O137    1.280   .     A
C122   O142    1.278   .     A
C122   C124    1.366   .     S
C122   O139    1.278   .     A
C123   C125    1.366   .     S
C123   O141    1.278   .     A
C123   O140    1.278   .     A
C124   C773    1.165   1_554 S
C125   C448    1.165   .     S
C126   C200    1.383   1_455 S
C127   C150    1.383   .     S
C128   C162    1.383   .     S
N133   Zn143   2.015   .     S
N134   Zn144   2.015   .     S
O135   Zn143   1.984   .     S
O136   Zn144   1.984   .     S
O137   Zn143   1.983   .     S
O138   Zn144   1.983   .     S
O139   Zn143   1.950   .     S
O140   Zn144   1.950   .     S
O141   Zn143   1.950   .     S
O142   Zn144   1.950   .     S
Br145  C162    1.934   .     S
Br146  C163    1.933   .     S
Br147  C164    1.934   .     S
Br148  C150    1.934   .     S
C149   C152    1.406   .     S
C149   O174    1.280   .     A
C149   O171    1.281   .     A
C150   C152    1.401   .     A
C151   C157    1.406   .     S
C151   C164    1.401   .     A
C151   C163    1.401   .     A
C152   C162    1.401   .     A
C153   H165    1.082   .     S
C153   N170    1.367   .     A
C154   H166    1.082   .     S
C154   N169    1.367   .     A
C154   C263    1.419   .     S
C155   H167    1.082   .     S
C155   N170    1.367   .     A
C156   H168    1.082   .     S
C156   N169    1.367   .     A
C156   C261    1.418   .     S
C157   O172    1.280   .     A
C157   O173    1.280   .     A
C158   O178    1.278   .     A
C158   C160    1.366   .     S
C158   O175    1.278   .     A
C159   C161    1.366   .     S
C159   O177    1.278   .     A
C159   O176    1.278   .     A
C160   C809    1.165   1_554 S
C161   C484    1.165   .     S
C163   C186    1.383   .     S
C164   C198    1.383   .     S
N169   Zn179   2.015   .     S
N170   Zn180   2.015   .     S
O171   Zn179   1.984   .     S
O172   Zn180   1.984   .     S
O173   Zn179   1.983   .     S
O174   Zn180   1.983   .     S
O175   Zn179   1.950   .     S
O176   Zn180   1.950   .     S
O177   Zn179   1.950   .     S
O178   Zn180   1.950   .     S
Br181  C198    1.934   .     S
Br182  C199    1.933   .     S
Br183  C200    1.934   .     S
Br184  C186    1.934   .     S
C185   C188    1.406   .     S
C185   O210    1.280   .     A
C185   O207    1.281   .     A
C186   C188    1.401   .     A
C187   C193    1.406   .     S
C187   C200    1.401   .     A
C187   C199    1.401   .     A
C188   C198    1.401   .     A
C189   H201    1.082   .     S
C189   N206    1.367   .     A
C190   H202    1.082   .     S
C190   N205    1.367   .     A
C190   C299    1.419   .     S
C191   H203    1.082   .     S
C191   N206    1.367   .     A
C192   H204    1.082   .     S
C192   N205    1.367   .     A
C192   C297    1.418   .     S
C193   O208    1.280   .     A
C193   O209    1.280   .     A
C194   O214    1.278   .     A
C194   C196    1.366   .     S
C194   O211    1.278   .     A
C195   C197    1.366   .     S
C195   O213    1.278   .     A
C195   O212    1.278   .     A
C196   C845    1.165   1_554 S
C197   C520    1.165   .     S
C199   C114    1.383   1_655 S
C200   C126    1.383   1_655 S
N205   Zn215   2.015   .     S
N206   Zn216   2.015   .     S
O207   Zn215   1.984   .     S
O208   Zn216   1.984   .     S
O209   Zn215   1.983   .     S
O210   Zn216   1.983   .     S
O211   Zn215   1.950   .     S
O212   Zn216   1.950   .     S
O213   Zn215   1.950   .     S
O214   Zn216   1.950   .     S
Br217  C234    1.934   .     S
Br218  C235    1.933   .     S
Br219  C236    1.934   .     S
Br220  C222    1.934   .     S
C221   C224    1.406   .     S
C221   O246    1.280   .     A
C221   O243    1.281   .     A
C222   C224    1.401   .     A
C222   C307    1.383   1_455 S
C223   C229    1.406   .     S
C223   C236    1.401   .     A
C223   C235    1.401   .     A
C224   C234    1.401   .     A
C225   H237    1.082   .     S
C225   N242    1.367   .     A
C226   H238    1.082   .     S
C226   N241    1.367   .     A
C226   C11     1.419   1_565 S
C227   H239    1.082   .     S
C227   N242    1.367   .     A
C228   H240    1.082   .     S
C228   N241    1.367   .     A
C228   C9      1.418   1_565 S
C229   O244    1.280   .     A
C229   O245    1.280   .     A
C230   O250    1.278   .     A
C230   C232    1.366   .     S
C230   O247    1.278   .     A
C231   C233    1.366   .     S
C231   O249    1.278   .     A
C231   O248    1.278   .     A
C232   C881    1.165   1_554 S
C233   C556    1.165   .     S
C234   C308    1.383   1_455 S
C235   C258    1.383   .     S
C236   C270    1.383   .     S
N241   Zn251   2.015   .     S
N242   Zn252   2.015   .     S
O243   Zn251   1.984   .     S
O244   Zn252   1.984   .     S
O245   Zn251   1.983   .     S
O246   Zn252   1.983   .     S
O247   Zn251   1.950   .     S
O248   Zn252   1.950   .     S
O249   Zn251   1.950   .     S
O250   Zn252   1.950   .     S
Br253  C270    1.934   .     S
Br254  C271    1.933   .     S
Br255  C272    1.934   .     S
Br256  C258    1.934   .     S
C257   C260    1.406   .     S
C257   O282    1.280   .     A
C257   O279    1.281   .     A
C258   C260    1.401   .     A
C259   C265    1.406   .     S
C259   C272    1.401   .     A
C259   C271    1.401   .     A
C260   C270    1.401   .     A
C261   H273    1.082   .     S
C261   N278    1.367   .     A
C262   H274    1.082   .     S
C262   N277    1.367   .     A
C262   C47     1.419   1_565 S
C263   H275    1.082   .     S
C263   N278    1.367   .     A
C264   H276    1.082   .     S
C264   N277    1.367   .     A
C264   C45     1.418   1_565 S
C265   O280    1.280   .     A
C265   O281    1.280   .     A
C266   O286    1.278   .     A
C266   C268    1.366   .     S
C266   O283    1.278   .     A
C267   C269    1.366   .     S
C267   O285    1.278   .     A
C267   O284    1.278   .     A
C268   C917    1.165   1_554 S
C269   C592    1.165   .     S
C271   C294    1.383   .     S
C272   C306    1.383   .     S
N277   Zn287   2.015   .     S
N278   Zn288   2.015   .     S
O279   Zn287   1.984   .     S
O280   Zn288   1.984   .     S
O281   Zn287   1.983   .     S
O282   Zn288   1.983   .     S
O283   Zn287   1.950   .     S
O284   Zn288   1.950   .     S
O285   Zn287   1.950   .     S
O286   Zn288   1.950   .     S
Br289  C306    1.934   .     S
Br290  C307    1.933   .     S
Br291  C308    1.934   .     S
Br292  C294    1.934   .     S
C293   C296    1.406   .     S
C293   O318    1.280   .     A
C293   O315    1.281   .     A
C294   C296    1.401   .     A
C295   C301    1.406   .     S
C295   C308    1.401   .     A
C295   C307    1.401   .     A
C296   C306    1.401   .     A
C297   H309    1.082   .     S
C297   N314    1.367   .     A
C298   H310    1.082   .     S
C298   N313    1.367   .     A
C298   C83     1.419   1_565 S
C299   H311    1.082   .     S
C299   N314    1.367   .     A
C300   H312    1.082   .     S
C300   N313    1.367   .     A
C300   C81     1.418   1_565 S
C301   O316    1.280   .     A
C301   O317    1.280   .     A
C302   O322    1.278   .     A
C302   C304    1.366   .     S
C302   O319    1.278   .     A
C303   C305    1.366   .     S
C303   O321    1.278   .     A
C303   O320    1.278   .     A
C304   C953    1.165   1_554 S
C305   C628    1.165   .     S
C307   C222    1.383   1_655 S
C308   C234    1.383   1_655 S
N313   Zn323   2.015   .     S
N314   Zn324   2.015   .     S
O315   Zn323   1.984   .     S
O316   Zn324   1.984   .     S
O317   Zn323   1.983   .     S
O318   Zn324   1.983   .     S
O319   Zn323   1.950   .     S
O320   Zn324   1.950   .     S
O321   Zn323   1.950   .     S
O322   Zn324   1.950   .     S
Br325  C342    1.934   .     S
Br326  C343    1.933   .     S
Br327  C344    1.934   .     S
Br328  C330    1.934   .     S
C329   C332    1.406   .     S
C329   O354    1.280   .     A
C329   O351    1.281   .     A
C330   C332    1.401   .     A
C330   C415    1.383   1_455 S
C331   C337    1.406   .     S
C331   C344    1.401   .     A
C331   C343    1.401   .     A
C332   C342    1.401   .     A
C333   H345    1.082   .     S
C333   N350    1.367   .     A
C333   C552    1.418   1_545 S
C334   H346    1.082   .     S
C334   N349    1.367   .     A
C334   C443    1.419   .     S
C335   H347    1.082   .     S
C335   N350    1.367   .     A
C335   C550    1.419   1_545 S
C336   H348    1.082   .     S
C336   N349    1.367   .     A
C336   C441    1.418   .     S
C337   O352    1.280   .     A
C337   O353    1.280   .     A
C338   O358    1.278   .     A
C338   C340    1.366   .     S
C338   O355    1.278   .     A
C339   C341    1.366   .     S
C339   O357    1.278   .     A
C339   O356    1.278   .     A
C341   C664    1.165   .     S
C342   C416    1.383   1_455 S
C343   C366    1.383   .     S
C344   C378    1.383   .     S
N349   Zn359   2.015   .     S
N350   Zn360   2.015   .     S
O351   Zn359   1.984   .     S
O352   Zn360   1.984   .     S
O353   Zn359   1.983   .     S
O354   Zn360   1.983   .     S
O355   Zn359   1.950   .     S
O356   Zn360   1.950   .     S
O357   Zn359   1.950   .     S
O358   Zn360   1.950   .     S
Br361  C378    1.934   .     S
Br362  C379    1.933   .     S
Br363  C380    1.934   .     S
Br364  C366    1.934   .     S
C365   C368    1.406   .     S
C365   O390    1.280   .     A
C365   O387    1.281   .     A
C366   C368    1.401   .     A
C367   C373    1.406   .     S
C367   C380    1.401   .     A
C367   C379    1.401   .     A
C368   C378    1.401   .     A
C369   H381    1.082   .     S
C369   N386    1.367   .     A
C369   C588    1.418   1_545 S
C370   H382    1.082   .     S
C370   N385    1.367   .     A
C370   C479    1.419   .     S
C371   H383    1.082   .     S
C371   N386    1.367   .     A
C371   C586    1.419   1_545 S
C372   H384    1.082   .     S
C372   N385    1.367   .     A
C372   C477    1.418   .     S
C373   O388    1.280   .     A
C373   O389    1.280   .     A
C374   O394    1.278   .     A
C374   C376    1.366   .     S
C374   O391    1.278   .     A
C375   C377    1.366   .     S
C375   O393    1.278   .     A
C375   O392    1.278   .     A
C377   C700    1.165   .     S
C379   C402    1.383   .     S
C380   C414    1.383   .     S
N385   Zn395   2.015   .     S
N386   Zn396   2.015   .     S
O387   Zn395   1.984   .     S
O388   Zn396   1.984   .     S
O389   Zn395   1.983   .     S
O390   Zn396   1.983   .     S
O391   Zn395   1.950   .     S
O392   Zn396   1.950   .     S
O393   Zn395   1.950   .     S
O394   Zn396   1.950   .     S
Br397  C414    1.934   .     S
Br398  C415    1.933   .     S
Br399  C416    1.934   .     S
Br400  C402    1.934   .     S
C401   C404    1.406   .     S
C401   O426    1.280   .     A
C401   O423    1.281   .     A
C402   C404    1.401   .     A
C403   C409    1.406   .     S
C403   C416    1.401   .     A
C403   C415    1.401   .     A
C404   C414    1.401   .     A
C405   H417    1.082   .     S
C405   N422    1.367   .     A
C405   C624    1.418   1_545 S
C406   H418    1.082   .     S
C406   N421    1.367   .     A
C406   C515    1.419   .     S
C407   H419    1.082   .     S
C407   N422    1.367   .     A
C407   C622    1.419   1_545 S
C408   H420    1.082   .     S
C408   N421    1.367   .     A
C408   C513    1.418   .     S
C409   O424    1.280   .     A
C409   O425    1.280   .     A
C410   O430    1.278   .     A
C410   C412    1.366   .     S
C410   O427    1.278   .     A
C411   C413    1.366   .     S
C411   O429    1.278   .     A
C411   O428    1.278   .     A
C413   C736    1.165   .     S
C415   C330    1.383   1_655 S
C416   C342    1.383   1_655 S
N421   Zn431   2.015   .     S
N422   Zn432   2.015   .     S
O423   Zn431   1.984   .     S
O424   Zn432   1.984   .     S
O425   Zn431   1.983   .     S
O426   Zn432   1.983   .     S
O427   Zn431   1.950   .     S
O428   Zn432   1.950   .     S
O429   Zn431   1.950   .     S
O430   Zn432   1.950   .     S
Br433  C450    1.934   .     S
Br434  C451    1.933   .     S
Br435  C452    1.934   .     S
Br436  C438    1.934   .     S
C437   C440    1.406   .     S
C437   O462    1.280   .     A
C437   O459    1.281   .     A
C438   C440    1.401   .     A
C438   C523    1.383   1_455 S
C439   C445    1.406   .     S
C439   C452    1.401   .     A
C439   C451    1.401   .     A
C440   C450    1.401   .     A
C441   H453    1.082   .     S
C441   N458    1.367   .     A
C442   H454    1.082   .     S
C442   N457    1.367   .     A
C442   C551    1.419   .     S
C443   H455    1.082   .     S
C443   N458    1.367   .     A
C444   H456    1.082   .     S
C444   N457    1.367   .     A
C444   C549    1.418   .     S
C445   O460    1.280   .     A
C445   O461    1.280   .     A
C446   O466    1.278   .     A
C446   C448    1.366   .     S
C446   O463    1.278   .     A
C447   C449    1.366   .     S
C447   O465    1.278   .     A
C447   O464    1.278   .     A
C449   C772    1.165   .     S
C450   C524    1.383   1_455 S
C451   C474    1.383   .     S
C452   C486    1.383   .     S
N457   Zn467   2.015   .     S
N458   Zn468   2.015   .     S
O459   Zn467   1.984   .     S
O460   Zn468   1.984   .     S
O461   Zn467   1.983   .     S
O462   Zn468   1.983   .     S
O463   Zn467   1.950   .     S
O464   Zn468   1.950   .     S
O465   Zn467   1.950   .     S
O466   Zn468   1.950   .     S
Br469  C486    1.934   .     S
Br470  C487    1.933   .     S
Br471  C488    1.934   .     S
Br472  C474    1.934   .     S
C473   C476    1.406   .     S
C473   O498    1.280   .     A
C473   O495    1.281   .     A
C474   C476    1.401   .     A
C475   C481    1.406   .     S
C475   C488    1.401   .     A
C475   C487    1.401   .     A
C476   C486    1.401   .     A
C477   H489    1.082   .     S
C477   N494    1.367   .     A
C478   H490    1.082   .     S
C478   N493    1.367   .     A
C478   C587    1.419   .     S
C479   H491    1.082   .     S
C479   N494    1.367   .     A
C480   H492    1.082   .     S
C480   N493    1.367   .     A
C480   C585    1.418   .     S
C481   O496    1.280   .     A
C481   O497    1.280   .     A
C482   O502    1.278   .     A
C482   C484    1.366   .     S
C482   O499    1.278   .     A
C483   C485    1.366   .     S
C483   O501    1.278   .     A
C483   O500    1.278   .     A
C485   C808    1.165   .     S
C487   C510    1.383   .     S
C488   C522    1.383   .     S
N493   Zn503   2.015   .     S
N494   Zn504   2.015   .     S
O495   Zn503   1.984   .     S
O496   Zn504   1.984   .     S
O497   Zn503   1.983   .     S
O498   Zn504   1.983   .     S
O499   Zn503   1.950   .     S
O500   Zn504   1.950   .     S
O501   Zn503   1.950   .     S
O502   Zn504   1.950   .     S
Br505  C522    1.934   .     S
Br506  C523    1.933   .     S
Br507  C524    1.934   .     S
Br508  C510    1.934   .     S
C509   C512    1.406   .     S
C509   O534    1.280   .     A
C509   O531    1.281   .     A
C510   C512    1.401   .     A
C511   C517    1.406   .     S
C511   C524    1.401   .     A
C511   C523    1.401   .     A
C512   C522    1.401   .     A
C513   H525    1.082   .     S
C513   N530    1.367   .     A
C514   H526    1.082   .     S
C514   N529    1.367   .     A
C514   C623    1.419   .     S
C515   H527    1.082   .     S
C515   N530    1.367   .     A
C516   H528    1.082   .     S
C516   N529    1.367   .     A
C516   C621    1.418   .     S
C517   O532    1.280   .     A
C517   O533    1.280   .     A
C518   O538    1.278   .     A
C518   C520    1.366   .     S
C518   O535    1.278   .     A
C519   C521    1.366   .     S
C519   O537    1.278   .     A
C519   O536    1.278   .     A
C521   C844    1.165   .     S
C523   C438    1.383   1_655 S
C524   C450    1.383   1_655 S
N529   Zn539   2.015   .     S
N530   Zn540   2.015   .     S
O531   Zn539   1.984   .     S
O532   Zn540   1.984   .     S
O533   Zn539   1.983   .     S
O534   Zn540   1.983   .     S
O535   Zn539   1.950   .     S
O536   Zn540   1.950   .     S
O537   Zn539   1.950   .     S
O538   Zn540   1.950   .     S
Br541  C558    1.934   .     S
Br542  C559    1.933   .     S
Br543  C560    1.934   .     S
Br544  C546    1.934   .     S
C545   C548    1.406   .     S
C545   O570    1.280   .     A
C545   O567    1.281   .     A
C546   C548    1.401   .     A
C546   C631    1.383   1_455 S
C547   C553    1.406   .     S
C547   C560    1.401   .     A
C547   C559    1.401   .     A
C548   C558    1.401   .     A
C549   H561    1.082   .     S
C549   N566    1.367   .     A
C550   H562    1.082   .     S
C550   N565    1.367   .     A
C550   C335    1.419   1_565 S
C551   H563    1.082   .     S
C551   N566    1.367   .     A
C552   H564    1.082   .     S
C552   N565    1.367   .     A
C552   C333    1.418   1_565 S
C553   O568    1.280   .     A
C553   O569    1.280   .     A
C554   O574    1.278   .     A
C554   C556    1.366   .     S
C554   O571    1.278   .     A
C555   C557    1.366   .     S
C555   O573    1.278   .     A
C555   O572    1.278   .     A
C557   C880    1.165   .     S
C558   C632    1.383   1_455 S
C559   C582    1.383   .     S
C560   C594    1.383   .     S
N565   Zn575   2.015   .     S
N566   Zn576   2.015   .     S
O567   Zn575   1.984   .     S
O568   Zn576   1.984   .     S
O569   Zn575   1.983   .     S
O570   Zn576   1.983   .     S
O571   Zn575   1.950   .     S
O572   Zn576   1.950   .     S
O573   Zn575   1.950   .     S
O574   Zn576   1.950   .     S
Br577  C594    1.934   .     S
Br578  C595    1.933   .     S
Br579  C596    1.934   .     S
Br580  C582    1.934   .     S
C581   C584    1.406   .     S
C581   O606    1.280   .     A
C581   O603    1.281   .     A
C582   C584    1.401   .     A
C583   C589    1.406   .     S
C583   C596    1.401   .     A
C583   C595    1.401   .     A
C584   C594    1.401   .     A
C585   H597    1.082   .     S
C585   N602    1.367   .     A
C586   H598    1.082   .     S
C586   N601    1.367   .     A
C586   C371    1.419   1_565 S
C587   H599    1.082   .     S
C587   N602    1.367   .     A
C588   H600    1.082   .     S
C588   N601    1.367   .     A
C588   C369    1.418   1_565 S
C589   O604    1.280   .     A
C589   O605    1.280   .     A
C590   O610    1.278   .     A
C590   C592    1.366   .     S
C590   O607    1.278   .     A
C591   C593    1.366   .     S
C591   O609    1.278   .     A
C591   O608    1.278   .     A
C593   C916    1.165   .     S
C595   C618    1.383   .     S
C596   C630    1.383   .     S
N601   Zn611   2.015   .     S
N602   Zn612   2.015   .     S
O603   Zn611   1.984   .     S
O604   Zn612   1.984   .     S
O605   Zn611   1.983   .     S
O606   Zn612   1.983   .     S
O607   Zn611   1.950   .     S
O608   Zn612   1.950   .     S
O609   Zn611   1.950   .     S
O610   Zn612   1.950   .     S
Br613  C630    1.934   .     S
Br614  C631    1.933   .     S
Br615  C632    1.934   .     S
Br616  C618    1.934   .     S
C617   C620    1.406   .     S
C617   O642    1.280   .     A
C617   O639    1.281   .     A
C618   C620    1.401   .     A
C619   C625    1.406   .     S
C619   C632    1.401   .     A
C619   C631    1.401   .     A
C620   C630    1.401   .     A
C621   H633    1.082   .     S
C621   N638    1.367   .     A
C622   H634    1.082   .     S
C622   N637    1.367   .     A
C622   C407    1.419   1_565 S
C623   H635    1.082   .     S
C623   N638    1.367   .     A
C624   H636    1.082   .     S
C624   N637    1.367   .     A
C624   C405    1.418   1_565 S
C625   O640    1.280   .     A
C625   O641    1.280   .     A
C626   O646    1.278   .     A
C626   C628    1.366   .     S
C626   O643    1.278   .     A
C627   C629    1.366   .     S
C627   O645    1.278   .     A
C627   O644    1.278   .     A
C629   C952    1.165   .     S
C631   C546    1.383   1_655 S
C632   C558    1.383   1_655 S
N637   Zn647   2.015   .     S
N638   Zn648   2.015   .     S
O639   Zn647   1.984   .     S
O640   Zn648   1.984   .     S
O641   Zn647   1.983   .     S
O642   Zn648   1.983   .     S
O643   Zn647   1.950   .     S
O644   Zn648   1.950   .     S
O645   Zn647   1.950   .     S
O646   Zn648   1.950   .     S
Br649  C666    1.934   .     S
Br650  C667    1.933   .     S
Br651  C668    1.934   .     S
Br652  C654    1.934   .     S
C653   C656    1.406   .     S
C653   O678    1.280   .     A
C653   O675    1.281   .     A
C654   C656    1.401   .     A
C654   C739    1.383   1_455 S
C655   C661    1.406   .     S
C655   C668    1.401   .     A
C655   C667    1.401   .     A
C656   C666    1.401   .     A
C657   H669    1.082   .     S
C657   N674    1.367   .     A
C657   C876    1.418   1_545 S
C658   H670    1.082   .     S
C658   N673    1.367   .     A
C658   C767    1.419   .     S
C659   H671    1.082   .     S
C659   N674    1.367   .     A
C659   C874    1.419   1_545 S
C660   H672    1.082   .     S
C660   N673    1.367   .     A
C660   C765    1.418   .     S
C661   O676    1.280   .     A
C661   O677    1.280   .     A
C662   O682    1.278   .     A
C662   C664    1.366   .     S
C662   O679    1.278   .     A
C663   C665    1.366   .     S
C663   O681    1.278   .     A
C663   O680    1.278   .     A
C665   C16     1.165   1_556 S
C666   C740    1.383   1_455 S
C667   C690    1.383   .     S
C668   C702    1.383   .     S
N673   Zn683   2.015   .     S
N674   Zn684   2.015   .     S
O675   Zn683   1.984   .     S
O676   Zn684   1.984   .     S
O677   Zn683   1.983   .     S
O678   Zn684   1.983   .     S
O679   Zn683   1.950   .     S
O680   Zn684   1.950   .     S
O681   Zn683   1.950   .     S
O682   Zn684   1.950   .     S
Br685  C702    1.934   .     S
Br686  C703    1.933   .     S
Br687  C704    1.934   .     S
Br688  C690    1.934   .     S
C689   C692    1.406   .     S
C689   O714    1.280   .     A
C689   O711    1.281   .     A
C690   C692    1.401   .     A
C691   C697    1.406   .     S
C691   C704    1.401   .     A
C691   C703    1.401   .     A
C692   C702    1.401   .     A
C693   H705    1.082   .     S
C693   N710    1.367   .     A
C693   C912    1.418   1_545 S
C694   H706    1.082   .     S
C694   N709    1.367   .     A
C694   C803    1.419   .     S
C695   H707    1.082   .     S
C695   N710    1.367   .     A
C695   C910    1.419   1_545 S
C696   H708    1.082   .     S
C696   N709    1.367   .     A
C696   C801    1.418   .     S
C697   O712    1.280   .     A
C697   O713    1.280   .     A
C698   O718    1.278   .     A
C698   C700    1.366   .     S
C698   O715    1.278   .     A
C699   C701    1.366   .     S
C699   O717    1.278   .     A
C699   O716    1.278   .     A
C701   C52     1.165   1_556 S
C703   C726    1.383   .     S
C704   C738    1.383   .     S
N709   Zn719   2.015   .     S
N710   Zn720   2.015   .     S
O711   Zn719   1.984   .     S
O712   Zn720   1.984   .     S
O713   Zn719   1.983   .     S
O714   Zn720   1.983   .     S
O715   Zn719   1.950   .     S
O716   Zn720   1.950   .     S
O717   Zn719   1.950   .     S
O718   Zn720   1.950   .     S
Br721  C738    1.934   .     S
Br722  C739    1.933   .     S
Br723  C740    1.934   .     S
Br724  C726    1.934   .     S
C725   C728    1.406   .     S
C725   O750    1.280   .     A
C725   O747    1.281   .     A
C726   C728    1.401   .     A
C727   C733    1.406   .     S
C727   C740    1.401   .     A
C727   C739    1.401   .     A
C728   C738    1.401   .     A
C729   H741    1.082   .     S
C729   N746    1.367   .     A
C729   C948    1.418   1_545 S
C730   H742    1.082   .     S
C730   N745    1.367   .     A
C730   C839    1.419   .     S
C731   H743    1.082   .     S
C731   N746    1.367   .     A
C731   C946    1.419   1_545 S
C732   H744    1.082   .     S
C732   N745    1.367   .     A
C732   C837    1.418   .     S
C733   O748    1.280   .     A
C733   O749    1.280   .     A
C734   O754    1.278   .     A
C734   C736    1.366   .     S
C734   O751    1.278   .     A
C735   C737    1.366   .     S
C735   O753    1.278   .     A
C735   O752    1.278   .     A
C737   C88     1.165   1_556 S
C739   C654    1.383   1_655 S
C740   C666    1.383   1_655 S
N745   Zn755   2.015   .     S
N746   Zn756   2.015   .     S
O747   Zn755   1.984   .     S
O748   Zn756   1.984   .     S
O749   Zn755   1.983   .     S
O750   Zn756   1.983   .     S
O751   Zn755   1.950   .     S
O752   Zn756   1.950   .     S
O753   Zn755   1.950   .     S
O754   Zn756   1.950   .     S
Br757  C774    1.934   .     S
Br758  C775    1.933   .     S
Br759  C776    1.934   .     S
Br760  C762    1.934   .     S
C761   C764    1.406   .     S
C761   O786    1.280   .     A
C761   O783    1.281   .     A
C762   C764    1.401   .     A
C762   C847    1.383   1_455 S
C763   C769    1.406   .     S
C763   C776    1.401   .     A
C763   C775    1.401   .     A
C764   C774    1.401   .     A
C765   H777    1.082   .     S
C765   N782    1.367   .     A
C766   H778    1.082   .     S
C766   N781    1.367   .     A
C766   C875    1.419   .     S
C767   H779    1.082   .     S
C767   N782    1.367   .     A
C768   H780    1.082   .     S
C768   N781    1.367   .     A
C768   C873    1.418   .     S
C769   O784    1.280   .     A
C769   O785    1.280   .     A
C770   O790    1.278   .     A
C770   C772    1.366   .     S
C770   O787    1.278   .     A
C771   C773    1.366   .     S
C771   O789    1.278   .     A
C771   O788    1.278   .     A
C773   C124    1.165   1_556 S
C774   C848    1.383   1_455 S
C775   C798    1.383   .     S
C776   C810    1.383   .     S
N781   Zn791   2.015   .     S
N782   Zn792   2.015   .     S
O783   Zn791   1.984   .     S
O784   Zn792   1.984   .     S
O785   Zn791   1.983   .     S
O786   Zn792   1.983   .     S
O787   Zn791   1.950   .     S
O788   Zn792   1.950   .     S
O789   Zn791   1.950   .     S
O790   Zn792   1.950   .     S
Br793  C810    1.934   .     S
Br794  C811    1.933   .     S
Br795  C812    1.934   .     S
Br796  C798    1.934   .     S
C797   C800    1.406   .     S
C797   O822    1.280   .     A
C797   O819    1.281   .     A
C798   C800    1.401   .     A
C799   C805    1.406   .     S
C799   C812    1.401   .     A
C799   C811    1.401   .     A
C800   C810    1.401   .     A
C801   H813    1.082   .     S
C801   N818    1.367   .     A
C802   H814    1.082   .     S
C802   N817    1.367   .     A
C802   C911    1.419   .     S
C803   H815    1.082   .     S
C803   N818    1.367   .     A
C804   H816    1.082   .     S
C804   N817    1.367   .     A
C804   C909    1.418   .     S
C805   O820    1.280   .     A
C805   O821    1.280   .     A
C806   O826    1.278   .     A
C806   C808    1.366   .     S
C806   O823    1.278   .     A
C807   C809    1.366   .     S
C807   O825    1.278   .     A
C807   O824    1.278   .     A
C809   C160    1.165   1_556 S
C811   C834    1.383   .     S
C812   C846    1.383   .     S
N817   Zn827   2.015   .     S
N818   Zn828   2.015   .     S
O819   Zn827   1.984   .     S
O820   Zn828   1.984   .     S
O821   Zn827   1.983   .     S
O822   Zn828   1.983   .     S
O823   Zn827   1.950   .     S
O824   Zn828   1.950   .     S
O825   Zn827   1.950   .     S
O826   Zn828   1.950   .     S
Br829  C846    1.934   .     S
Br830  C847    1.933   .     S
Br831  C848    1.934   .     S
Br832  C834    1.934   .     S
C833   C836    1.406   .     S
C833   O858    1.280   .     A
C833   O855    1.281   .     A
C834   C836    1.401   .     A
C835   C841    1.406   .     S
C835   C848    1.401   .     A
C835   C847    1.401   .     A
C836   C846    1.401   .     A
C837   H849    1.082   .     S
C837   N854    1.367   .     A
C838   H850    1.082   .     S
C838   N853    1.367   .     A
C838   C947    1.419   .     S
C839   H851    1.082   .     S
C839   N854    1.367   .     A
C840   H852    1.082   .     S
C840   N853    1.367   .     A
C840   C945    1.418   .     S
C841   O856    1.280   .     A
C841   O857    1.280   .     A
C842   O862    1.278   .     A
C842   C844    1.366   .     S
C842   O859    1.278   .     A
C843   C845    1.366   .     S
C843   O861    1.278   .     A
C843   O860    1.278   .     A
C845   C196    1.165   1_556 S
C847   C762    1.383   1_655 S
C848   C774    1.383   1_655 S
N853   Zn863   2.015   .     S
N854   Zn864   2.015   .     S
O855   Zn863   1.984   .     S
O856   Zn864   1.984   .     S
O857   Zn863   1.983   .     S
O858   Zn864   1.983   .     S
O859   Zn863   1.950   .     S
O860   Zn864   1.950   .     S
O861   Zn863   1.950   .     S
O862   Zn864   1.950   .     S
Br865  C882    1.934   .     S
Br866  C883    1.933   .     S
Br867  C884    1.934   .     S
Br868  C870    1.934   .     S
C869   C872    1.406   .     S
C869   O894    1.280   .     A
C869   O891    1.281   .     A
C870   C872    1.401   .     A
C870   C955    1.383   1_455 S
C871   C877    1.406   .     S
C871   C884    1.401   .     A
C871   C883    1.401   .     A
C872   C882    1.401   .     A
C873   H885    1.082   .     S
C873   N890    1.367   .     A
C874   H886    1.082   .     S
C874   N889    1.367   .     A
C874   C659    1.419   1_565 S
C875   H887    1.082   .     S
C875   N890    1.367   .     A
C876   H888    1.082   .     S
C876   N889    1.367   .     A
C876   C657    1.418   1_565 S
C877   O892    1.280   .     A
C877   O893    1.280   .     A
C878   O898    1.278   .     A
C878   C880    1.366   .     S
C878   O895    1.278   .     A
C879   C881    1.366   .     S
C879   O897    1.278   .     A
C879   O896    1.278   .     A
C881   C232    1.165   1_556 S
C882   C956    1.383   1_455 S
C883   C906    1.383   .     S
C884   C918    1.383   .     S
N889   Zn899   2.015   .     S
N890   Zn900   2.015   .     S
O891   Zn899   1.984   .     S
O892   Zn900   1.984   .     S
O893   Zn899   1.983   .     S
O894   Zn900   1.983   .     S
O895   Zn899   1.950   .     S
O896   Zn900   1.950   .     S
O897   Zn899   1.950   .     S
O898   Zn900   1.950   .     S
Br901  C918    1.934   .     S
Br902  C919    1.933   .     S
Br903  C920    1.934   .     S
Br904  C906    1.934   .     S
C905   C908    1.406   .     S
C905   O930    1.280   .     A
C905   O927    1.281   .     A
C906   C908    1.401   .     A
C907   C913    1.406   .     S
C907   C920    1.401   .     A
C907   C919    1.401   .     A
C908   C918    1.401   .     A
C909   H921    1.082   .     S
C909   N926    1.367   .     A
C910   H922    1.082   .     S
C910   N925    1.367   .     A
C910   C695    1.419   1_565 S
C911   H923    1.082   .     S
C911   N926    1.367   .     A
C912   H924    1.082   .     S
C912   N925    1.367   .     A
C912   C693    1.418   1_565 S
C913   O928    1.280   .     A
C913   O929    1.280   .     A
C914   O934    1.278   .     A
C914   C916    1.366   .     S
C914   O931    1.278   .     A
C915   C917    1.366   .     S
C915   O933    1.278   .     A
C915   O932    1.278   .     A
C917   C268    1.165   1_556 S
C919   C942    1.383   .     S
C920   C954    1.383   .     S
N925   Zn935   2.015   .     S
N926   Zn936   2.015   .     S
O927   Zn935   1.984   .     S
O928   Zn936   1.984   .     S
O929   Zn935   1.983   .     S
O930   Zn936   1.983   .     S
O931   Zn935   1.950   .     S
O932   Zn936   1.950   .     S
O933   Zn935   1.950   .     S
O934   Zn936   1.950   .     S
Br937  C954    1.934   .     S
Br938  C955    1.933   .     S
Br939  C956    1.934   .     S
Br940  C942    1.934   .     S
C941   C944    1.406   .     S
C941   O966    1.280   .     A
C941   O963    1.281   .     A
C942   C944    1.401   .     A
C943   C949    1.406   .     S
C943   C956    1.401   .     A
C943   C955    1.401   .     A
C944   C954    1.401   .     A
C945   H957    1.082   .     S
C945   N962    1.367   .     A
C946   H958    1.082   .     S
C946   N961    1.367   .     A
C946   C731    1.419   1_565 S
C947   H959    1.082   .     S
C947   N962    1.367   .     A
C948   H960    1.082   .     S
C948   N961    1.367   .     A
C948   C729    1.418   1_565 S
C949   O964    1.280   .     A
C949   O965    1.280   .     A
C950   O970    1.278   .     A
C950   C952    1.366   .     S
C950   O967    1.278   .     A
C951   C953    1.366   .     S
C951   O969    1.278   .     A
C951   O968    1.278   .     A
C953   C304    1.165   1_556 S
C955   C870    1.383   1_655 S
C956   C882    1.383   1_655 S
N961   Zn971   2.015   .     S
N962   Zn972   2.015   .     S
O963   Zn971   1.984   .     S
O964   Zn972   1.984   .     S
O965   Zn971   1.983   .     S
O966   Zn972   1.983   .     S
O967   Zn971   1.950   .     S
O968   Zn972   1.950   .     S
O969   Zn971   1.950   .     S
O970   Zn972   1.950   .     S
