data_str_m2_o1_o17_pcu_sym.133
_audit_creation_date              2020-01-03
_audit_creation_method            'Materials Studio'
_symmetry_space_group_name_H-M    'P1'
_symmetry_Int_Tables_number       1
_symmetry_cell_setting            triclinic
loop_
_symmetry_equiv_pos_as_xyz
  x,y,z
_cell_length_a                    32.4625
_cell_length_b                    28.5733
_cell_length_c                    29.9799
_cell_angle_alpha                 90.1428
_cell_angle_beta                  90.0100
_cell_angle_gamma                 89.8589
loop_
_atom_site_label
_atom_site_type_symbol
_atom_site_fract_x
_atom_site_fract_y
_atom_site_fract_z
_atom_site_U_iso_or_equiv
_atom_site_adp_type
_atom_site_occupancy
C1     C     0.08736   0.16670   0.24998   0.00000  Uiso   1.00
C2     C     0.24597   0.16663   0.25002   0.00000  Uiso   1.00
C3     C     0.09346   0.14931   0.02415   0.00000  Uiso   1.00
C4     C     0.23987   0.18405   0.47585   0.00000  Uiso   1.00
C5     C     0.02140   0.12415   0.25007   0.00000  Uiso   1.00
C6     C     0.31194   0.20919   0.24993   0.00000  Uiso   1.00
C7     C     0.31214   0.12411   0.25011   0.00000  Uiso   1.00
C8     C     0.02120   0.20922   0.24989   0.00000  Uiso   1.00
C9     C     0.29059   0.16663   0.25003   0.00000  Uiso   1.00
C10    C     0.04275   0.16671   0.24997   0.00000  Uiso   1.00
C11    C     0.14032   0.02480   0.22316   0.00000  Uiso   1.00
C12    C     0.19301   0.30853   0.27684   0.00000  Uiso   1.00
C13    C     0.19301   0.02479   0.27684   0.00000  Uiso   1.00
C14    C     0.14032   0.30854   0.22316   0.00000  Uiso   1.00
C15    C     0.16677   0.16660   0.16447   0.00000  Uiso   1.00
C16    C     0.16656   0.16674   0.33553   0.00000  Uiso   1.00
C17    C     0.20251   0.17717   0.40655   0.00000  Uiso   1.00
C18    C     0.13082   0.15618   0.09345   0.00000  Uiso   1.00
C19    C     0.16633   0.16703   0.38368   0.00000  Uiso   1.00
C20    C     0.16701   0.16630   0.11632   0.00000  Uiso   1.00
C21    C     0.12988   0.15744   0.40647   0.00000  Uiso   1.00
C22    C     0.20346   0.17589   0.09353   0.00000  Uiso   1.00
C23    C     0.12875   0.15894   0.45328   0.00000  Uiso   1.00
C24    C     0.20458   0.17441   0.04672   0.00000  Uiso   1.00
C25    C     0.16622   0.16719   0.47659   0.00000  Uiso   1.00
C26    C     0.16710   0.16616   0.02341   0.00000  Uiso   1.00
C27    C     0.20295   0.17648   0.45299   0.00000  Uiso   1.00
C28    C     0.13038   0.15687   0.04701   0.00000  Uiso   1.00
C29    C     0.09179   0.15127   0.47757   0.00000  Uiso   1.00
C30    C     0.24153   0.18209   0.02244   0.00000  Uiso   1.00
Cu31   Cu    0.16667   0.21355   0.25000   0.00000  Uiso   1.00
Cu32   Cu    0.16667   0.11978   0.25000   0.00000  Uiso   1.00
H33    H     0.23049   0.18444   0.38804   0.00000  Uiso   1.00
H34    H     0.10284   0.14891   0.11197   0.00000  Uiso   1.00
H35    H     0.10294   0.14851   0.38706   0.00000  Uiso   1.00
H36    H     0.23040   0.18481   0.11294   0.00000  Uiso   1.00
H37    H     0.06539   0.14333   0.04294   0.00000  Uiso   1.00
H38    H     0.26793   0.19004   0.45706   0.00000  Uiso   1.00
H39    H     0.03750   0.09090   0.25012   0.00000  Uiso   1.00
H40    H     0.29583   0.24244   0.24988   0.00000  Uiso   1.00
H41    H     0.29619   0.09085   0.25020   0.00000  Uiso   1.00
H42    H     0.03714   0.24248   0.24980   0.00000  Uiso   1.00
H43    H     0.11922   0.04348   0.20164   0.00000  Uiso   1.00
H44    H     0.21411   0.28985   0.29836   0.00000  Uiso   1.00
H45    H     0.21412   0.04347   0.29835   0.00000  Uiso   1.00
H46    H     0.11921   0.28986   0.20165   0.00000  Uiso   1.00
N47    N     0.16667   0.28402   0.25000   0.00000  Uiso   1.00
N48    N     0.16667   0.04931   0.25000   0.00000  Uiso   1.00
O49    O     0.10655   0.20625   0.24999   0.00000  Uiso   1.00
O50    O     0.22679   0.12709   0.25001   0.00000  Uiso   1.00
O51    O     0.22679   0.20625   0.25001   0.00000  Uiso   1.00
O52    O     0.10655   0.12709   0.25000   0.00000  Uiso   1.00
O53    O     0.16666   0.20627   0.18513   0.00000  Uiso   1.00
O54    O     0.16668   0.12707   0.31487   0.00000  Uiso   1.00
O55    O     0.16668   0.20627   0.31487   0.00000  Uiso   1.00
O56    O     0.16666   0.12707   0.18513   0.00000  Uiso   1.00
C57    C     0.05055   0.14700   0.45638   0.00000  Uiso   1.00
O58    O     0.04122   0.17152   0.42455   0.00000  Uiso   1.00
O59    O     0.02138   0.11664   0.47468   0.00000  Uiso   1.00
H60    H     0.32742   0.11762   0.45824   0.00000  Uiso   1.00
C61    C     0.28277   0.18637   0.04363   0.00000  Uiso   1.00
O62    O     0.29213   0.16181   0.07541   0.00000  Uiso   1.00
O63    O     0.31190   0.21682   0.02539   0.00000  Uiso   1.00
H64    H     0.00586   0.21585   0.04183   0.00000  Uiso   1.00
C65    C     0.42070   0.16670   0.24998   0.00000  Uiso   1.00
C66    C     0.57930   0.16663   0.25002   0.00000  Uiso   1.00
C67    C     0.42679   0.14931   0.02415   0.00000  Uiso   1.00
C68    C     0.57321   0.18405   0.47585   0.00000  Uiso   1.00
C69    C     0.35473   0.12415   0.25007   0.00000  Uiso   1.00
C70    C     0.64527   0.20919   0.24993   0.00000  Uiso   1.00
C71    C     0.64547   0.12411   0.25011   0.00000  Uiso   1.00
C72    C     0.35453   0.20922   0.24989   0.00000  Uiso   1.00
C73    C     0.62392   0.16663   0.25003   0.00000  Uiso   1.00
C74    C     0.37608   0.16671   0.24997   0.00000  Uiso   1.00
C75    C     0.47366   0.02480   0.22316   0.00000  Uiso   1.00
C76    C     0.52634   0.30853   0.27684   0.00000  Uiso   1.00
C77    C     0.52635   0.02479   0.27684   0.00000  Uiso   1.00
C78    C     0.47365   0.30854   0.22316   0.00000  Uiso   1.00
C79    C     0.50011   0.16660   0.16447   0.00000  Uiso   1.00
C80    C     0.49989   0.16674   0.33553   0.00000  Uiso   1.00
C81    C     0.53585   0.17717   0.40655   0.00000  Uiso   1.00
C82    C     0.46415   0.15618   0.09345   0.00000  Uiso   1.00
C83    C     0.49966   0.16703   0.38368   0.00000  Uiso   1.00
C84    C     0.50034   0.16630   0.11632   0.00000  Uiso   1.00
C85    C     0.46321   0.15744   0.40647   0.00000  Uiso   1.00
C86    C     0.53679   0.17589   0.09353   0.00000  Uiso   1.00
C87    C     0.46208   0.15894   0.45328   0.00000  Uiso   1.00
C88    C     0.53791   0.17441   0.04672   0.00000  Uiso   1.00
C89    C     0.49956   0.16719   0.47659   0.00000  Uiso   1.00
C90    C     0.50044   0.16616   0.02341   0.00000  Uiso   1.00
C91    C     0.53628   0.17648   0.45299   0.00000  Uiso   1.00
C92    C     0.46372   0.15687   0.04701   0.00000  Uiso   1.00
C93    C     0.42513   0.15127   0.47757   0.00000  Uiso   1.00
C94    C     0.57486   0.18209   0.02244   0.00000  Uiso   1.00
Cu95   Cu    0.50000   0.21355   0.25000   0.00000  Uiso   1.00
Cu96   Cu    0.50000   0.11978   0.25000   0.00000  Uiso   1.00
H97    H     0.56383   0.18444   0.38804   0.00000  Uiso   1.00
H98    H     0.43617   0.14891   0.11197   0.00000  Uiso   1.00
H99    H     0.43627   0.14851   0.38706   0.00000  Uiso   1.00
H100   H     0.56373   0.18481   0.11294   0.00000  Uiso   1.00
H101   H     0.39873   0.14333   0.04294   0.00000  Uiso   1.00
H102   H     0.60127   0.19004   0.45706   0.00000  Uiso   1.00
H103   H     0.37083   0.09090   0.25012   0.00000  Uiso   1.00
H104   H     0.62917   0.24244   0.24988   0.00000  Uiso   1.00
H105   H     0.62952   0.09085   0.25020   0.00000  Uiso   1.00
H106   H     0.37048   0.24248   0.24980   0.00000  Uiso   1.00
H107   H     0.45255   0.04348   0.20164   0.00000  Uiso   1.00
H108   H     0.54745   0.28985   0.29836   0.00000  Uiso   1.00
H109   H     0.54746   0.04347   0.29835   0.00000  Uiso   1.00
H110   H     0.45254   0.28986   0.20165   0.00000  Uiso   1.00
N111   N     0.50000   0.28402   0.25000   0.00000  Uiso   1.00
N112   N     0.50000   0.04931   0.25000   0.00000  Uiso   1.00
O113   O     0.43988   0.20625   0.24999   0.00000  Uiso   1.00
O114   O     0.56012   0.12709   0.25001   0.00000  Uiso   1.00
O115   O     0.56012   0.20625   0.25001   0.00000  Uiso   1.00
O116   O     0.43988   0.12709   0.25000   0.00000  Uiso   1.00
O117   O     0.49999   0.20627   0.18513   0.00000  Uiso   1.00
O118   O     0.50001   0.12707   0.31487   0.00000  Uiso   1.00
O119   O     0.50001   0.20627   0.31487   0.00000  Uiso   1.00
O120   O     0.49999   0.12707   0.18513   0.00000  Uiso   1.00
C121   C     0.38388   0.14700   0.45638   0.00000  Uiso   1.00
O122   O     0.37455   0.17152   0.42455   0.00000  Uiso   1.00
O123   O     0.35471   0.11664   0.47468   0.00000  Uiso   1.00
H124   H     0.66075   0.11762   0.45824   0.00000  Uiso   1.00
C125   C     0.61610   0.18637   0.04363   0.00000  Uiso   1.00
O126   O     0.62546   0.16181   0.07541   0.00000  Uiso   1.00
O127   O     0.64523   0.21682   0.02539   0.00000  Uiso   1.00
H128   H     0.33919   0.21585   0.04183   0.00000  Uiso   1.00
C129   C     0.75403   0.16670   0.24998   0.00000  Uiso   1.00
C130   C     0.91264   0.16663   0.25002   0.00000  Uiso   1.00
C131   C     0.76012   0.14931   0.02415   0.00000  Uiso   1.00
C132   C     0.90654   0.18405   0.47585   0.00000  Uiso   1.00
C133   C     0.68806   0.12415   0.25007   0.00000  Uiso   1.00
C134   C     0.97860   0.20919   0.24993   0.00000  Uiso   1.00
C135   C     0.97880   0.12411   0.25011   0.00000  Uiso   1.00
C136   C     0.68786   0.20922   0.24989   0.00000  Uiso   1.00
C137   C     0.95725   0.16663   0.25003   0.00000  Uiso   1.00
C138   C     0.70941   0.16671   0.24997   0.00000  Uiso   1.00
C139   C     0.80699   0.02480   0.22316   0.00000  Uiso   1.00
C140   C     0.85968   0.30853   0.27684   0.00000  Uiso   1.00
C141   C     0.85968   0.02479   0.27684   0.00000  Uiso   1.00
C142   C     0.80699   0.30854   0.22316   0.00000  Uiso   1.00
C143   C     0.83344   0.16660   0.16447   0.00000  Uiso   1.00
C144   C     0.83323   0.16674   0.33553   0.00000  Uiso   1.00
C145   C     0.86918   0.17717   0.40655   0.00000  Uiso   1.00
C146   C     0.79748   0.15618   0.09345   0.00000  Uiso   1.00
C147   C     0.83299   0.16703   0.38368   0.00000  Uiso   1.00
C148   C     0.83367   0.16630   0.11632   0.00000  Uiso   1.00
C149   C     0.79654   0.15744   0.40647   0.00000  Uiso   1.00
C150   C     0.87012   0.17589   0.09353   0.00000  Uiso   1.00
C151   C     0.79541   0.15894   0.45328   0.00000  Uiso   1.00
C152   C     0.87125   0.17441   0.04672   0.00000  Uiso   1.00
C153   C     0.83289   0.16719   0.47659   0.00000  Uiso   1.00
C154   C     0.83377   0.16616   0.02341   0.00000  Uiso   1.00
C155   C     0.86961   0.17648   0.45299   0.00000  Uiso   1.00
C156   C     0.79705   0.15687   0.04701   0.00000  Uiso   1.00
C157   C     0.75846   0.15127   0.47757   0.00000  Uiso   1.00
C158   C     0.90820   0.18209   0.02244   0.00000  Uiso   1.00
Cu159  Cu    0.83333   0.21355   0.25000   0.00000  Uiso   1.00
Cu160  Cu    0.83333   0.11978   0.25000   0.00000  Uiso   1.00
H161   H     0.89716   0.18444   0.38804   0.00000  Uiso   1.00
H162   H     0.76950   0.14891   0.11197   0.00000  Uiso   1.00
H163   H     0.76961   0.14851   0.38706   0.00000  Uiso   1.00
H164   H     0.89706   0.18481   0.11294   0.00000  Uiso   1.00
H165   H     0.73206   0.14333   0.04294   0.00000  Uiso   1.00
H166   H     0.93460   0.19004   0.45706   0.00000  Uiso   1.00
H167   H     0.70417   0.09090   0.25012   0.00000  Uiso   1.00
H168   H     0.96250   0.24244   0.24988   0.00000  Uiso   1.00
H169   H     0.96286   0.09085   0.25020   0.00000  Uiso   1.00
H170   H     0.70381   0.24248   0.24980   0.00000  Uiso   1.00
H171   H     0.78589   0.04348   0.20164   0.00000  Uiso   1.00
H172   H     0.88078   0.28985   0.29836   0.00000  Uiso   1.00
H173   H     0.88079   0.04347   0.29835   0.00000  Uiso   1.00
H174   H     0.78588   0.28986   0.20165   0.00000  Uiso   1.00
N175   N     0.83333   0.28402   0.25000   0.00000  Uiso   1.00
N176   N     0.83333   0.04931   0.25000   0.00000  Uiso   1.00
O177   O     0.77321   0.20625   0.24999   0.00000  Uiso   1.00
O178   O     0.89345   0.12709   0.25001   0.00000  Uiso   1.00
O179   O     0.89345   0.20625   0.25001   0.00000  Uiso   1.00
O180   O     0.77321   0.12709   0.25000   0.00000  Uiso   1.00
O181   O     0.83332   0.20627   0.18513   0.00000  Uiso   1.00
O182   O     0.83334   0.12707   0.31487   0.00000  Uiso   1.00
O183   O     0.83334   0.20627   0.31487   0.00000  Uiso   1.00
O184   O     0.83332   0.12707   0.18513   0.00000  Uiso   1.00
C185   C     0.71721   0.14700   0.45638   0.00000  Uiso   1.00
O186   O     0.70789   0.17152   0.42455   0.00000  Uiso   1.00
O187   O     0.68804   0.11664   0.47468   0.00000  Uiso   1.00
H188   H     0.99409   0.11762   0.45824   0.00000  Uiso   1.00
C189   C     0.94944   0.18637   0.04363   0.00000  Uiso   1.00
O190   O     0.95880   0.16181   0.07541   0.00000  Uiso   1.00
O191   O     0.97857   0.21682   0.02539   0.00000  Uiso   1.00
H192   H     0.67252   0.21585   0.04183   0.00000  Uiso   1.00
C193   C     0.08736   0.50003   0.24998   0.00000  Uiso   1.00
C194   C     0.24597   0.49997   0.25002   0.00000  Uiso   1.00
C195   C     0.09346   0.48264   0.02415   0.00000  Uiso   1.00
C196   C     0.23987   0.51739   0.47585   0.00000  Uiso   1.00
C197   C     0.02140   0.45748   0.25007   0.00000  Uiso   1.00
C198   C     0.31194   0.54252   0.24993   0.00000  Uiso   1.00
C199   C     0.31214   0.45744   0.25011   0.00000  Uiso   1.00
C200   C     0.02120   0.54256   0.24989   0.00000  Uiso   1.00
C201   C     0.29059   0.49996   0.25003   0.00000  Uiso   1.00
C202   C     0.04275   0.50004   0.24997   0.00000  Uiso   1.00
C203   C     0.14032   0.35814   0.22316   0.00000  Uiso   1.00
C204   C     0.19301   0.64186   0.27684   0.00000  Uiso   1.00
C205   C     0.19301   0.35813   0.27684   0.00000  Uiso   1.00
C206   C     0.14032   0.64187   0.22316   0.00000  Uiso   1.00
C207   C     0.16677   0.49993   0.16447   0.00000  Uiso   1.00
C208   C     0.16656   0.50007   0.33553   0.00000  Uiso   1.00
C209   C     0.20251   0.51050   0.40655   0.00000  Uiso   1.00
C210   C     0.13082   0.48951   0.09345   0.00000  Uiso   1.00
C211   C     0.16633   0.50036   0.38368   0.00000  Uiso   1.00
C212   C     0.16701   0.49964   0.11632   0.00000  Uiso   1.00
C213   C     0.12988   0.49077   0.40647   0.00000  Uiso   1.00
C214   C     0.20346   0.50923   0.09353   0.00000  Uiso   1.00
C215   C     0.12875   0.49227   0.45328   0.00000  Uiso   1.00
C216   C     0.20458   0.50774   0.04672   0.00000  Uiso   1.00
C217   C     0.16622   0.50052   0.47659   0.00000  Uiso   1.00
C218   C     0.16710   0.49949   0.02341   0.00000  Uiso   1.00
C219   C     0.20295   0.50982   0.45299   0.00000  Uiso   1.00
C220   C     0.13038   0.49020   0.04701   0.00000  Uiso   1.00
C221   C     0.09179   0.48460   0.47757   0.00000  Uiso   1.00
C222   C     0.24153   0.51542   0.02244   0.00000  Uiso   1.00
Cu223  Cu    0.16667   0.54689   0.25000   0.00000  Uiso   1.00
Cu224  Cu    0.16667   0.45311   0.25000   0.00000  Uiso   1.00
H225   H     0.23049   0.51777   0.38804   0.00000  Uiso   1.00
H226   H     0.10284   0.48224   0.11197   0.00000  Uiso   1.00
H227   H     0.10294   0.48184   0.38706   0.00000  Uiso   1.00
H228   H     0.23040   0.51814   0.11294   0.00000  Uiso   1.00
H229   H     0.06539   0.47667   0.04294   0.00000  Uiso   1.00
H230   H     0.26793   0.52337   0.45706   0.00000  Uiso   1.00
H231   H     0.03750   0.42423   0.25012   0.00000  Uiso   1.00
H232   H     0.29583   0.57577   0.24988   0.00000  Uiso   1.00
H233   H     0.29619   0.42418   0.25020   0.00000  Uiso   1.00
H234   H     0.03714   0.57582   0.24980   0.00000  Uiso   1.00
H235   H     0.11922   0.37682   0.20164   0.00000  Uiso   1.00
H236   H     0.21411   0.62318   0.29836   0.00000  Uiso   1.00
H237   H     0.21412   0.37680   0.29835   0.00000  Uiso   1.00
H238   H     0.11921   0.62320   0.20165   0.00000  Uiso   1.00
N239   N     0.16667   0.61736   0.25000   0.00000  Uiso   1.00
N240   N     0.16667   0.38264   0.25000   0.00000  Uiso   1.00
O241   O     0.10655   0.53958   0.24999   0.00000  Uiso   1.00
O242   O     0.22679   0.46042   0.25001   0.00000  Uiso   1.00
O243   O     0.22679   0.53958   0.25001   0.00000  Uiso   1.00
O244   O     0.10655   0.46042   0.25000   0.00000  Uiso   1.00
O245   O     0.16666   0.53960   0.18513   0.00000  Uiso   1.00
O246   O     0.16668   0.46040   0.31487   0.00000  Uiso   1.00
O247   O     0.16668   0.53960   0.31487   0.00000  Uiso   1.00
O248   O     0.16666   0.46040   0.18513   0.00000  Uiso   1.00
C249   C     0.05055   0.48034   0.45638   0.00000  Uiso   1.00
O250   O     0.04122   0.50485   0.42455   0.00000  Uiso   1.00
O251   O     0.02138   0.44998   0.47468   0.00000  Uiso   1.00
H252   H     0.32742   0.45095   0.45824   0.00000  Uiso   1.00
C253   C     0.28277   0.51971   0.04363   0.00000  Uiso   1.00
O254   O     0.29213   0.49514   0.07541   0.00000  Uiso   1.00
O255   O     0.31190   0.55015   0.02539   0.00000  Uiso   1.00
H256   H     0.00586   0.54919   0.04183   0.00000  Uiso   1.00
C257   C     0.42070   0.50003   0.24998   0.00000  Uiso   1.00
C258   C     0.57930   0.49997   0.25002   0.00000  Uiso   1.00
C259   C     0.42679   0.48264   0.02415   0.00000  Uiso   1.00
C260   C     0.57321   0.51739   0.47585   0.00000  Uiso   1.00
C261   C     0.35473   0.45748   0.25007   0.00000  Uiso   1.00
C262   C     0.64527   0.54252   0.24993   0.00000  Uiso   1.00
C263   C     0.64547   0.45744   0.25011   0.00000  Uiso   1.00
C264   C     0.35453   0.54256   0.24989   0.00000  Uiso   1.00
C265   C     0.62392   0.49996   0.25003   0.00000  Uiso   1.00
C266   C     0.37608   0.50004   0.24997   0.00000  Uiso   1.00
C267   C     0.47366   0.35814   0.22316   0.00000  Uiso   1.00
C268   C     0.52634   0.64186   0.27684   0.00000  Uiso   1.00
C269   C     0.52635   0.35813   0.27684   0.00000  Uiso   1.00
C270   C     0.47365   0.64187   0.22316   0.00000  Uiso   1.00
C271   C     0.50011   0.49993   0.16447   0.00000  Uiso   1.00
C272   C     0.49989   0.50007   0.33553   0.00000  Uiso   1.00
C273   C     0.53585   0.51050   0.40655   0.00000  Uiso   1.00
C274   C     0.46415   0.48951   0.09345   0.00000  Uiso   1.00
C275   C     0.49966   0.50036   0.38368   0.00000  Uiso   1.00
C276   C     0.50034   0.49964   0.11632   0.00000  Uiso   1.00
C277   C     0.46321   0.49077   0.40647   0.00000  Uiso   1.00
C278   C     0.53679   0.50923   0.09353   0.00000  Uiso   1.00
C279   C     0.46208   0.49227   0.45328   0.00000  Uiso   1.00
C280   C     0.53791   0.50774   0.04672   0.00000  Uiso   1.00
C281   C     0.49956   0.50052   0.47659   0.00000  Uiso   1.00
C282   C     0.50044   0.49949   0.02341   0.00000  Uiso   1.00
C283   C     0.53628   0.50982   0.45299   0.00000  Uiso   1.00
C284   C     0.46372   0.49020   0.04701   0.00000  Uiso   1.00
C285   C     0.42513   0.48460   0.47757   0.00000  Uiso   1.00
C286   C     0.57486   0.51542   0.02244   0.00000  Uiso   1.00
Cu287  Cu    0.50000   0.54689   0.25000   0.00000  Uiso   1.00
Cu288  Cu    0.50000   0.45311   0.25000   0.00000  Uiso   1.00
H289   H     0.56383   0.51777   0.38804   0.00000  Uiso   1.00
H290   H     0.43617   0.48224   0.11197   0.00000  Uiso   1.00
H291   H     0.43627   0.48184   0.38706   0.00000  Uiso   1.00
H292   H     0.56373   0.51814   0.11294   0.00000  Uiso   1.00
H293   H     0.39873   0.47667   0.04294   0.00000  Uiso   1.00
H294   H     0.60127   0.52337   0.45706   0.00000  Uiso   1.00
H295   H     0.37083   0.42423   0.25012   0.00000  Uiso   1.00
H296   H     0.62917   0.57577   0.24988   0.00000  Uiso   1.00
H297   H     0.62952   0.42418   0.25020   0.00000  Uiso   1.00
H298   H     0.37048   0.57582   0.24980   0.00000  Uiso   1.00
H299   H     0.45255   0.37682   0.20164   0.00000  Uiso   1.00
H300   H     0.54745   0.62318   0.29836   0.00000  Uiso   1.00
H301   H     0.54746   0.37680   0.29835   0.00000  Uiso   1.00
H302   H     0.45254   0.62320   0.20165   0.00000  Uiso   1.00
N303   N     0.50000   0.61736   0.25000   0.00000  Uiso   1.00
N304   N     0.50000   0.38264   0.25000   0.00000  Uiso   1.00
O305   O     0.43988   0.53958   0.24999   0.00000  Uiso   1.00
O306   O     0.56012   0.46042   0.25001   0.00000  Uiso   1.00
O307   O     0.56012   0.53958   0.25001   0.00000  Uiso   1.00
O308   O     0.43988   0.46042   0.25000   0.00000  Uiso   1.00
O309   O     0.49999   0.53960   0.18513   0.00000  Uiso   1.00
O310   O     0.50001   0.46040   0.31487   0.00000  Uiso   1.00
O311   O     0.50001   0.53960   0.31487   0.00000  Uiso   1.00
O312   O     0.49999   0.46040   0.18513   0.00000  Uiso   1.00
C313   C     0.38388   0.48034   0.45638   0.00000  Uiso   1.00
O314   O     0.37455   0.50485   0.42455   0.00000  Uiso   1.00
O315   O     0.35471   0.44998   0.47468   0.00000  Uiso   1.00
H316   H     0.66075   0.45095   0.45824   0.00000  Uiso   1.00
C317   C     0.61610   0.51971   0.04363   0.00000  Uiso   1.00
O318   O     0.62546   0.49514   0.07541   0.00000  Uiso   1.00
O319   O     0.64523   0.55015   0.02539   0.00000  Uiso   1.00
H320   H     0.33919   0.54919   0.04183   0.00000  Uiso   1.00
C321   C     0.75403   0.50003   0.24998   0.00000  Uiso   1.00
C322   C     0.91264   0.49997   0.25002   0.00000  Uiso   1.00
C323   C     0.76012   0.48264   0.02415   0.00000  Uiso   1.00
C324   C     0.90654   0.51739   0.47585   0.00000  Uiso   1.00
C325   C     0.68806   0.45748   0.25007   0.00000  Uiso   1.00
C326   C     0.97860   0.54252   0.24993   0.00000  Uiso   1.00
C327   C     0.97880   0.45744   0.25011   0.00000  Uiso   1.00
C328   C     0.68786   0.54256   0.24989   0.00000  Uiso   1.00
C329   C     0.95725   0.49996   0.25003   0.00000  Uiso   1.00
C330   C     0.70941   0.50004   0.24997   0.00000  Uiso   1.00
C331   C     0.80699   0.35814   0.22316   0.00000  Uiso   1.00
C332   C     0.85968   0.64186   0.27684   0.00000  Uiso   1.00
C333   C     0.85968   0.35813   0.27684   0.00000  Uiso   1.00
C334   C     0.80699   0.64187   0.22316   0.00000  Uiso   1.00
C335   C     0.83344   0.49993   0.16447   0.00000  Uiso   1.00
C336   C     0.83323   0.50007   0.33553   0.00000  Uiso   1.00
C337   C     0.86918   0.51050   0.40655   0.00000  Uiso   1.00
C338   C     0.79748   0.48951   0.09345   0.00000  Uiso   1.00
C339   C     0.83299   0.50036   0.38368   0.00000  Uiso   1.00
C340   C     0.83367   0.49964   0.11632   0.00000  Uiso   1.00
C341   C     0.79654   0.49077   0.40647   0.00000  Uiso   1.00
C342   C     0.87012   0.50923   0.09353   0.00000  Uiso   1.00
C343   C     0.79541   0.49227   0.45328   0.00000  Uiso   1.00
C344   C     0.87125   0.50774   0.04672   0.00000  Uiso   1.00
C345   C     0.83289   0.50052   0.47659   0.00000  Uiso   1.00
C346   C     0.83377   0.49949   0.02341   0.00000  Uiso   1.00
C347   C     0.86961   0.50982   0.45299   0.00000  Uiso   1.00
C348   C     0.79705   0.49020   0.04701   0.00000  Uiso   1.00
C349   C     0.75846   0.48460   0.47757   0.00000  Uiso   1.00
C350   C     0.90820   0.51542   0.02244   0.00000  Uiso   1.00
Cu351  Cu    0.83333   0.54689   0.25000   0.00000  Uiso   1.00
Cu352  Cu    0.83333   0.45311   0.25000   0.00000  Uiso   1.00
H353   H     0.89716   0.51777   0.38804   0.00000  Uiso   1.00
H354   H     0.76950   0.48224   0.11197   0.00000  Uiso   1.00
H355   H     0.76961   0.48184   0.38706   0.00000  Uiso   1.00
H356   H     0.89706   0.51814   0.11294   0.00000  Uiso   1.00
H357   H     0.73206   0.47667   0.04294   0.00000  Uiso   1.00
H358   H     0.93460   0.52337   0.45706   0.00000  Uiso   1.00
H359   H     0.70417   0.42423   0.25012   0.00000  Uiso   1.00
H360   H     0.96250   0.57577   0.24988   0.00000  Uiso   1.00
H361   H     0.96286   0.42418   0.25020   0.00000  Uiso   1.00
H362   H     0.70381   0.57582   0.24980   0.00000  Uiso   1.00
H363   H     0.78589   0.37682   0.20164   0.00000  Uiso   1.00
H364   H     0.88078   0.62318   0.29836   0.00000  Uiso   1.00
H365   H     0.88079   0.37680   0.29835   0.00000  Uiso   1.00
H366   H     0.78588   0.62320   0.20165   0.00000  Uiso   1.00
N367   N     0.83333   0.61736   0.25000   0.00000  Uiso   1.00
N368   N     0.83333   0.38264   0.25000   0.00000  Uiso   1.00
O369   O     0.77321   0.53958   0.24999   0.00000  Uiso   1.00
O370   O     0.89345   0.46042   0.25001   0.00000  Uiso   1.00
O371   O     0.89345   0.53958   0.25001   0.00000  Uiso   1.00
O372   O     0.77321   0.46042   0.25000   0.00000  Uiso   1.00
O373   O     0.83332   0.53960   0.18513   0.00000  Uiso   1.00
O374   O     0.83334   0.46040   0.31487   0.00000  Uiso   1.00
O375   O     0.83334   0.53960   0.31487   0.00000  Uiso   1.00
O376   O     0.83332   0.46040   0.18513   0.00000  Uiso   1.00
C377   C     0.71721   0.48034   0.45638   0.00000  Uiso   1.00
O378   O     0.70789   0.50485   0.42455   0.00000  Uiso   1.00
O379   O     0.68804   0.44998   0.47468   0.00000  Uiso   1.00
H380   H     0.99409   0.45095   0.45824   0.00000  Uiso   1.00
C381   C     0.94944   0.51971   0.04363   0.00000  Uiso   1.00
O382   O     0.95880   0.49514   0.07541   0.00000  Uiso   1.00
O383   O     0.97857   0.55015   0.02539   0.00000  Uiso   1.00
H384   H     0.67252   0.54919   0.04183   0.00000  Uiso   1.00
C385   C     0.08736   0.83337   0.24998   0.00000  Uiso   1.00
C386   C     0.24597   0.83330   0.25002   0.00000  Uiso   1.00
C387   C     0.09346   0.81597   0.02415   0.00000  Uiso   1.00
C388   C     0.23987   0.85072   0.47585   0.00000  Uiso   1.00
C389   C     0.02140   0.79081   0.25007   0.00000  Uiso   1.00
C390   C     0.31194   0.87585   0.24993   0.00000  Uiso   1.00
C391   C     0.31214   0.79078   0.25011   0.00000  Uiso   1.00
C392   C     0.02120   0.87589   0.24989   0.00000  Uiso   1.00
C393   C     0.29059   0.83329   0.25003   0.00000  Uiso   1.00
C394   C     0.04275   0.83337   0.24997   0.00000  Uiso   1.00
C395   C     0.14032   0.69147   0.22316   0.00000  Uiso   1.00
C396   C     0.19301   0.97520   0.27684   0.00000  Uiso   1.00
C397   C     0.19301   0.69146   0.27684   0.00000  Uiso   1.00
C398   C     0.14032   0.97521   0.22316   0.00000  Uiso   1.00
C399   C     0.16677   0.83326   0.16447   0.00000  Uiso   1.00
C400   C     0.16656   0.83340   0.33553   0.00000  Uiso   1.00
C401   C     0.20251   0.84384   0.40655   0.00000  Uiso   1.00
C402   C     0.13082   0.82284   0.09345   0.00000  Uiso   1.00
C403   C     0.16633   0.83370   0.38368   0.00000  Uiso   1.00
C404   C     0.16701   0.83297   0.11632   0.00000  Uiso   1.00
C405   C     0.12988   0.82410   0.40647   0.00000  Uiso   1.00
C406   C     0.20346   0.84256   0.09353   0.00000  Uiso   1.00
C407   C     0.12875   0.82560   0.45328   0.00000  Uiso   1.00
C408   C     0.20458   0.84107   0.04672   0.00000  Uiso   1.00
C409   C     0.16622   0.83386   0.47659   0.00000  Uiso   1.00
C410   C     0.16710   0.83282   0.02341   0.00000  Uiso   1.00
C411   C     0.20295   0.84315   0.45299   0.00000  Uiso   1.00
C412   C     0.13038   0.82353   0.04701   0.00000  Uiso   1.00
C413   C     0.09179   0.81793   0.47757   0.00000  Uiso   1.00
C414   C     0.24153   0.84876   0.02244   0.00000  Uiso   1.00
Cu415  Cu    0.16667   0.88022   0.25000   0.00000  Uiso   1.00
Cu416  Cu    0.16667   0.78645   0.25000   0.00000  Uiso   1.00
H417   H     0.23049   0.85111   0.38804   0.00000  Uiso   1.00
H418   H     0.10284   0.81558   0.11197   0.00000  Uiso   1.00
H419   H     0.10294   0.81518   0.38706   0.00000  Uiso   1.00
H420   H     0.23040   0.85147   0.11294   0.00000  Uiso   1.00
H421   H     0.06539   0.81000   0.04294   0.00000  Uiso   1.00
H422   H     0.26793   0.85671   0.45706   0.00000  Uiso   1.00
H423   H     0.03750   0.75756   0.25012   0.00000  Uiso   1.00
H424   H     0.29583   0.90910   0.24988   0.00000  Uiso   1.00
H425   H     0.29619   0.75752   0.25020   0.00000  Uiso   1.00
H426   H     0.03714   0.90915   0.24980   0.00000  Uiso   1.00
H427   H     0.11922   0.71015   0.20164   0.00000  Uiso   1.00
H428   H     0.21411   0.95652   0.29836   0.00000  Uiso   1.00
H429   H     0.21412   0.71014   0.29835   0.00000  Uiso   1.00
H430   H     0.11921   0.95653   0.20165   0.00000  Uiso   1.00
N431   N     0.16667   0.95069   0.25000   0.00000  Uiso   1.00
N432   N     0.16667   0.71598   0.25000   0.00000  Uiso   1.00
O433   O     0.10655   0.87291   0.24999   0.00000  Uiso   1.00
O434   O     0.22679   0.79375   0.25001   0.00000  Uiso   1.00
O435   O     0.22679   0.87291   0.25001   0.00000  Uiso   1.00
O436   O     0.10655   0.79375   0.25000   0.00000  Uiso   1.00
O437   O     0.16666   0.87293   0.18513   0.00000  Uiso   1.00
O438   O     0.16668   0.79373   0.31487   0.00000  Uiso   1.00
O439   O     0.16668   0.87293   0.31487   0.00000  Uiso   1.00
O440   O     0.16666   0.79373   0.18513   0.00000  Uiso   1.00
C441   C     0.05055   0.81367   0.45638   0.00000  Uiso   1.00
O442   O     0.04122   0.83819   0.42455   0.00000  Uiso   1.00
O443   O     0.02138   0.78331   0.47468   0.00000  Uiso   1.00
H444   H     0.32742   0.78429   0.45824   0.00000  Uiso   1.00
C445   C     0.28277   0.85304   0.04363   0.00000  Uiso   1.00
O446   O     0.29213   0.82847   0.07541   0.00000  Uiso   1.00
O447   O     0.31190   0.88349   0.02539   0.00000  Uiso   1.00
H448   H     0.00586   0.88252   0.04183   0.00000  Uiso   1.00
C449   C     0.42070   0.83337   0.24998   0.00000  Uiso   1.00
C450   C     0.57930   0.83330   0.25002   0.00000  Uiso   1.00
C451   C     0.42679   0.81597   0.02415   0.00000  Uiso   1.00
C452   C     0.57321   0.85072   0.47585   0.00000  Uiso   1.00
C453   C     0.35473   0.79081   0.25007   0.00000  Uiso   1.00
C454   C     0.64527   0.87585   0.24993   0.00000  Uiso   1.00
C455   C     0.64547   0.79078   0.25011   0.00000  Uiso   1.00
C456   C     0.35453   0.87589   0.24989   0.00000  Uiso   1.00
C457   C     0.62392   0.83329   0.25003   0.00000  Uiso   1.00
C458   C     0.37608   0.83337   0.24997   0.00000  Uiso   1.00
C459   C     0.47366   0.69147   0.22316   0.00000  Uiso   1.00
C460   C     0.52634   0.97520   0.27684   0.00000  Uiso   1.00
C461   C     0.52635   0.69146   0.27684   0.00000  Uiso   1.00
C462   C     0.47365   0.97521   0.22316   0.00000  Uiso   1.00
C463   C     0.50011   0.83326   0.16447   0.00000  Uiso   1.00
C464   C     0.49989   0.83340   0.33553   0.00000  Uiso   1.00
C465   C     0.53585   0.84384   0.40655   0.00000  Uiso   1.00
C466   C     0.46415   0.82284   0.09345   0.00000  Uiso   1.00
C467   C     0.49966   0.83370   0.38368   0.00000  Uiso   1.00
C468   C     0.50034   0.83297   0.11632   0.00000  Uiso   1.00
C469   C     0.46321   0.82410   0.40647   0.00000  Uiso   1.00
C470   C     0.53679   0.84256   0.09353   0.00000  Uiso   1.00
C471   C     0.46208   0.82560   0.45328   0.00000  Uiso   1.00
C472   C     0.53791   0.84107   0.04672   0.00000  Uiso   1.00
C473   C     0.49956   0.83386   0.47659   0.00000  Uiso   1.00
C474   C     0.50044   0.83282   0.02341   0.00000  Uiso   1.00
C475   C     0.53628   0.84315   0.45299   0.00000  Uiso   1.00
C476   C     0.46372   0.82353   0.04701   0.00000  Uiso   1.00
C477   C     0.42513   0.81793   0.47757   0.00000  Uiso   1.00
C478   C     0.57486   0.84876   0.02244   0.00000  Uiso   1.00
Cu479  Cu    0.50000   0.88022   0.25000   0.00000  Uiso   1.00
Cu480  Cu    0.50000   0.78645   0.25000   0.00000  Uiso   1.00
H481   H     0.56383   0.85111   0.38804   0.00000  Uiso   1.00
H482   H     0.43617   0.81558   0.11197   0.00000  Uiso   1.00
H483   H     0.43627   0.81518   0.38706   0.00000  Uiso   1.00
H484   H     0.56373   0.85147   0.11294   0.00000  Uiso   1.00
H485   H     0.39873   0.81000   0.04294   0.00000  Uiso   1.00
H486   H     0.60127   0.85671   0.45706   0.00000  Uiso   1.00
H487   H     0.37083   0.75756   0.25012   0.00000  Uiso   1.00
H488   H     0.62917   0.90910   0.24988   0.00000  Uiso   1.00
H489   H     0.62952   0.75752   0.25020   0.00000  Uiso   1.00
H490   H     0.37048   0.90915   0.24980   0.00000  Uiso   1.00
H491   H     0.45255   0.71015   0.20164   0.00000  Uiso   1.00
H492   H     0.54745   0.95652   0.29836   0.00000  Uiso   1.00
H493   H     0.54746   0.71014   0.29835   0.00000  Uiso   1.00
H494   H     0.45254   0.95653   0.20165   0.00000  Uiso   1.00
N495   N     0.50000   0.95069   0.25000   0.00000  Uiso   1.00
N496   N     0.50000   0.71598   0.25000   0.00000  Uiso   1.00
O497   O     0.43988   0.87291   0.24999   0.00000  Uiso   1.00
O498   O     0.56012   0.79375   0.25001   0.00000  Uiso   1.00
O499   O     0.56012   0.87291   0.25001   0.00000  Uiso   1.00
O500   O     0.43988   0.79375   0.25000   0.00000  Uiso   1.00
O501   O     0.49999   0.87293   0.18513   0.00000  Uiso   1.00
O502   O     0.50001   0.79373   0.31487   0.00000  Uiso   1.00
O503   O     0.50001   0.87293   0.31487   0.00000  Uiso   1.00
O504   O     0.49999   0.79373   0.18513   0.00000  Uiso   1.00
C505   C     0.38388   0.81367   0.45638   0.00000  Uiso   1.00
O506   O     0.37455   0.83819   0.42455   0.00000  Uiso   1.00
O507   O     0.35471   0.78331   0.47468   0.00000  Uiso   1.00
H508   H     0.66075   0.78429   0.45824   0.00000  Uiso   1.00
C509   C     0.61610   0.85304   0.04363   0.00000  Uiso   1.00
O510   O     0.62546   0.82847   0.07541   0.00000  Uiso   1.00
O511   O     0.64523   0.88349   0.02539   0.00000  Uiso   1.00
H512   H     0.33919   0.88252   0.04183   0.00000  Uiso   1.00
C513   C     0.75403   0.83337   0.24998   0.00000  Uiso   1.00
C514   C     0.91264   0.83330   0.25002   0.00000  Uiso   1.00
C515   C     0.76012   0.81597   0.02415   0.00000  Uiso   1.00
C516   C     0.90654   0.85072   0.47585   0.00000  Uiso   1.00
C517   C     0.68806   0.79081   0.25007   0.00000  Uiso   1.00
C518   C     0.97860   0.87585   0.24993   0.00000  Uiso   1.00
C519   C     0.97880   0.79078   0.25011   0.00000  Uiso   1.00
C520   C     0.68786   0.87589   0.24989   0.00000  Uiso   1.00
C521   C     0.95725   0.83329   0.25003   0.00000  Uiso   1.00
C522   C     0.70941   0.83337   0.24997   0.00000  Uiso   1.00
C523   C     0.80699   0.69147   0.22316   0.00000  Uiso   1.00
C524   C     0.85968   0.97520   0.27684   0.00000  Uiso   1.00
C525   C     0.85968   0.69146   0.27684   0.00000  Uiso   1.00
C526   C     0.80699   0.97521   0.22316   0.00000  Uiso   1.00
C527   C     0.83344   0.83326   0.16447   0.00000  Uiso   1.00
C528   C     0.83323   0.83340   0.33553   0.00000  Uiso   1.00
C529   C     0.86918   0.84384   0.40655   0.00000  Uiso   1.00
C530   C     0.79748   0.82284   0.09345   0.00000  Uiso   1.00
C531   C     0.83299   0.83370   0.38368   0.00000  Uiso   1.00
C532   C     0.83367   0.83297   0.11632   0.00000  Uiso   1.00
C533   C     0.79654   0.82410   0.40647   0.00000  Uiso   1.00
C534   C     0.87012   0.84256   0.09353   0.00000  Uiso   1.00
C535   C     0.79541   0.82560   0.45328   0.00000  Uiso   1.00
C536   C     0.87125   0.84107   0.04672   0.00000  Uiso   1.00
C537   C     0.83289   0.83386   0.47659   0.00000  Uiso   1.00
C538   C     0.83377   0.83282   0.02341   0.00000  Uiso   1.00
C539   C     0.86961   0.84315   0.45299   0.00000  Uiso   1.00
C540   C     0.79705   0.82353   0.04701   0.00000  Uiso   1.00
C541   C     0.75846   0.81793   0.47757   0.00000  Uiso   1.00
C542   C     0.90820   0.84876   0.02244   0.00000  Uiso   1.00
Cu543  Cu    0.83333   0.88022   0.25000   0.00000  Uiso   1.00
Cu544  Cu    0.83333   0.78645   0.25000   0.00000  Uiso   1.00
H545   H     0.89716   0.85111   0.38804   0.00000  Uiso   1.00
H546   H     0.76950   0.81558   0.11197   0.00000  Uiso   1.00
H547   H     0.76961   0.81518   0.38706   0.00000  Uiso   1.00
H548   H     0.89706   0.85147   0.11294   0.00000  Uiso   1.00
H549   H     0.73206   0.81000   0.04294   0.00000  Uiso   1.00
H550   H     0.93460   0.85671   0.45706   0.00000  Uiso   1.00
H551   H     0.70417   0.75756   0.25012   0.00000  Uiso   1.00
H552   H     0.96250   0.90910   0.24988   0.00000  Uiso   1.00
H553   H     0.96286   0.75752   0.25020   0.00000  Uiso   1.00
H554   H     0.70381   0.90915   0.24980   0.00000  Uiso   1.00
H555   H     0.78589   0.71015   0.20164   0.00000  Uiso   1.00
H556   H     0.88078   0.95652   0.29836   0.00000  Uiso   1.00
H557   H     0.88079   0.71014   0.29835   0.00000  Uiso   1.00
H558   H     0.78588   0.95653   0.20165   0.00000  Uiso   1.00
N559   N     0.83333   0.95069   0.25000   0.00000  Uiso   1.00
N560   N     0.83333   0.71598   0.25000   0.00000  Uiso   1.00
O561   O     0.77321   0.87291   0.24999   0.00000  Uiso   1.00
O562   O     0.89345   0.79375   0.25001   0.00000  Uiso   1.00
O563   O     0.89345   0.87291   0.25001   0.00000  Uiso   1.00
O564   O     0.77321   0.79375   0.25000   0.00000  Uiso   1.00
O565   O     0.83332   0.87293   0.18513   0.00000  Uiso   1.00
O566   O     0.83334   0.79373   0.31487   0.00000  Uiso   1.00
O567   O     0.83334   0.87293   0.31487   0.00000  Uiso   1.00
O568   O     0.83332   0.79373   0.18513   0.00000  Uiso   1.00
C569   C     0.71721   0.81367   0.45638   0.00000  Uiso   1.00
O570   O     0.70789   0.83819   0.42455   0.00000  Uiso   1.00
O571   O     0.68804   0.78331   0.47468   0.00000  Uiso   1.00
H572   H     0.99409   0.78429   0.45824   0.00000  Uiso   1.00
C573   C     0.94944   0.85304   0.04363   0.00000  Uiso   1.00
O574   O     0.95880   0.82847   0.07541   0.00000  Uiso   1.00
O575   O     0.97857   0.88349   0.02539   0.00000  Uiso   1.00
H576   H     0.67252   0.88252   0.04183   0.00000  Uiso   1.00
C577   C     0.08736   0.16670   0.74998   0.00000  Uiso   1.00
C578   C     0.24597   0.16663   0.75002   0.00000  Uiso   1.00
C579   C     0.09346   0.14931   0.52415   0.00000  Uiso   1.00
C580   C     0.23987   0.18405   0.97585   0.00000  Uiso   1.00
C581   C     0.02140   0.12415   0.75007   0.00000  Uiso   1.00
C582   C     0.31194   0.20919   0.74993   0.00000  Uiso   1.00
C583   C     0.31214   0.12411   0.75011   0.00000  Uiso   1.00
C584   C     0.02120   0.20922   0.74989   0.00000  Uiso   1.00
C585   C     0.29059   0.16663   0.75003   0.00000  Uiso   1.00
C586   C     0.04275   0.16671   0.74997   0.00000  Uiso   1.00
C587   C     0.14032   0.02480   0.72316   0.00000  Uiso   1.00
C588   C     0.19301   0.30853   0.77684   0.00000  Uiso   1.00
C589   C     0.19301   0.02479   0.77684   0.00000  Uiso   1.00
C590   C     0.14032   0.30854   0.72316   0.00000  Uiso   1.00
C591   C     0.16677   0.16660   0.66447   0.00000  Uiso   1.00
C592   C     0.16656   0.16674   0.83553   0.00000  Uiso   1.00
C593   C     0.20251   0.17717   0.90655   0.00000  Uiso   1.00
C594   C     0.13082   0.15618   0.59345   0.00000  Uiso   1.00
C595   C     0.16633   0.16703   0.88368   0.00000  Uiso   1.00
C596   C     0.16701   0.16630   0.61632   0.00000  Uiso   1.00
C597   C     0.12988   0.15744   0.90647   0.00000  Uiso   1.00
C598   C     0.20346   0.17589   0.59353   0.00000  Uiso   1.00
C599   C     0.12875   0.15894   0.95328   0.00000  Uiso   1.00
C600   C     0.20458   0.17441   0.54672   0.00000  Uiso   1.00
C601   C     0.16622   0.16719   0.97659   0.00000  Uiso   1.00
C602   C     0.16710   0.16616   0.52341   0.00000  Uiso   1.00
C603   C     0.20295   0.17648   0.95299   0.00000  Uiso   1.00
C604   C     0.13038   0.15687   0.54701   0.00000  Uiso   1.00
C605   C     0.09179   0.15127   0.97757   0.00000  Uiso   1.00
C606   C     0.24153   0.18209   0.52244   0.00000  Uiso   1.00
Cu607  Cu    0.16667   0.21355   0.75000   0.00000  Uiso   1.00
Cu608  Cu    0.16667   0.11978   0.75000   0.00000  Uiso   1.00
H609   H     0.23049   0.18444   0.88804   0.00000  Uiso   1.00
H610   H     0.10284   0.14891   0.61197   0.00000  Uiso   1.00
H611   H     0.10294   0.14851   0.88706   0.00000  Uiso   1.00
H612   H     0.23040   0.18481   0.61294   0.00000  Uiso   1.00
H613   H     0.06539   0.14333   0.54294   0.00000  Uiso   1.00
H614   H     0.26793   0.19004   0.95706   0.00000  Uiso   1.00
H615   H     0.03750   0.09090   0.75012   0.00000  Uiso   1.00
H616   H     0.29583   0.24244   0.74988   0.00000  Uiso   1.00
H617   H     0.29619   0.09085   0.75020   0.00000  Uiso   1.00
H618   H     0.03714   0.24248   0.74980   0.00000  Uiso   1.00
H619   H     0.11922   0.04348   0.70164   0.00000  Uiso   1.00
H620   H     0.21411   0.28985   0.79836   0.00000  Uiso   1.00
H621   H     0.21412   0.04347   0.79835   0.00000  Uiso   1.00
H622   H     0.11921   0.28986   0.70165   0.00000  Uiso   1.00
N623   N     0.16667   0.28402   0.75000   0.00000  Uiso   1.00
N624   N     0.16667   0.04931   0.75000   0.00000  Uiso   1.00
O625   O     0.10655   0.20625   0.74999   0.00000  Uiso   1.00
O626   O     0.22679   0.12709   0.75001   0.00000  Uiso   1.00
O627   O     0.22679   0.20625   0.75001   0.00000  Uiso   1.00
O628   O     0.10655   0.12709   0.75000   0.00000  Uiso   1.00
O629   O     0.16666   0.20627   0.68513   0.00000  Uiso   1.00
O630   O     0.16668   0.12707   0.81487   0.00000  Uiso   1.00
O631   O     0.16668   0.20627   0.81487   0.00000  Uiso   1.00
O632   O     0.16666   0.12707   0.68513   0.00000  Uiso   1.00
C633   C     0.05055   0.14700   0.95638   0.00000  Uiso   1.00
O634   O     0.04122   0.17152   0.92455   0.00000  Uiso   1.00
O635   O     0.02138   0.11664   0.97468   0.00000  Uiso   1.00
H636   H     0.32742   0.11762   0.95824   0.00000  Uiso   1.00
C637   C     0.28277   0.18637   0.54363   0.00000  Uiso   1.00
O638   O     0.29213   0.16181   0.57541   0.00000  Uiso   1.00
O639   O     0.31190   0.21682   0.52539   0.00000  Uiso   1.00
H640   H     0.00586   0.21585   0.54183   0.00000  Uiso   1.00
C641   C     0.42070   0.16670   0.74998   0.00000  Uiso   1.00
C642   C     0.57930   0.16663   0.75002   0.00000  Uiso   1.00
C643   C     0.42679   0.14931   0.52415   0.00000  Uiso   1.00
C644   C     0.57321   0.18405   0.97585   0.00000  Uiso   1.00
C645   C     0.35473   0.12415   0.75007   0.00000  Uiso   1.00
C646   C     0.64527   0.20919   0.74993   0.00000  Uiso   1.00
C647   C     0.64547   0.12411   0.75011   0.00000  Uiso   1.00
C648   C     0.35453   0.20922   0.74989   0.00000  Uiso   1.00
C649   C     0.62392   0.16663   0.75003   0.00000  Uiso   1.00
C650   C     0.37608   0.16671   0.74997   0.00000  Uiso   1.00
C651   C     0.47366   0.02480   0.72316   0.00000  Uiso   1.00
C652   C     0.52634   0.30853   0.77684   0.00000  Uiso   1.00
C653   C     0.52635   0.02479   0.77684   0.00000  Uiso   1.00
C654   C     0.47365   0.30854   0.72316   0.00000  Uiso   1.00
C655   C     0.50011   0.16660   0.66447   0.00000  Uiso   1.00
C656   C     0.49989   0.16674   0.83553   0.00000  Uiso   1.00
C657   C     0.53585   0.17717   0.90655   0.00000  Uiso   1.00
C658   C     0.46415   0.15618   0.59345   0.00000  Uiso   1.00
C659   C     0.49966   0.16703   0.88368   0.00000  Uiso   1.00
C660   C     0.50034   0.16630   0.61632   0.00000  Uiso   1.00
C661   C     0.46321   0.15744   0.90647   0.00000  Uiso   1.00
C662   C     0.53679   0.17589   0.59353   0.00000  Uiso   1.00
C663   C     0.46208   0.15894   0.95328   0.00000  Uiso   1.00
C664   C     0.53791   0.17441   0.54672   0.00000  Uiso   1.00
C665   C     0.49956   0.16719   0.97659   0.00000  Uiso   1.00
C666   C     0.50044   0.16616   0.52341   0.00000  Uiso   1.00
C667   C     0.53628   0.17648   0.95299   0.00000  Uiso   1.00
C668   C     0.46372   0.15687   0.54701   0.00000  Uiso   1.00
C669   C     0.42513   0.15127   0.97757   0.00000  Uiso   1.00
C670   C     0.57486   0.18209   0.52244   0.00000  Uiso   1.00
Cu671  Cu    0.50000   0.21355   0.75000   0.00000  Uiso   1.00
Cu672  Cu    0.50000   0.11978   0.75000   0.00000  Uiso   1.00
H673   H     0.56383   0.18444   0.88804   0.00000  Uiso   1.00
H674   H     0.43617   0.14891   0.61197   0.00000  Uiso   1.00
H675   H     0.43627   0.14851   0.88706   0.00000  Uiso   1.00
H676   H     0.56373   0.18481   0.61294   0.00000  Uiso   1.00
H677   H     0.39873   0.14333   0.54294   0.00000  Uiso   1.00
H678   H     0.60127   0.19004   0.95706   0.00000  Uiso   1.00
H679   H     0.37083   0.09090   0.75012   0.00000  Uiso   1.00
H680   H     0.62917   0.24244   0.74988   0.00000  Uiso   1.00
H681   H     0.62952   0.09085   0.75020   0.00000  Uiso   1.00
H682   H     0.37048   0.24248   0.74980   0.00000  Uiso   1.00
H683   H     0.45255   0.04348   0.70164   0.00000  Uiso   1.00
H684   H     0.54745   0.28985   0.79836   0.00000  Uiso   1.00
H685   H     0.54746   0.04347   0.79835   0.00000  Uiso   1.00
H686   H     0.45254   0.28986   0.70165   0.00000  Uiso   1.00
N687   N     0.50000   0.28402   0.75000   0.00000  Uiso   1.00
N688   N     0.50000   0.04931   0.75000   0.00000  Uiso   1.00
O689   O     0.43988   0.20625   0.74999   0.00000  Uiso   1.00
O690   O     0.56012   0.12709   0.75001   0.00000  Uiso   1.00
O691   O     0.56012   0.20625   0.75001   0.00000  Uiso   1.00
O692   O     0.43988   0.12709   0.75000   0.00000  Uiso   1.00
O693   O     0.49999   0.20627   0.68513   0.00000  Uiso   1.00
O694   O     0.50001   0.12707   0.81487   0.00000  Uiso   1.00
O695   O     0.50001   0.20627   0.81487   0.00000  Uiso   1.00
O696   O     0.49999   0.12707   0.68513   0.00000  Uiso   1.00
C697   C     0.38388   0.14700   0.95638   0.00000  Uiso   1.00
O698   O     0.37455   0.17152   0.92455   0.00000  Uiso   1.00
O699   O     0.35471   0.11664   0.97468   0.00000  Uiso   1.00
H700   H     0.66075   0.11762   0.95824   0.00000  Uiso   1.00
C701   C     0.61610   0.18637   0.54363   0.00000  Uiso   1.00
O702   O     0.62546   0.16181   0.57541   0.00000  Uiso   1.00
O703   O     0.64523   0.21682   0.52539   0.00000  Uiso   1.00
H704   H     0.33919   0.21585   0.54183   0.00000  Uiso   1.00
C705   C     0.75403   0.16670   0.74998   0.00000  Uiso   1.00
C706   C     0.91264   0.16663   0.75002   0.00000  Uiso   1.00
C707   C     0.76012   0.14931   0.52415   0.00000  Uiso   1.00
C708   C     0.90654   0.18405   0.97585   0.00000  Uiso   1.00
C709   C     0.68806   0.12415   0.75007   0.00000  Uiso   1.00
C710   C     0.97860   0.20919   0.74993   0.00000  Uiso   1.00
C711   C     0.97880   0.12411   0.75011   0.00000  Uiso   1.00
C712   C     0.68786   0.20922   0.74989   0.00000  Uiso   1.00
C713   C     0.95725   0.16663   0.75003   0.00000  Uiso   1.00
C714   C     0.70941   0.16671   0.74997   0.00000  Uiso   1.00
C715   C     0.80699   0.02480   0.72316   0.00000  Uiso   1.00
C716   C     0.85968   0.30853   0.77684   0.00000  Uiso   1.00
C717   C     0.85968   0.02479   0.77684   0.00000  Uiso   1.00
C718   C     0.80699   0.30854   0.72316   0.00000  Uiso   1.00
C719   C     0.83344   0.16660   0.66447   0.00000  Uiso   1.00
C720   C     0.83323   0.16674   0.83553   0.00000  Uiso   1.00
C721   C     0.86918   0.17717   0.90655   0.00000  Uiso   1.00
C722   C     0.79748   0.15618   0.59345   0.00000  Uiso   1.00
C723   C     0.83299   0.16703   0.88368   0.00000  Uiso   1.00
C724   C     0.83367   0.16630   0.61632   0.00000  Uiso   1.00
C725   C     0.79654   0.15744   0.90647   0.00000  Uiso   1.00
C726   C     0.87012   0.17589   0.59353   0.00000  Uiso   1.00
C727   C     0.79541   0.15894   0.95328   0.00000  Uiso   1.00
C728   C     0.87125   0.17441   0.54672   0.00000  Uiso   1.00
C729   C     0.83289   0.16719   0.97659   0.00000  Uiso   1.00
C730   C     0.83377   0.16616   0.52341   0.00000  Uiso   1.00
C731   C     0.86961   0.17648   0.95299   0.00000  Uiso   1.00
C732   C     0.79705   0.15687   0.54701   0.00000  Uiso   1.00
C733   C     0.75846   0.15127   0.97757   0.00000  Uiso   1.00
C734   C     0.90820   0.18209   0.52244   0.00000  Uiso   1.00
Cu735  Cu    0.83333   0.21355   0.75000   0.00000  Uiso   1.00
Cu736  Cu    0.83333   0.11978   0.75000   0.00000  Uiso   1.00
H737   H     0.89716   0.18444   0.88804   0.00000  Uiso   1.00
H738   H     0.76950   0.14891   0.61197   0.00000  Uiso   1.00
H739   H     0.76961   0.14851   0.88706   0.00000  Uiso   1.00
H740   H     0.89706   0.18481   0.61294   0.00000  Uiso   1.00
H741   H     0.73206   0.14333   0.54294   0.00000  Uiso   1.00
H742   H     0.93460   0.19004   0.95706   0.00000  Uiso   1.00
H743   H     0.70417   0.09090   0.75012   0.00000  Uiso   1.00
H744   H     0.96250   0.24244   0.74988   0.00000  Uiso   1.00
H745   H     0.96286   0.09085   0.75020   0.00000  Uiso   1.00
H746   H     0.70381   0.24248   0.74980   0.00000  Uiso   1.00
H747   H     0.78589   0.04348   0.70164   0.00000  Uiso   1.00
H748   H     0.88078   0.28985   0.79836   0.00000  Uiso   1.00
H749   H     0.88079   0.04347   0.79835   0.00000  Uiso   1.00
H750   H     0.78588   0.28986   0.70165   0.00000  Uiso   1.00
N751   N     0.83333   0.28402   0.75000   0.00000  Uiso   1.00
N752   N     0.83333   0.04931   0.75000   0.00000  Uiso   1.00
O753   O     0.77321   0.20625   0.74999   0.00000  Uiso   1.00
O754   O     0.89345   0.12709   0.75001   0.00000  Uiso   1.00
O755   O     0.89345   0.20625   0.75001   0.00000  Uiso   1.00
O756   O     0.77321   0.12709   0.75000   0.00000  Uiso   1.00
O757   O     0.83332   0.20627   0.68513   0.00000  Uiso   1.00
O758   O     0.83334   0.12707   0.81487   0.00000  Uiso   1.00
O759   O     0.83334   0.20627   0.81487   0.00000  Uiso   1.00
O760   O     0.83332   0.12707   0.68513   0.00000  Uiso   1.00
C761   C     0.71721   0.14700   0.95638   0.00000  Uiso   1.00
O762   O     0.70789   0.17152   0.92455   0.00000  Uiso   1.00
O763   O     0.68804   0.11664   0.97468   0.00000  Uiso   1.00
H764   H     0.99409   0.11762   0.95824   0.00000  Uiso   1.00
C765   C     0.94944   0.18637   0.54363   0.00000  Uiso   1.00
O766   O     0.95880   0.16181   0.57541   0.00000  Uiso   1.00
O767   O     0.97857   0.21682   0.52539   0.00000  Uiso   1.00
H768   H     0.67252   0.21585   0.54183   0.00000  Uiso   1.00
C769   C     0.08736   0.50003   0.74998   0.00000  Uiso   1.00
C770   C     0.24597   0.49997   0.75002   0.00000  Uiso   1.00
C771   C     0.09346   0.48264   0.52415   0.00000  Uiso   1.00
C772   C     0.23987   0.51739   0.97585   0.00000  Uiso   1.00
C773   C     0.02140   0.45748   0.75007   0.00000  Uiso   1.00
C774   C     0.31194   0.54252   0.74993   0.00000  Uiso   1.00
C775   C     0.31214   0.45744   0.75011   0.00000  Uiso   1.00
C776   C     0.02120   0.54256   0.74989   0.00000  Uiso   1.00
C777   C     0.29059   0.49996   0.75003   0.00000  Uiso   1.00
C778   C     0.04275   0.50004   0.74997   0.00000  Uiso   1.00
C779   C     0.14032   0.35814   0.72316   0.00000  Uiso   1.00
C780   C     0.19301   0.64186   0.77684   0.00000  Uiso   1.00
C781   C     0.19301   0.35813   0.77684   0.00000  Uiso   1.00
C782   C     0.14032   0.64187   0.72316   0.00000  Uiso   1.00
C783   C     0.16677   0.49993   0.66447   0.00000  Uiso   1.00
C784   C     0.16656   0.50007   0.83553   0.00000  Uiso   1.00
C785   C     0.20251   0.51050   0.90655   0.00000  Uiso   1.00
C786   C     0.13082   0.48951   0.59345   0.00000  Uiso   1.00
C787   C     0.16633   0.50036   0.88368   0.00000  Uiso   1.00
C788   C     0.16701   0.49964   0.61632   0.00000  Uiso   1.00
C789   C     0.12988   0.49077   0.90647   0.00000  Uiso   1.00
C790   C     0.20346   0.50923   0.59353   0.00000  Uiso   1.00
C791   C     0.12875   0.49227   0.95328   0.00000  Uiso   1.00
C792   C     0.20458   0.50774   0.54672   0.00000  Uiso   1.00
C793   C     0.16622   0.50052   0.97659   0.00000  Uiso   1.00
C794   C     0.16710   0.49949   0.52341   0.00000  Uiso   1.00
C795   C     0.20295   0.50982   0.95299   0.00000  Uiso   1.00
C796   C     0.13038   0.49020   0.54701   0.00000  Uiso   1.00
C797   C     0.09179   0.48460   0.97757   0.00000  Uiso   1.00
C798   C     0.24153   0.51542   0.52244   0.00000  Uiso   1.00
Cu799  Cu    0.16667   0.54689   0.75000   0.00000  Uiso   1.00
Cu800  Cu    0.16667   0.45311   0.75000   0.00000  Uiso   1.00
H801   H     0.23049   0.51777   0.88804   0.00000  Uiso   1.00
H802   H     0.10284   0.48224   0.61197   0.00000  Uiso   1.00
H803   H     0.10294   0.48184   0.88706   0.00000  Uiso   1.00
H804   H     0.23040   0.51814   0.61294   0.00000  Uiso   1.00
H805   H     0.06539   0.47667   0.54294   0.00000  Uiso   1.00
H806   H     0.26793   0.52337   0.95706   0.00000  Uiso   1.00
H807   H     0.03750   0.42423   0.75012   0.00000  Uiso   1.00
H808   H     0.29583   0.57577   0.74988   0.00000  Uiso   1.00
H809   H     0.29619   0.42418   0.75020   0.00000  Uiso   1.00
H810   H     0.03714   0.57582   0.74980   0.00000  Uiso   1.00
H811   H     0.11922   0.37682   0.70164   0.00000  Uiso   1.00
H812   H     0.21411   0.62318   0.79836   0.00000  Uiso   1.00
H813   H     0.21412   0.37680   0.79835   0.00000  Uiso   1.00
H814   H     0.11921   0.62320   0.70165   0.00000  Uiso   1.00
N815   N     0.16667   0.61736   0.75000   0.00000  Uiso   1.00
N816   N     0.16667   0.38264   0.75000   0.00000  Uiso   1.00
O817   O     0.10655   0.53958   0.74999   0.00000  Uiso   1.00
O818   O     0.22679   0.46042   0.75001   0.00000  Uiso   1.00
O819   O     0.22679   0.53958   0.75001   0.00000  Uiso   1.00
O820   O     0.10655   0.46042   0.75000   0.00000  Uiso   1.00
O821   O     0.16666   0.53960   0.68513   0.00000  Uiso   1.00
O822   O     0.16668   0.46040   0.81487   0.00000  Uiso   1.00
O823   O     0.16668   0.53960   0.81487   0.00000  Uiso   1.00
O824   O     0.16666   0.46040   0.68513   0.00000  Uiso   1.00
C825   C     0.05055   0.48034   0.95638   0.00000  Uiso   1.00
O826   O     0.04122   0.50485   0.92455   0.00000  Uiso   1.00
O827   O     0.02138   0.44998   0.97468   0.00000  Uiso   1.00
H828   H     0.32742   0.45095   0.95824   0.00000  Uiso   1.00
C829   C     0.28277   0.51971   0.54363   0.00000  Uiso   1.00
O830   O     0.29213   0.49514   0.57541   0.00000  Uiso   1.00
O831   O     0.31190   0.55015   0.52539   0.00000  Uiso   1.00
H832   H     0.00586   0.54919   0.54183   0.00000  Uiso   1.00
C833   C     0.42070   0.50003   0.74998   0.00000  Uiso   1.00
C834   C     0.57930   0.49997   0.75002   0.00000  Uiso   1.00
C835   C     0.42679   0.48264   0.52415   0.00000  Uiso   1.00
C836   C     0.57321   0.51739   0.97585   0.00000  Uiso   1.00
C837   C     0.35473   0.45748   0.75007   0.00000  Uiso   1.00
C838   C     0.64527   0.54252   0.74993   0.00000  Uiso   1.00
C839   C     0.64547   0.45744   0.75011   0.00000  Uiso   1.00
C840   C     0.35453   0.54256   0.74989   0.00000  Uiso   1.00
C841   C     0.62392   0.49996   0.75003   0.00000  Uiso   1.00
C842   C     0.37608   0.50004   0.74997   0.00000  Uiso   1.00
C843   C     0.47366   0.35814   0.72316   0.00000  Uiso   1.00
C844   C     0.52634   0.64186   0.77684   0.00000  Uiso   1.00
C845   C     0.52635   0.35813   0.77684   0.00000  Uiso   1.00
C846   C     0.47365   0.64187   0.72316   0.00000  Uiso   1.00
C847   C     0.50011   0.49993   0.66447   0.00000  Uiso   1.00
C848   C     0.49989   0.50007   0.83553   0.00000  Uiso   1.00
C849   C     0.53585   0.51050   0.90655   0.00000  Uiso   1.00
C850   C     0.46415   0.48951   0.59345   0.00000  Uiso   1.00
C851   C     0.49966   0.50036   0.88368   0.00000  Uiso   1.00
C852   C     0.50034   0.49964   0.61632   0.00000  Uiso   1.00
C853   C     0.46321   0.49077   0.90647   0.00000  Uiso   1.00
C854   C     0.53679   0.50923   0.59353   0.00000  Uiso   1.00
C855   C     0.46208   0.49227   0.95328   0.00000  Uiso   1.00
C856   C     0.53791   0.50774   0.54672   0.00000  Uiso   1.00
C857   C     0.49956   0.50052   0.97659   0.00000  Uiso   1.00
C858   C     0.50044   0.49949   0.52341   0.00000  Uiso   1.00
C859   C     0.53628   0.50982   0.95299   0.00000  Uiso   1.00
C860   C     0.46372   0.49020   0.54701   0.00000  Uiso   1.00
C861   C     0.42513   0.48460   0.97757   0.00000  Uiso   1.00
C862   C     0.57486   0.51542   0.52244   0.00000  Uiso   1.00
Cu863  Cu    0.50000   0.54689   0.75000   0.00000  Uiso   1.00
Cu864  Cu    0.50000   0.45311   0.75000   0.00000  Uiso   1.00
H865   H     0.56383   0.51777   0.88804   0.00000  Uiso   1.00
H866   H     0.43617   0.48224   0.61197   0.00000  Uiso   1.00
H867   H     0.43627   0.48184   0.88706   0.00000  Uiso   1.00
H868   H     0.56373   0.51814   0.61294   0.00000  Uiso   1.00
H869   H     0.39873   0.47667   0.54294   0.00000  Uiso   1.00
H870   H     0.60127   0.52337   0.95706   0.00000  Uiso   1.00
H871   H     0.37083   0.42423   0.75012   0.00000  Uiso   1.00
H872   H     0.62917   0.57577   0.74988   0.00000  Uiso   1.00
H873   H     0.62952   0.42418   0.75020   0.00000  Uiso   1.00
H874   H     0.37048   0.57582   0.74980   0.00000  Uiso   1.00
H875   H     0.45255   0.37682   0.70164   0.00000  Uiso   1.00
H876   H     0.54745   0.62318   0.79836   0.00000  Uiso   1.00
H877   H     0.54746   0.37680   0.79835   0.00000  Uiso   1.00
H878   H     0.45254   0.62320   0.70165   0.00000  Uiso   1.00
N879   N     0.50000   0.61736   0.75000   0.00000  Uiso   1.00
N880   N     0.50000   0.38264   0.75000   0.00000  Uiso   1.00
O881   O     0.43988   0.53958   0.74999   0.00000  Uiso   1.00
O882   O     0.56012   0.46042   0.75001   0.00000  Uiso   1.00
O883   O     0.56012   0.53958   0.75001   0.00000  Uiso   1.00
O884   O     0.43988   0.46042   0.75000   0.00000  Uiso   1.00
O885   O     0.49999   0.53960   0.68513   0.00000  Uiso   1.00
O886   O     0.50001   0.46040   0.81487   0.00000  Uiso   1.00
O887   O     0.50001   0.53960   0.81487   0.00000  Uiso   1.00
O888   O     0.49999   0.46040   0.68513   0.00000  Uiso   1.00
C889   C     0.38388   0.48034   0.95638   0.00000  Uiso   1.00
O890   O     0.37455   0.50485   0.92455   0.00000  Uiso   1.00
O891   O     0.35471   0.44998   0.97468   0.00000  Uiso   1.00
H892   H     0.66075   0.45095   0.95824   0.00000  Uiso   1.00
C893   C     0.61610   0.51971   0.54363   0.00000  Uiso   1.00
O894   O     0.62546   0.49514   0.57541   0.00000  Uiso   1.00
O895   O     0.64523   0.55015   0.52539   0.00000  Uiso   1.00
H896   H     0.33919   0.54919   0.54183   0.00000  Uiso   1.00
C897   C     0.75403   0.50003   0.74998   0.00000  Uiso   1.00
C898   C     0.91264   0.49997   0.75002   0.00000  Uiso   1.00
C899   C     0.76012   0.48264   0.52415   0.00000  Uiso   1.00
C900   C     0.90654   0.51739   0.97585   0.00000  Uiso   1.00
C901   C     0.68806   0.45748   0.75007   0.00000  Uiso   1.00
C902   C     0.97860   0.54252   0.74993   0.00000  Uiso   1.00
C903   C     0.97880   0.45744   0.75011   0.00000  Uiso   1.00
C904   C     0.68786   0.54256   0.74989   0.00000  Uiso   1.00
C905   C     0.95725   0.49996   0.75003   0.00000  Uiso   1.00
C906   C     0.70941   0.50004   0.74997   0.00000  Uiso   1.00
C907   C     0.80699   0.35814   0.72316   0.00000  Uiso   1.00
C908   C     0.85968   0.64186   0.77684   0.00000  Uiso   1.00
C909   C     0.85968   0.35813   0.77684   0.00000  Uiso   1.00
C910   C     0.80699   0.64187   0.72316   0.00000  Uiso   1.00
C911   C     0.83344   0.49993   0.66447   0.00000  Uiso   1.00
C912   C     0.83323   0.50007   0.83553   0.00000  Uiso   1.00
C913   C     0.86918   0.51050   0.90655   0.00000  Uiso   1.00
C914   C     0.79748   0.48951   0.59345   0.00000  Uiso   1.00
C915   C     0.83299   0.50036   0.88368   0.00000  Uiso   1.00
C916   C     0.83367   0.49964   0.61632   0.00000  Uiso   1.00
C917   C     0.79654   0.49077   0.90647   0.00000  Uiso   1.00
C918   C     0.87012   0.50923   0.59353   0.00000  Uiso   1.00
C919   C     0.79541   0.49227   0.95328   0.00000  Uiso   1.00
C920   C     0.87125   0.50774   0.54672   0.00000  Uiso   1.00
C921   C     0.83289   0.50052   0.97659   0.00000  Uiso   1.00
C922   C     0.83377   0.49949   0.52341   0.00000  Uiso   1.00
C923   C     0.86961   0.50982   0.95299   0.00000  Uiso   1.00
C924   C     0.79705   0.49020   0.54701   0.00000  Uiso   1.00
C925   C     0.75846   0.48460   0.97757   0.00000  Uiso   1.00
C926   C     0.90820   0.51542   0.52244   0.00000  Uiso   1.00
Cu927  Cu    0.83333   0.54689   0.75000   0.00000  Uiso   1.00
Cu928  Cu    0.83333   0.45311   0.75000   0.00000  Uiso   1.00
H929   H     0.89716   0.51777   0.88804   0.00000  Uiso   1.00
H930   H     0.76950   0.48224   0.61197   0.00000  Uiso   1.00
H931   H     0.76961   0.48184   0.88706   0.00000  Uiso   1.00
H932   H     0.89706   0.51814   0.61294   0.00000  Uiso   1.00
H933   H     0.73206   0.47667   0.54294   0.00000  Uiso   1.00
H934   H     0.93460   0.52337   0.95706   0.00000  Uiso   1.00
H935   H     0.70417   0.42423   0.75012   0.00000  Uiso   1.00
H936   H     0.96250   0.57577   0.74988   0.00000  Uiso   1.00
H937   H     0.96286   0.42418   0.75020   0.00000  Uiso   1.00
H938   H     0.70381   0.57582   0.74980   0.00000  Uiso   1.00
H939   H     0.78589   0.37682   0.70164   0.00000  Uiso   1.00
H940   H     0.88078   0.62318   0.79836   0.00000  Uiso   1.00
H941   H     0.88079   0.37680   0.79835   0.00000  Uiso   1.00
H942   H     0.78588   0.62320   0.70165   0.00000  Uiso   1.00
N943   N     0.83333   0.61736   0.75000   0.00000  Uiso   1.00
N944   N     0.83333   0.38264   0.75000   0.00000  Uiso   1.00
O945   O     0.77321   0.53958   0.74999   0.00000  Uiso   1.00
O946   O     0.89345   0.46042   0.75001   0.00000  Uiso   1.00
O947   O     0.89345   0.53958   0.75001   0.00000  Uiso   1.00
O948   O     0.77321   0.46042   0.75000   0.00000  Uiso   1.00
O949   O     0.83332   0.53960   0.68513   0.00000  Uiso   1.00
O950   O     0.83334   0.46040   0.81487   0.00000  Uiso   1.00
O951   O     0.83334   0.53960   0.81487   0.00000  Uiso   1.00
O952   O     0.83332   0.46040   0.68513   0.00000  Uiso   1.00
C953   C     0.71721   0.48034   0.95638   0.00000  Uiso   1.00
O954   O     0.70789   0.50485   0.92455   0.00000  Uiso   1.00
O955   O     0.68804   0.44998   0.97468   0.00000  Uiso   1.00
H956   H     0.99409   0.45095   0.95824   0.00000  Uiso   1.00
C957   C     0.94944   0.51971   0.54363   0.00000  Uiso   1.00
O958   O     0.95880   0.49514   0.57541   0.00000  Uiso   1.00
O959   O     0.97857   0.55015   0.52539   0.00000  Uiso   1.00
H960   H     0.67252   0.54919   0.54183   0.00000  Uiso   1.00
C961   C     0.08736   0.83337   0.74998   0.00000  Uiso   1.00
C962   C     0.24597   0.83330   0.75002   0.00000  Uiso   1.00
C963   C     0.09346   0.81597   0.52415   0.00000  Uiso   1.00
C964   C     0.23987   0.85072   0.97585   0.00000  Uiso   1.00
C965   C     0.02140   0.79081   0.75007   0.00000  Uiso   1.00
C966   C     0.31194   0.87585   0.74993   0.00000  Uiso   1.00
C967   C     0.31214   0.79078   0.75011   0.00000  Uiso   1.00
C968   C     0.02120   0.87589   0.74989   0.00000  Uiso   1.00
C969   C     0.29059   0.83329   0.75003   0.00000  Uiso   1.00
C970   C     0.04275   0.83337   0.74997   0.00000  Uiso   1.00
C971   C     0.14032   0.69147   0.72316   0.00000  Uiso   1.00
C972   C     0.19301   0.97520   0.77684   0.00000  Uiso   1.00
C973   C     0.19301   0.69146   0.77684   0.00000  Uiso   1.00
C974   C     0.14032   0.97521   0.72316   0.00000  Uiso   1.00
C975   C     0.16677   0.83326   0.66447   0.00000  Uiso   1.00
C976   C     0.16656   0.83340   0.83553   0.00000  Uiso   1.00
C977   C     0.20251   0.84384   0.90655   0.00000  Uiso   1.00
C978   C     0.13082   0.82284   0.59345   0.00000  Uiso   1.00
C979   C     0.16633   0.83370   0.88368   0.00000  Uiso   1.00
C980   C     0.16701   0.83297   0.61632   0.00000  Uiso   1.00
C981   C     0.12988   0.82410   0.90647   0.00000  Uiso   1.00
C982   C     0.20346   0.84256   0.59353   0.00000  Uiso   1.00
C983   C     0.12875   0.82560   0.95328   0.00000  Uiso   1.00
C984   C     0.20458   0.84107   0.54672   0.00000  Uiso   1.00
C985   C     0.16622   0.83386   0.97659   0.00000  Uiso   1.00
C986   C     0.16710   0.83282   0.52341   0.00000  Uiso   1.00
C987   C     0.20295   0.84315   0.95299   0.00000  Uiso   1.00
C988   C     0.13038   0.82353   0.54701   0.00000  Uiso   1.00
C989   C     0.09179   0.81793   0.97757   0.00000  Uiso   1.00
C990   C     0.24153   0.84876   0.52244   0.00000  Uiso   1.00
Cu991  Cu    0.16667   0.88022   0.75000   0.00000  Uiso   1.00
Cu992  Cu    0.16667   0.78645   0.75000   0.00000  Uiso   1.00
H993   H     0.23049   0.85111   0.88804   0.00000  Uiso   1.00
H994   H     0.10284   0.81558   0.61197   0.00000  Uiso   1.00
H995   H     0.10294   0.81518   0.88706   0.00000  Uiso   1.00
H996   H     0.23040   0.85147   0.61294   0.00000  Uiso   1.00
H997   H     0.06539   0.81000   0.54294   0.00000  Uiso   1.00
H998   H     0.26793   0.85671   0.95706   0.00000  Uiso   1.00
H999   H     0.03750   0.75756   0.75012   0.00000  Uiso   1.00
H1000  H     0.29583   0.90910   0.74988   0.00000  Uiso   1.00
H1001  H     0.29619   0.75752   0.75020   0.00000  Uiso   1.00
H1002  H     0.03714   0.90915   0.74980   0.00000  Uiso   1.00
H1003  H     0.11922   0.71015   0.70164   0.00000  Uiso   1.00
H1004  H     0.21411   0.95652   0.79836   0.00000  Uiso   1.00
H1005  H     0.21412   0.71014   0.79835   0.00000  Uiso   1.00
H1006  H     0.11921   0.95653   0.70165   0.00000  Uiso   1.00
N1007  N     0.16667   0.95069   0.75000   0.00000  Uiso   1.00
N1008  N     0.16667   0.71598   0.75000   0.00000  Uiso   1.00
O1009  O     0.10655   0.87291   0.74999   0.00000  Uiso   1.00
O1010  O     0.22679   0.79375   0.75001   0.00000  Uiso   1.00
O1011  O     0.22679   0.87291   0.75001   0.00000  Uiso   1.00
O1012  O     0.10655   0.79375   0.75000   0.00000  Uiso   1.00
O1013  O     0.16666   0.87293   0.68513   0.00000  Uiso   1.00
O1014  O     0.16668   0.79373   0.81487   0.00000  Uiso   1.00
O1015  O     0.16668   0.87293   0.81487   0.00000  Uiso   1.00
O1016  O     0.16666   0.79373   0.68513   0.00000  Uiso   1.00
C1017  C     0.05055   0.81367   0.95638   0.00000  Uiso   1.00
O1018  O     0.04122   0.83819   0.92455   0.00000  Uiso   1.00
O1019  O     0.02138   0.78331   0.97468   0.00000  Uiso   1.00
H1020  H     0.32742   0.78429   0.95824   0.00000  Uiso   1.00
C1021  C     0.28277   0.85304   0.54363   0.00000  Uiso   1.00
O1022  O     0.29213   0.82847   0.57541   0.00000  Uiso   1.00
O1023  O     0.31190   0.88349   0.52539   0.00000  Uiso   1.00
H1024  H     0.00586   0.88252   0.54183   0.00000  Uiso   1.00
C1025  C     0.42070   0.83337   0.74998   0.00000  Uiso   1.00
C1026  C     0.57930   0.83330   0.75002   0.00000  Uiso   1.00
C1027  C     0.42679   0.81597   0.52415   0.00000  Uiso   1.00
C1028  C     0.57321   0.85072   0.97585   0.00000  Uiso   1.00
C1029  C     0.35473   0.79081   0.75007   0.00000  Uiso   1.00
C1030  C     0.64527   0.87585   0.74993   0.00000  Uiso   1.00
C1031  C     0.64547   0.79078   0.75011   0.00000  Uiso   1.00
C1032  C     0.35453   0.87589   0.74989   0.00000  Uiso   1.00
C1033  C     0.62392   0.83329   0.75003   0.00000  Uiso   1.00
C1034  C     0.37608   0.83337   0.74997   0.00000  Uiso   1.00
C1035  C     0.47366   0.69147   0.72316   0.00000  Uiso   1.00
C1036  C     0.52634   0.97520   0.77684   0.00000  Uiso   1.00
C1037  C     0.52635   0.69146   0.77684   0.00000  Uiso   1.00
C1038  C     0.47365   0.97521   0.72316   0.00000  Uiso   1.00
C1039  C     0.50011   0.83326   0.66447   0.00000  Uiso   1.00
C1040  C     0.49989   0.83340   0.83553   0.00000  Uiso   1.00
C1041  C     0.53585   0.84384   0.90655   0.00000  Uiso   1.00
C1042  C     0.46415   0.82284   0.59345   0.00000  Uiso   1.00
C1043  C     0.49966   0.83370   0.88368   0.00000  Uiso   1.00
C1044  C     0.50034   0.83297   0.61632   0.00000  Uiso   1.00
C1045  C     0.46321   0.82410   0.90647   0.00000  Uiso   1.00
C1046  C     0.53679   0.84256   0.59353   0.00000  Uiso   1.00
C1047  C     0.46208   0.82560   0.95328   0.00000  Uiso   1.00
C1048  C     0.53791   0.84107   0.54672   0.00000  Uiso   1.00
C1049  C     0.49956   0.83386   0.97659   0.00000  Uiso   1.00
C1050  C     0.50044   0.83282   0.52341   0.00000  Uiso   1.00
C1051  C     0.53628   0.84315   0.95299   0.00000  Uiso   1.00
C1052  C     0.46372   0.82353   0.54701   0.00000  Uiso   1.00
C1053  C     0.42513   0.81793   0.97757   0.00000  Uiso   1.00
C1054  C     0.57486   0.84876   0.52244   0.00000  Uiso   1.00
Cu1055 Cu    0.50000   0.88022   0.75000   0.00000  Uiso   1.00
Cu1056 Cu    0.50000   0.78645   0.75000   0.00000  Uiso   1.00
H1057  H     0.56383   0.85111   0.88804   0.00000  Uiso   1.00
H1058  H     0.43617   0.81558   0.61197   0.00000  Uiso   1.00
H1059  H     0.43627   0.81518   0.88706   0.00000  Uiso   1.00
H1060  H     0.56373   0.85147   0.61294   0.00000  Uiso   1.00
H1061  H     0.39873   0.81000   0.54294   0.00000  Uiso   1.00
H1062  H     0.60127   0.85671   0.95706   0.00000  Uiso   1.00
H1063  H     0.37083   0.75756   0.75012   0.00000  Uiso   1.00
H1064  H     0.62917   0.90910   0.74988   0.00000  Uiso   1.00
H1065  H     0.62952   0.75752   0.75020   0.00000  Uiso   1.00
H1066  H     0.37048   0.90915   0.74980   0.00000  Uiso   1.00
H1067  H     0.45255   0.71015   0.70164   0.00000  Uiso   1.00
H1068  H     0.54745   0.95652   0.79836   0.00000  Uiso   1.00
H1069  H     0.54746   0.71014   0.79835   0.00000  Uiso   1.00
H1070  H     0.45254   0.95653   0.70165   0.00000  Uiso   1.00
N1071  N     0.50000   0.95069   0.75000   0.00000  Uiso   1.00
N1072  N     0.50000   0.71598   0.75000   0.00000  Uiso   1.00
O1073  O     0.43988   0.87291   0.74999   0.00000  Uiso   1.00
O1074  O     0.56012   0.79375   0.75001   0.00000  Uiso   1.00
O1075  O     0.56012   0.87291   0.75001   0.00000  Uiso   1.00
O1076  O     0.43988   0.79375   0.75000   0.00000  Uiso   1.00
O1077  O     0.49999   0.87293   0.68513   0.00000  Uiso   1.00
O1078  O     0.50001   0.79373   0.81487   0.00000  Uiso   1.00
O1079  O     0.50001   0.87293   0.81487   0.00000  Uiso   1.00
O1080  O     0.49999   0.79373   0.68513   0.00000  Uiso   1.00
C1081  C     0.38388   0.81367   0.95638   0.00000  Uiso   1.00
O1082  O     0.37455   0.83819   0.92455   0.00000  Uiso   1.00
O1083  O     0.35471   0.78331   0.97468   0.00000  Uiso   1.00
H1084  H     0.66075   0.78429   0.95824   0.00000  Uiso   1.00
C1085  C     0.61610   0.85304   0.54363   0.00000  Uiso   1.00
O1086  O     0.62546   0.82847   0.57541   0.00000  Uiso   1.00
O1087  O     0.64523   0.88349   0.52539   0.00000  Uiso   1.00
H1088  H     0.33919   0.88252   0.54183   0.00000  Uiso   1.00
C1089  C     0.75403   0.83337   0.74998   0.00000  Uiso   1.00
C1090  C     0.91264   0.83330   0.75002   0.00000  Uiso   1.00
C1091  C     0.76012   0.81597   0.52415   0.00000  Uiso   1.00
C1092  C     0.90654   0.85072   0.97585   0.00000  Uiso   1.00
C1093  C     0.68806   0.79081   0.75007   0.00000  Uiso   1.00
C1094  C     0.97860   0.87585   0.74993   0.00000  Uiso   1.00
C1095  C     0.97880   0.79078   0.75011   0.00000  Uiso   1.00
C1096  C     0.68786   0.87589   0.74989   0.00000  Uiso   1.00
C1097  C     0.95725   0.83329   0.75003   0.00000  Uiso   1.00
C1098  C     0.70941   0.83337   0.74997   0.00000  Uiso   1.00
C1099  C     0.80699   0.69147   0.72316   0.00000  Uiso   1.00
C1100  C     0.85968   0.97520   0.77684   0.00000  Uiso   1.00
C1101  C     0.85968   0.69146   0.77684   0.00000  Uiso   1.00
C1102  C     0.80699   0.97521   0.72316   0.00000  Uiso   1.00
C1103  C     0.83344   0.83326   0.66447   0.00000  Uiso   1.00
C1104  C     0.83323   0.83340   0.83553   0.00000  Uiso   1.00
C1105  C     0.86918   0.84384   0.90655   0.00000  Uiso   1.00
C1106  C     0.79748   0.82284   0.59345   0.00000  Uiso   1.00
C1107  C     0.83299   0.83370   0.88368   0.00000  Uiso   1.00
C1108  C     0.83367   0.83297   0.61632   0.00000  Uiso   1.00
C1109  C     0.79654   0.82410   0.90647   0.00000  Uiso   1.00
C1110  C     0.87012   0.84256   0.59353   0.00000  Uiso   1.00
C1111  C     0.79541   0.82560   0.95328   0.00000  Uiso   1.00
C1112  C     0.87125   0.84107   0.54672   0.00000  Uiso   1.00
C1113  C     0.83289   0.83386   0.97659   0.00000  Uiso   1.00
C1114  C     0.83377   0.83282   0.52341   0.00000  Uiso   1.00
C1115  C     0.86961   0.84315   0.95299   0.00000  Uiso   1.00
C1116  C     0.79705   0.82353   0.54701   0.00000  Uiso   1.00
C1117  C     0.75846   0.81793   0.97757   0.00000  Uiso   1.00
C1118  C     0.90820   0.84876   0.52244   0.00000  Uiso   1.00
Cu1119 Cu    0.83333   0.88022   0.75000   0.00000  Uiso   1.00
Cu1120 Cu    0.83333   0.78645   0.75000   0.00000  Uiso   1.00
H1121  H     0.89716   0.85111   0.88804   0.00000  Uiso   1.00
H1122  H     0.76950   0.81558   0.61197   0.00000  Uiso   1.00
H1123  H     0.76961   0.81518   0.88706   0.00000  Uiso   1.00
H1124  H     0.89706   0.85147   0.61294   0.00000  Uiso   1.00
H1125  H     0.73206   0.81000   0.54294   0.00000  Uiso   1.00
H1126  H     0.93460   0.85671   0.95706   0.00000  Uiso   1.00
H1127  H     0.70417   0.75756   0.75012   0.00000  Uiso   1.00
H1128  H     0.96250   0.90910   0.74988   0.00000  Uiso   1.00
H1129  H     0.96286   0.75752   0.75020   0.00000  Uiso   1.00
H1130  H     0.70381   0.90915   0.74980   0.00000  Uiso   1.00
H1131  H     0.78589   0.71015   0.70164   0.00000  Uiso   1.00
H1132  H     0.88078   0.95652   0.79836   0.00000  Uiso   1.00
H1133  H     0.88079   0.71014   0.79835   0.00000  Uiso   1.00
H1134  H     0.78588   0.95653   0.70165   0.00000  Uiso   1.00
N1135  N     0.83333   0.95069   0.75000   0.00000  Uiso   1.00
N1136  N     0.83333   0.71598   0.75000   0.00000  Uiso   1.00
O1137  O     0.77321   0.87291   0.74999   0.00000  Uiso   1.00
O1138  O     0.89345   0.79375   0.75001   0.00000  Uiso   1.00
O1139  O     0.89345   0.87291   0.75001   0.00000  Uiso   1.00
O1140  O     0.77321   0.79375   0.75000   0.00000  Uiso   1.00
O1141  O     0.83332   0.87293   0.68513   0.00000  Uiso   1.00
O1142  O     0.83334   0.79373   0.81487   0.00000  Uiso   1.00
O1143  O     0.83334   0.87293   0.81487   0.00000  Uiso   1.00
O1144  O     0.83332   0.79373   0.68513   0.00000  Uiso   1.00
C1145  C     0.71721   0.81367   0.95638   0.00000  Uiso   1.00
O1146  O     0.70789   0.83819   0.92455   0.00000  Uiso   1.00
O1147  O     0.68804   0.78331   0.97468   0.00000  Uiso   1.00
H1148  H     0.99409   0.78429   0.95824   0.00000  Uiso   1.00
C1149  C     0.94944   0.85304   0.54363   0.00000  Uiso   1.00
O1150  O     0.95880   0.82847   0.57541   0.00000  Uiso   1.00
O1151  O     0.97857   0.88349   0.52539   0.00000  Uiso   1.00
H1152  H     0.67252   0.88252   0.54183   0.00000  Uiso   1.00
loop_
_geom_bond_atom_site_label_1
_geom_bond_atom_site_label_2
_geom_bond_distance
_geom_bond_site_symmetry_2
_ccdc_geom_bond_type
C1     O52     1.291   .     A
C1     O49     1.292   .     A
C1     C10     1.448   .     S
C2     O51     1.291   .     A
C2     O50     1.292   .     A
C2     C9      1.448   .     S
C3     C28     1.398   .     A
C3     H37     1.085   .     S
C3     C605    1.399   1_554 S
C4     C27     1.398   .     A
C4     H38     1.085   .     S
C4     C606    1.399   .     S
C5     H39     1.083   .     S
C5     C10     1.401   .     A
C5     C135    1.383   1_455 S
C6     C9      1.401   .     A
C6     H40     1.083   .     S
C6     C72     1.383   .     S
C7     C9      1.400   .     A
C7     H41     1.083   .     S
C7     C69     1.383   .     S
C8     H42     1.083   .     S
C8     C10     1.400   .     A
C8     C134    1.383   1_455 S
C11    H43     1.082   .     S
C11    N48     1.367   .     A
C11    C398    1.417   1_545 S
C12    N47     1.367   .     A
C12    H44     1.082   .     S
C12    C205    1.417   .     S
C13    N48     1.367   .     A
C13    H45     1.082   .     S
C13    C396    1.417   1_545 S
C14    N47     1.367   .     A
C14    H46     1.082   .     S
C14    C203    1.417   .     S
C15    O56     1.290   .     A
C15    C20     1.444   .     S
C15    O53     1.290   .     A
C16    O55     1.290   .     A
C16    C19     1.444   .     S
C16    O54     1.290   .     A
C17    H33     1.085   .     S
C17    C19     1.391   .     A
C17    C27     1.392   .     A
C18    C28     1.392   .     A
C18    H34     1.085   .     S
C18    C20     1.391   .     A
C19    C21     1.395   .     A
C20    C22     1.395   .     A
C21    H35     1.081   .     S
C21    C23     1.404   .     A
C22    C24     1.404   .     A
C22    H36     1.081   .     S
C23    C29     1.421   .     A
C23    C25     1.423   .     A
C24    C30     1.421   .     A
C24    C26     1.423   .     A
C25    C27     1.412   .     A
C25    C602    1.404   .     S
C26    C28     1.412   .     A
C26    C601    1.404   1_554 S
C29    C57     1.487   .     S
C29    C579    1.399   .     S
C30    C61     1.487   .     S
C30    C580    1.399   1_554 S
Cu31   Cu32    2.679   .     S
Cu31   N47     2.014   .     S
Cu31   O53     1.955   .     S
Cu31   O49     1.963   .     S
Cu31   O51     1.962   .     S
Cu31   O55     1.956   .     S
Cu32   N48     2.014   .     S
Cu32   O50     1.963   .     S
Cu32   O54     1.955   .     S
Cu32   O52     1.962   .     S
Cu32   O56     1.956   .     S
C57    O58     1.223   .     D
C57    O59     1.399   .     S
O59    H188    1.014   1_455 S
H60    O123    1.014   .     S
C61    O62     1.223   .     D
C61    O63     1.399   .     S
O63    H128    1.014   .     S
H64    O191    1.014   1_455 S
C65    O116    1.291   .     A
C65    O113    1.292   .     A
C65    C74     1.448   .     S
C66    O115    1.291   .     A
C66    O114    1.292   .     A
C66    C73     1.448   .     S
C67    C92     1.398   .     A
C67    H101    1.085   .     S
C67    C669    1.399   1_554 S
C68    C91     1.398   .     A
C68    H102    1.085   .     S
C68    C670    1.399   .     S
C69    H103    1.083   .     S
C69    C74     1.401   .     A
C70    C73     1.401   .     A
C70    H104    1.083   .     S
C70    C136    1.383   .     S
C71    C73     1.400   .     A
C71    H105    1.083   .     S
C71    C133    1.383   .     S
C72    H106    1.083   .     S
C72    C74     1.400   .     A
C75    H107    1.082   .     S
C75    N112    1.367   .     A
C75    C462    1.417   1_545 S
C76    N111    1.367   .     A
C76    H108    1.082   .     S
C76    C269    1.417   .     S
C77    N112    1.367   .     A
C77    H109    1.082   .     S
C77    C460    1.417   1_545 S
C78    N111    1.367   .     A
C78    H110    1.082   .     S
C78    C267    1.417   .     S
C79    O120    1.290   .     A
C79    C84     1.444   .     S
C79    O117    1.290   .     A
C80    O119    1.290   .     A
C80    C83     1.444   .     S
C80    O118    1.290   .     A
C81    H97     1.085   .     S
C81    C83     1.391   .     A
C81    C91     1.392   .     A
C82    C92     1.392   .     A
C82    H98     1.085   .     S
C82    C84     1.391   .     A
C83    C85     1.395   .     A
C84    C86     1.395   .     A
C85    H99     1.081   .     S
C85    C87     1.404   .     A
C86    C88     1.404   .     A
C86    H100    1.081   .     S
C87    C93     1.421   .     A
C87    C89     1.423   .     A
C88    C94     1.421   .     A
C88    C90     1.423   .     A
C89    C91     1.412   .     A
C89    C666    1.404   .     S
C90    C92     1.412   .     A
C90    C665    1.404   1_554 S
C93    C121    1.487   .     S
C93    C643    1.399   .     S
C94    C125    1.487   .     S
C94    C644    1.399   1_554 S
Cu95   Cu96    2.679   .     S
Cu95   N111    2.014   .     S
Cu95   O117    1.955   .     S
Cu95   O113    1.963   .     S
Cu95   O115    1.962   .     S
Cu95   O119    1.956   .     S
Cu96   N112    2.014   .     S
Cu96   O114    1.963   .     S
Cu96   O118    1.955   .     S
Cu96   O116    1.962   .     S
Cu96   O120    1.956   .     S
C121   O122    1.223   .     D
C121   O123    1.399   .     S
H124   O187    1.014   .     S
C125   O126    1.223   .     D
C125   O127    1.399   .     S
O127   H192    1.014   .     S
C129   O180    1.291   .     A
C129   O177    1.292   .     A
C129   C138    1.448   .     S
C130   O179    1.291   .     A
C130   O178    1.292   .     A
C130   C137    1.448   .     S
C131   C156    1.398   .     A
C131   H165    1.085   .     S
C131   C733    1.399   1_554 S
C132   C155    1.398   .     A
C132   H166    1.085   .     S
C132   C734    1.399   .     S
C133   H167    1.083   .     S
C133   C138    1.401   .     A
C134   C137    1.401   .     A
C134   H168    1.083   .     S
C134   C8      1.383   1_655 S
C135   C137    1.400   .     A
C135   H169    1.083   .     S
C135   C5      1.383   1_655 S
C136   H170    1.083   .     S
C136   C138    1.400   .     A
C139   H171    1.082   .     S
C139   N176    1.367   .     A
C139   C526    1.417   1_545 S
C140   N175    1.367   .     A
C140   H172    1.082   .     S
C140   C333    1.417   .     S
C141   N176    1.367   .     A
C141   H173    1.082   .     S
C141   C524    1.417   1_545 S
C142   N175    1.367   .     A
C142   H174    1.082   .     S
C142   C331    1.417   .     S
C143   O184    1.290   .     A
C143   C148    1.444   .     S
C143   O181    1.290   .     A
C144   O183    1.290   .     A
C144   C147    1.444   .     S
C144   O182    1.290   .     A
C145   H161    1.085   .     S
C145   C147    1.391   .     A
C145   C155    1.392   .     A
C146   C156    1.392   .     A
C146   H162    1.085   .     S
C146   C148    1.391   .     A
C147   C149    1.395   .     A
C148   C150    1.395   .     A
C149   H163    1.081   .     S
C149   C151    1.404   .     A
C150   C152    1.404   .     A
C150   H164    1.081   .     S
C151   C157    1.421   .     A
C151   C153    1.423   .     A
C152   C158    1.421   .     A
C152   C154    1.423   .     A
C153   C155    1.412   .     A
C153   C730    1.404   .     S
C154   C156    1.412   .     A
C154   C729    1.404   1_554 S
C157   C185    1.487   .     S
C157   C707    1.399   .     S
C158   C189    1.487   .     S
C158   C708    1.399   1_554 S
Cu159  Cu160   2.679   .     S
Cu159  N175    2.014   .     S
Cu159  O181    1.955   .     S
Cu159  O177    1.963   .     S
Cu159  O179    1.962   .     S
Cu159  O183    1.956   .     S
Cu160  N176    2.014   .     S
Cu160  O178    1.963   .     S
Cu160  O182    1.955   .     S
Cu160  O180    1.962   .     S
Cu160  O184    1.956   .     S
C185   O186    1.223   .     D
C185   O187    1.399   .     S
H188   O59     1.014   1_655 S
C189   O190    1.223   .     D
C189   O191    1.399   .     S
O191   H64     1.014   1_655 S
C193   O244    1.291   .     A
C193   O241    1.292   .     A
C193   C202    1.448   .     S
C194   O243    1.291   .     A
C194   O242    1.292   .     A
C194   C201    1.448   .     S
C195   C220    1.398   .     A
C195   H229    1.085   .     S
C195   C797    1.399   1_554 S
C196   C219    1.398   .     A
C196   H230    1.085   .     S
C196   C798    1.399   .     S
C197   H231    1.083   .     S
C197   C202    1.401   .     A
C197   C327    1.383   1_455 S
C198   C201    1.401   .     A
C198   H232    1.083   .     S
C198   C264    1.383   .     S
C199   C201    1.400   .     A
C199   H233    1.083   .     S
C199   C261    1.383   .     S
C200   H234    1.083   .     S
C200   C202    1.400   .     A
C200   C326    1.383   1_455 S
C203   H235    1.082   .     S
C203   N240    1.367   .     A
C204   N239    1.367   .     A
C204   H236    1.082   .     S
C204   C397    1.417   .     S
C205   N240    1.367   .     A
C205   H237    1.082   .     S
C206   N239    1.367   .     A
C206   H238    1.082   .     S
C206   C395    1.417   .     S
C207   O248    1.290   .     A
C207   C212    1.444   .     S
C207   O245    1.290   .     A
C208   O247    1.290   .     A
C208   C211    1.444   .     S
C208   O246    1.290   .     A
C209   H225    1.085   .     S
C209   C211    1.391   .     A
C209   C219    1.392   .     A
C210   C220    1.392   .     A
C210   H226    1.085   .     S
C210   C212    1.391   .     A
C211   C213    1.395   .     A
C212   C214    1.395   .     A
C213   H227    1.081   .     S
C213   C215    1.404   .     A
C214   C216    1.404   .     A
C214   H228    1.081   .     S
C215   C221    1.421   .     A
C215   C217    1.423   .     A
C216   C222    1.421   .     A
C216   C218    1.423   .     A
C217   C219    1.412   .     A
C217   C794    1.404   .     S
C218   C220    1.412   .     A
C218   C793    1.404   1_554 S
C221   C249    1.487   .     S
C221   C771    1.399   .     S
C222   C253    1.487   .     S
C222   C772    1.399   1_554 S
Cu223  Cu224   2.679   .     S
Cu223  N239    2.014   .     S
Cu223  O245    1.955   .     S
Cu223  O241    1.963   .     S
Cu223  O243    1.962   .     S
Cu223  O247    1.956   .     S
Cu224  N240    2.014   .     S
Cu224  O242    1.963   .     S
Cu224  O246    1.955   .     S
Cu224  O244    1.962   .     S
Cu224  O248    1.956   .     S
C249   O250    1.223   .     D
C249   O251    1.399   .     S
O251   H380    1.014   1_455 S
H252   O315    1.014   .     S
C253   O254    1.223   .     D
C253   O255    1.399   .     S
O255   H320    1.014   .     S
H256   O383    1.014   1_455 S
C257   O308    1.291   .     A
C257   O305    1.292   .     A
C257   C266    1.448   .     S
C258   O307    1.291   .     A
C258   O306    1.292   .     A
C258   C265    1.448   .     S
C259   C284    1.398   .     A
C259   H293    1.085   .     S
C259   C861    1.399   1_554 S
C260   C283    1.398   .     A
C260   H294    1.085   .     S
C260   C862    1.399   .     S
C261   H295    1.083   .     S
C261   C266    1.401   .     A
C262   C265    1.401   .     A
C262   H296    1.083   .     S
C262   C328    1.383   .     S
C263   C265    1.400   .     A
C263   H297    1.083   .     S
C263   C325    1.383   .     S
C264   H298    1.083   .     S
C264   C266    1.400   .     A
C267   H299    1.082   .     S
C267   N304    1.367   .     A
C268   N303    1.367   .     A
C268   H300    1.082   .     S
C268   C461    1.417   .     S
C269   N304    1.367   .     A
C269   H301    1.082   .     S
C270   N303    1.367   .     A
C270   H302    1.082   .     S
C270   C459    1.417   .     S
C271   O312    1.290   .     A
C271   C276    1.444   .     S
C271   O309    1.290   .     A
C272   O311    1.290   .     A
C272   C275    1.444   .     S
C272   O310    1.290   .     A
C273   H289    1.085   .     S
C273   C275    1.391   .     A
C273   C283    1.392   .     A
C274   C284    1.392   .     A
C274   H290    1.085   .     S
C274   C276    1.391   .     A
C275   C277    1.395   .     A
C276   C278    1.395   .     A
C277   H291    1.081   .     S
C277   C279    1.404   .     A
C278   C280    1.404   .     A
C278   H292    1.081   .     S
C279   C285    1.421   .     A
C279   C281    1.423   .     A
C280   C286    1.421   .     A
C280   C282    1.423   .     A
C281   C283    1.412   .     A
C281   C858    1.404   .     S
C282   C284    1.412   .     A
C282   C857    1.404   1_554 S
C285   C313    1.487   .     S
C285   C835    1.399   .     S
C286   C317    1.487   .     S
C286   C836    1.399   1_554 S
Cu287  Cu288   2.679   .     S
Cu287  N303    2.014   .     S
Cu287  O309    1.955   .     S
Cu287  O305    1.963   .     S
Cu287  O307    1.962   .     S
Cu287  O311    1.956   .     S
Cu288  N304    2.014   .     S
Cu288  O306    1.963   .     S
Cu288  O310    1.955   .     S
Cu288  O308    1.962   .     S
Cu288  O312    1.956   .     S
C313   O314    1.223   .     D
C313   O315    1.399   .     S
H316   O379    1.014   .     S
C317   O318    1.223   .     D
C317   O319    1.399   .     S
O319   H384    1.014   .     S
C321   O372    1.291   .     A
C321   O369    1.292   .     A
C321   C330    1.448   .     S
C322   O371    1.291   .     A
C322   O370    1.292   .     A
C322   C329    1.448   .     S
C323   C348    1.398   .     A
C323   H357    1.085   .     S
C323   C925    1.399   1_554 S
C324   C347    1.398   .     A
C324   H358    1.085   .     S
C324   C926    1.399   .     S
C325   H359    1.083   .     S
C325   C330    1.401   .     A
C326   C329    1.401   .     A
C326   H360    1.083   .     S
C326   C200    1.383   1_655 S
C327   C329    1.400   .     A
C327   H361    1.083   .     S
C327   C197    1.383   1_655 S
C328   H362    1.083   .     S
C328   C330    1.400   .     A
C331   H363    1.082   .     S
C331   N368    1.367   .     A
C332   N367    1.367   .     A
C332   H364    1.082   .     S
C332   C525    1.417   .     S
C333   N368    1.367   .     A
C333   H365    1.082   .     S
C334   N367    1.367   .     A
C334   H366    1.082   .     S
C334   C523    1.417   .     S
C335   O376    1.290   .     A
C335   C340    1.444   .     S
C335   O373    1.290   .     A
C336   O375    1.290   .     A
C336   C339    1.444   .     S
C336   O374    1.290   .     A
C337   H353    1.085   .     S
C337   C339    1.391   .     A
C337   C347    1.392   .     A
C338   C348    1.392   .     A
C338   H354    1.085   .     S
C338   C340    1.391   .     A
C339   C341    1.395   .     A
C340   C342    1.395   .     A
C341   H355    1.081   .     S
C341   C343    1.404   .     A
C342   C344    1.404   .     A
C342   H356    1.081   .     S
C343   C349    1.421   .     A
C343   C345    1.423   .     A
C344   C350    1.421   .     A
C344   C346    1.423   .     A
C345   C347    1.412   .     A
C345   C922    1.404   .     S
C346   C348    1.412   .     A
C346   C921    1.404   1_554 S
C349   C377    1.487   .     S
C349   C899    1.399   .     S
C350   C381    1.487   .     S
C350   C900    1.399   1_554 S
Cu351  Cu352   2.679   .     S
Cu351  N367    2.014   .     S
Cu351  O373    1.955   .     S
Cu351  O369    1.963   .     S
Cu351  O371    1.962   .     S
Cu351  O375    1.956   .     S
Cu352  N368    2.014   .     S
Cu352  O370    1.963   .     S
Cu352  O374    1.955   .     S
Cu352  O372    1.962   .     S
Cu352  O376    1.956   .     S
C377   O378    1.223   .     D
C377   O379    1.399   .     S
H380   O251    1.014   1_655 S
C381   O382    1.223   .     D
C381   O383    1.399   .     S
O383   H256    1.014   1_655 S
C385   O436    1.291   .     A
C385   O433    1.292   .     A
C385   C394    1.448   .     S
C386   O435    1.291   .     A
C386   O434    1.292   .     A
C386   C393    1.448   .     S
C387   C412    1.398   .     A
C387   H421    1.085   .     S
C387   C989    1.399   1_554 S
C388   C411    1.398   .     A
C388   H422    1.085   .     S
C388   C990    1.399   .     S
C389   H423    1.083   .     S
C389   C394    1.401   .     A
C389   C519    1.383   1_455 S
C390   C393    1.401   .     A
C390   H424    1.083   .     S
C390   C456    1.383   .     S
C391   C393    1.400   .     A
C391   H425    1.083   .     S
C391   C453    1.383   .     S
C392   H426    1.083   .     S
C392   C394    1.400   .     A
C392   C518    1.383   1_455 S
C395   H427    1.082   .     S
C395   N432    1.367   .     A
C396   N431    1.367   .     A
C396   H428    1.082   .     S
C396   C13     1.417   1_565 S
C397   N432    1.367   .     A
C397   H429    1.082   .     S
C398   N431    1.367   .     A
C398   H430    1.082   .     S
C398   C11     1.417   1_565 S
C399   O440    1.290   .     A
C399   C404    1.444   .     S
C399   O437    1.290   .     A
C400   O439    1.290   .     A
C400   C403    1.444   .     S
C400   O438    1.290   .     A
C401   H417    1.085   .     S
C401   C403    1.391   .     A
C401   C411    1.392   .     A
C402   C412    1.392   .     A
C402   H418    1.085   .     S
C402   C404    1.391   .     A
C403   C405    1.395   .     A
C404   C406    1.395   .     A
C405   H419    1.081   .     S
C405   C407    1.404   .     A
C406   C408    1.404   .     A
C406   H420    1.081   .     S
C407   C413    1.421   .     A
C407   C409    1.423   .     A
C408   C414    1.421   .     A
C408   C410    1.423   .     A
C409   C411    1.412   .     A
C409   C986    1.404   .     S
C410   C412    1.412   .     A
C410   C985    1.404   1_554 S
C413   C441    1.487   .     S
C413   C963    1.399   .     S
C414   C445    1.487   .     S
C414   C964    1.399   1_554 S
Cu415  Cu416   2.679   .     S
Cu415  N431    2.014   .     S
Cu415  O437    1.955   .     S
Cu415  O433    1.963   .     S
Cu415  O435    1.962   .     S
Cu415  O439    1.956   .     S
Cu416  N432    2.014   .     S
Cu416  O434    1.963   .     S
Cu416  O438    1.955   .     S
Cu416  O436    1.962   .     S
Cu416  O440    1.956   .     S
C441   O442    1.223   .     D
C441   O443    1.399   .     S
O443   H572    1.014   1_455 S
H444   O507    1.014   .     S
C445   O446    1.223   .     D
C445   O447    1.399   .     S
O447   H512    1.014   .     S
H448   O575    1.014   1_455 S
C449   O500    1.291   .     A
C449   O497    1.292   .     A
C449   C458    1.448   .     S
C450   O499    1.291   .     A
C450   O498    1.292   .     A
C450   C457    1.448   .     S
C451   C476    1.398   .     A
C451   H485    1.085   .     S
C451   C1053   1.399   1_554 S
C452   C475    1.398   .     A
C452   H486    1.085   .     S
C452   C1054   1.399   .     S
C453   H487    1.083   .     S
C453   C458    1.401   .     A
C454   C457    1.401   .     A
C454   H488    1.083   .     S
C454   C520    1.383   .     S
C455   C457    1.400   .     A
C455   H489    1.083   .     S
C455   C517    1.383   .     S
C456   H490    1.083   .     S
C456   C458    1.400   .     A
C459   H491    1.082   .     S
C459   N496    1.367   .     A
C460   N495    1.367   .     A
C460   H492    1.082   .     S
C460   C77     1.417   1_565 S
C461   N496    1.367   .     A
C461   H493    1.082   .     S
C462   N495    1.367   .     A
C462   H494    1.082   .     S
C462   C75     1.417   1_565 S
C463   O504    1.290   .     A
C463   C468    1.444   .     S
C463   O501    1.290   .     A
C464   O503    1.290   .     A
C464   C467    1.444   .     S
C464   O502    1.290   .     A
C465   H481    1.085   .     S
C465   C467    1.391   .     A
C465   C475    1.392   .     A
C466   C476    1.392   .     A
C466   H482    1.085   .     S
C466   C468    1.391   .     A
C467   C469    1.395   .     A
C468   C470    1.395   .     A
C469   H483    1.081   .     S
C469   C471    1.404   .     A
C470   C472    1.404   .     A
C470   H484    1.081   .     S
C471   C477    1.421   .     A
C471   C473    1.423   .     A
C472   C478    1.421   .     A
C472   C474    1.423   .     A
C473   C475    1.412   .     A
C473   C1050   1.404   .     S
C474   C476    1.412   .     A
C474   C1049   1.404   1_554 S
C477   C505    1.487   .     S
C477   C1027   1.399   .     S
C478   C509    1.487   .     S
C478   C1028   1.399   1_554 S
Cu479  Cu480   2.679   .     S
Cu479  N495    2.014   .     S
Cu479  O501    1.955   .     S
Cu479  O497    1.963   .     S
Cu479  O499    1.962   .     S
Cu479  O503    1.956   .     S
Cu480  N496    2.014   .     S
Cu480  O498    1.963   .     S
Cu480  O502    1.955   .     S
Cu480  O500    1.962   .     S
Cu480  O504    1.956   .     S
C505   O506    1.223   .     D
C505   O507    1.399   .     S
H508   O571    1.014   .     S
C509   O510    1.223   .     D
C509   O511    1.399   .     S
O511   H576    1.014   .     S
C513   O564    1.291   .     A
C513   O561    1.292   .     A
C513   C522    1.448   .     S
C514   O563    1.291   .     A
C514   O562    1.292   .     A
C514   C521    1.448   .     S
C515   C540    1.398   .     A
C515   H549    1.085   .     S
C515   C1117   1.399   1_554 S
C516   C539    1.398   .     A
C516   H550    1.085   .     S
C516   C1118   1.399   .     S
C517   H551    1.083   .     S
C517   C522    1.401   .     A
C518   C521    1.401   .     A
C518   H552    1.083   .     S
C518   C392    1.383   1_655 S
C519   C521    1.400   .     A
C519   H553    1.083   .     S
C519   C389    1.383   1_655 S
C520   H554    1.083   .     S
C520   C522    1.400   .     A
C523   H555    1.082   .     S
C523   N560    1.367   .     A
C524   N559    1.367   .     A
C524   H556    1.082   .     S
C524   C141    1.417   1_565 S
C525   N560    1.367   .     A
C525   H557    1.082   .     S
C526   N559    1.367   .     A
C526   H558    1.082   .     S
C526   C139    1.417   1_565 S
C527   O568    1.290   .     A
C527   C532    1.444   .     S
C527   O565    1.290   .     A
C528   O567    1.290   .     A
C528   C531    1.444   .     S
C528   O566    1.290   .     A
C529   H545    1.085   .     S
C529   C531    1.391   .     A
C529   C539    1.392   .     A
C530   C540    1.392   .     A
C530   H546    1.085   .     S
C530   C532    1.391   .     A
C531   C533    1.395   .     A
C532   C534    1.395   .     A
C533   H547    1.081   .     S
C533   C535    1.404   .     A
C534   C536    1.404   .     A
C534   H548    1.081   .     S
C535   C541    1.421   .     A
C535   C537    1.423   .     A
C536   C542    1.421   .     A
C536   C538    1.423   .     A
C537   C539    1.412   .     A
C537   C1114   1.404   .     S
C538   C540    1.412   .     A
C538   C1113   1.404   1_554 S
C541   C569    1.487   .     S
C541   C1091   1.399   .     S
C542   C573    1.487   .     S
C542   C1092   1.399   1_554 S
Cu543  Cu544   2.679   .     S
Cu543  N559    2.014   .     S
Cu543  O565    1.955   .     S
Cu543  O561    1.963   .     S
Cu543  O563    1.962   .     S
Cu543  O567    1.956   .     S
Cu544  N560    2.014   .     S
Cu544  O562    1.963   .     S
Cu544  O566    1.955   .     S
Cu544  O564    1.962   .     S
Cu544  O568    1.956   .     S
C569   O570    1.223   .     D
C569   O571    1.399   .     S
H572   O443    1.014   1_655 S
C573   O574    1.223   .     D
C573   O575    1.399   .     S
O575   H448    1.014   1_655 S
C577   O628    1.291   .     A
C577   O625    1.292   .     A
C577   C586    1.448   .     S
C578   O627    1.291   .     A
C578   O626    1.292   .     A
C578   C585    1.448   .     S
C579   C604    1.398   .     A
C579   H613    1.085   .     S
C580   C603    1.398   .     A
C580   H614    1.085   .     S
C580   C30     1.399   1_556 S
C581   H615    1.083   .     S
C581   C586    1.401   .     A
C581   C711    1.383   1_455 S
C582   C585    1.401   .     A
C582   H616    1.083   .     S
C582   C648    1.383   .     S
C583   C585    1.400   .     A
C583   H617    1.083   .     S
C583   C645    1.383   .     S
C584   H618    1.083   .     S
C584   C586    1.400   .     A
C584   C710    1.383   1_455 S
C587   H619    1.082   .     S
C587   N624    1.367   .     A
C587   C974    1.417   1_545 S
C588   N623    1.367   .     A
C588   H620    1.082   .     S
C588   C781    1.417   .     S
C589   N624    1.367   .     A
C589   H621    1.082   .     S
C589   C972    1.417   1_545 S
C590   N623    1.367   .     A
C590   H622    1.082   .     S
C590   C779    1.417   .     S
C591   O632    1.290   .     A
C591   C596    1.444   .     S
C591   O629    1.290   .     A
C592   O631    1.290   .     A
C592   C595    1.444   .     S
C592   O630    1.290   .     A
C593   H609    1.085   .     S
C593   C595    1.391   .     A
C593   C603    1.392   .     A
C594   C604    1.392   .     A
C594   H610    1.085   .     S
C594   C596    1.391   .     A
C595   C597    1.395   .     A
C596   C598    1.395   .     A
C597   H611    1.081   .     S
C597   C599    1.404   .     A
C598   C600    1.404   .     A
C598   H612    1.081   .     S
C599   C605    1.421   .     A
C599   C601    1.423   .     A
C600   C606    1.421   .     A
C600   C602    1.423   .     A
C601   C603    1.412   .     A
C601   C26     1.404   1_556 S
C602   C604    1.412   .     A
C605   C633    1.487   .     S
C605   C3      1.399   1_556 S
C606   C637    1.487   .     S
Cu607  Cu608   2.679   .     S
Cu607  N623    2.014   .     S
Cu607  O629    1.955   .     S
Cu607  O625    1.963   .     S
Cu607  O627    1.962   .     S
Cu607  O631    1.956   .     S
Cu608  N624    2.014   .     S
Cu608  O626    1.963   .     S
Cu608  O630    1.955   .     S
Cu608  O628    1.962   .     S
Cu608  O632    1.956   .     S
C633   O634    1.223   .     D
C633   O635    1.399   .     S
O635   H764    1.014   1_455 S
H636   O699    1.014   .     S
C637   O638    1.223   .     D
C637   O639    1.399   .     S
O639   H704    1.014   .     S
H640   O767    1.014   1_455 S
C641   O692    1.291   .     A
C641   O689    1.292   .     A
C641   C650    1.448   .     S
C642   O691    1.291   .     A
C642   O690    1.292   .     A
C642   C649    1.448   .     S
C643   C668    1.398   .     A
C643   H677    1.085   .     S
C644   C667    1.398   .     A
C644   H678    1.085   .     S
C644   C94     1.399   1_556 S
C645   H679    1.083   .     S
C645   C650    1.401   .     A
C646   C649    1.401   .     A
C646   H680    1.083   .     S
C646   C712    1.383   .     S
C647   C649    1.400   .     A
C647   H681    1.083   .     S
C647   C709    1.383   .     S
C648   H682    1.083   .     S
C648   C650    1.400   .     A
C651   H683    1.082   .     S
C651   N688    1.367   .     A
C651   C1038   1.417   1_545 S
C652   N687    1.367   .     A
C652   H684    1.082   .     S
C652   C845    1.417   .     S
C653   N688    1.367   .     A
C653   H685    1.082   .     S
C653   C1036   1.417   1_545 S
C654   N687    1.367   .     A
C654   H686    1.082   .     S
C654   C843    1.417   .     S
C655   O696    1.290   .     A
C655   C660    1.444   .     S
C655   O693    1.290   .     A
C656   O695    1.290   .     A
C656   C659    1.444   .     S
C656   O694    1.290   .     A
C657   H673    1.085   .     S
C657   C659    1.391   .     A
C657   C667    1.392   .     A
C658   C668    1.392   .     A
C658   H674    1.085   .     S
C658   C660    1.391   .     A
C659   C661    1.395   .     A
C660   C662    1.395   .     A
C661   H675    1.081   .     S
C661   C663    1.404   .     A
C662   C664    1.404   .     A
C662   H676    1.081   .     S
C663   C669    1.421   .     A
C663   C665    1.423   .     A
C664   C670    1.421   .     A
C664   C666    1.423   .     A
C665   C667    1.412   .     A
C665   C90     1.404   1_556 S
C666   C668    1.412   .     A
C669   C697    1.487   .     S
C669   C67     1.399   1_556 S
C670   C701    1.487   .     S
Cu671  Cu672   2.679   .     S
Cu671  N687    2.014   .     S
Cu671  O693    1.955   .     S
Cu671  O689    1.963   .     S
Cu671  O691    1.962   .     S
Cu671  O695    1.956   .     S
Cu672  N688    2.014   .     S
Cu672  O690    1.963   .     S
Cu672  O694    1.955   .     S
Cu672  O692    1.962   .     S
Cu672  O696    1.956   .     S
C697   O698    1.223   .     D
C697   O699    1.399   .     S
H700   O763    1.014   .     S
C701   O702    1.223   .     D
C701   O703    1.399   .     S
O703   H768    1.014   .     S
C705   O756    1.291   .     A
C705   O753    1.292   .     A
C705   C714    1.448   .     S
C706   O755    1.291   .     A
C706   O754    1.292   .     A
C706   C713    1.448   .     S
C707   C732    1.398   .     A
C707   H741    1.085   .     S
C708   C731    1.398   .     A
C708   H742    1.085   .     S
C708   C158    1.399   1_556 S
C709   H743    1.083   .     S
C709   C714    1.401   .     A
C710   C713    1.401   .     A
C710   H744    1.083   .     S
C710   C584    1.383   1_655 S
C711   C713    1.400   .     A
C711   H745    1.083   .     S
C711   C581    1.383   1_655 S
C712   H746    1.083   .     S
C712   C714    1.400   .     A
C715   H747    1.082   .     S
C715   N752    1.367   .     A
C715   C1102   1.417   1_545 S
C716   N751    1.367   .     A
C716   H748    1.082   .     S
C716   C909    1.417   .     S
C717   N752    1.367   .     A
C717   H749    1.082   .     S
C717   C1100   1.417   1_545 S
C718   N751    1.367   .     A
C718   H750    1.082   .     S
C718   C907    1.417   .     S
C719   O760    1.290   .     A
C719   C724    1.444   .     S
C719   O757    1.290   .     A
C720   O759    1.290   .     A
C720   C723    1.444   .     S
C720   O758    1.290   .     A
C721   H737    1.085   .     S
C721   C723    1.391   .     A
C721   C731    1.392   .     A
C722   C732    1.392   .     A
C722   H738    1.085   .     S
C722   C724    1.391   .     A
C723   C725    1.395   .     A
C724   C726    1.395   .     A
C725   H739    1.081   .     S
C725   C727    1.404   .     A
C726   C728    1.404   .     A
C726   H740    1.081   .     S
C727   C733    1.421   .     A
C727   C729    1.423   .     A
C728   C734    1.421   .     A
C728   C730    1.423   .     A
C729   C731    1.412   .     A
C729   C154    1.404   1_556 S
C730   C732    1.412   .     A
C733   C761    1.487   .     S
C733   C131    1.399   1_556 S
C734   C765    1.487   .     S
Cu735  Cu736   2.679   .     S
Cu735  N751    2.014   .     S
Cu735  O757    1.955   .     S
Cu735  O753    1.963   .     S
Cu735  O755    1.962   .     S
Cu735  O759    1.956   .     S
Cu736  N752    2.014   .     S
Cu736  O754    1.963   .     S
Cu736  O758    1.955   .     S
Cu736  O756    1.962   .     S
Cu736  O760    1.956   .     S
C761   O762    1.223   .     D
C761   O763    1.399   .     S
H764   O635    1.014   1_655 S
C765   O766    1.223   .     D
C765   O767    1.399   .     S
O767   H640    1.014   1_655 S
C769   O820    1.291   .     A
C769   O817    1.292   .     A
C769   C778    1.448   .     S
C770   O819    1.291   .     A
C770   O818    1.292   .     A
C770   C777    1.448   .     S
C771   C796    1.398   .     A
C771   H805    1.085   .     S
C772   C795    1.398   .     A
C772   H806    1.085   .     S
C772   C222    1.399   1_556 S
C773   H807    1.083   .     S
C773   C778    1.401   .     A
C773   C903    1.383   1_455 S
C774   C777    1.401   .     A
C774   H808    1.083   .     S
C774   C840    1.383   .     S
C775   C777    1.400   .     A
C775   H809    1.083   .     S
C775   C837    1.383   .     S
C776   H810    1.083   .     S
C776   C778    1.400   .     A
C776   C902    1.383   1_455 S
C779   H811    1.082   .     S
C779   N816    1.367   .     A
C780   N815    1.367   .     A
C780   H812    1.082   .     S
C780   C973    1.417   .     S
C781   N816    1.367   .     A
C781   H813    1.082   .     S
C782   N815    1.367   .     A
C782   H814    1.082   .     S
C782   C971    1.417   .     S
C783   O824    1.290   .     A
C783   C788    1.444   .     S
C783   O821    1.290   .     A
C784   O823    1.290   .     A
C784   C787    1.444   .     S
C784   O822    1.290   .     A
C785   H801    1.085   .     S
C785   C787    1.391   .     A
C785   C795    1.392   .     A
C786   C796    1.392   .     A
C786   H802    1.085   .     S
C786   C788    1.391   .     A
C787   C789    1.395   .     A
C788   C790    1.395   .     A
C789   H803    1.081   .     S
C789   C791    1.404   .     A
C790   C792    1.404   .     A
C790   H804    1.081   .     S
C791   C797    1.421   .     A
C791   C793    1.423   .     A
C792   C798    1.421   .     A
C792   C794    1.423   .     A
C793   C795    1.412   .     A
C793   C218    1.404   1_556 S
C794   C796    1.412   .     A
C797   C825    1.487   .     S
C797   C195    1.399   1_556 S
C798   C829    1.487   .     S
Cu799  Cu800   2.679   .     S
Cu799  N815    2.014   .     S
Cu799  O821    1.955   .     S
Cu799  O817    1.963   .     S
Cu799  O819    1.962   .     S
Cu799  O823    1.956   .     S
Cu800  N816    2.014   .     S
Cu800  O818    1.963   .     S
Cu800  O822    1.955   .     S
Cu800  O820    1.962   .     S
Cu800  O824    1.956   .     S
C825   O826    1.223   .     D
C825   O827    1.399   .     S
O827   H956    1.014   1_455 S
H828   O891    1.014   .     S
C829   O830    1.223   .     D
C829   O831    1.399   .     S
O831   H896    1.014   .     S
H832   O959    1.014   1_455 S
C833   O884    1.291   .     A
C833   O881    1.292   .     A
C833   C842    1.448   .     S
C834   O883    1.291   .     A
C834   O882    1.292   .     A
C834   C841    1.448   .     S
C835   C860    1.398   .     A
C835   H869    1.085   .     S
C836   C859    1.398   .     A
C836   H870    1.085   .     S
C836   C286    1.399   1_556 S
C837   H871    1.083   .     S
C837   C842    1.401   .     A
C838   C841    1.401   .     A
C838   H872    1.083   .     S
C838   C904    1.383   .     S
C839   C841    1.400   .     A
C839   H873    1.083   .     S
C839   C901    1.383   .     S
C840   H874    1.083   .     S
C840   C842    1.400   .     A
C843   H875    1.082   .     S
C843   N880    1.367   .     A
C844   N879    1.367   .     A
C844   H876    1.082   .     S
C844   C1037   1.417   .     S
C845   N880    1.367   .     A
C845   H877    1.082   .     S
C846   N879    1.367   .     A
C846   H878    1.082   .     S
C846   C1035   1.417   .     S
C847   O888    1.290   .     A
C847   C852    1.444   .     S
C847   O885    1.290   .     A
C848   O887    1.290   .     A
C848   C851    1.444   .     S
C848   O886    1.290   .     A
C849   H865    1.085   .     S
C849   C851    1.391   .     A
C849   C859    1.392   .     A
C850   C860    1.392   .     A
C850   H866    1.085   .     S
C850   C852    1.391   .     A
C851   C853    1.395   .     A
C852   C854    1.395   .     A
C853   H867    1.081   .     S
C853   C855    1.404   .     A
C854   C856    1.404   .     A
C854   H868    1.081   .     S
C855   C861    1.421   .     A
C855   C857    1.423   .     A
C856   C862    1.421   .     A
C856   C858    1.423   .     A
C857   C859    1.412   .     A
C857   C282    1.404   1_556 S
C858   C860    1.412   .     A
C861   C889    1.487   .     S
C861   C259    1.399   1_556 S
C862   C893    1.487   .     S
Cu863  Cu864   2.679   .     S
Cu863  N879    2.014   .     S
Cu863  O885    1.955   .     S
Cu863  O881    1.963   .     S
Cu863  O883    1.962   .     S
Cu863  O887    1.956   .     S
Cu864  N880    2.014   .     S
Cu864  O882    1.963   .     S
Cu864  O886    1.955   .     S
Cu864  O884    1.962   .     S
Cu864  O888    1.956   .     S
C889   O890    1.223   .     D
C889   O891    1.399   .     S
H892   O955    1.014   .     S
C893   O894    1.223   .     D
C893   O895    1.399   .     S
O895   H960    1.014   .     S
C897   O948    1.291   .     A
C897   O945    1.292   .     A
C897   C906    1.448   .     S
C898   O947    1.291   .     A
C898   O946    1.292   .     A
C898   C905    1.448   .     S
C899   C924    1.398   .     A
C899   H933    1.085   .     S
C900   C923    1.398   .     A
C900   H934    1.085   .     S
C900   C350    1.399   1_556 S
C901   H935    1.083   .     S
C901   C906    1.401   .     A
C902   C905    1.401   .     A
C902   H936    1.083   .     S
C902   C776    1.383   1_655 S
C903   C905    1.400   .     A
C903   H937    1.083   .     S
C903   C773    1.383   1_655 S
C904   H938    1.083   .     S
C904   C906    1.400   .     A
C907   H939    1.082   .     S
C907   N944    1.367   .     A
C908   N943    1.367   .     A
C908   H940    1.082   .     S
C908   C1101   1.417   .     S
C909   N944    1.367   .     A
C909   H941    1.082   .     S
C910   N943    1.367   .     A
C910   H942    1.082   .     S
C910   C1099   1.417   .     S
C911   O952    1.290   .     A
C911   C916    1.444   .     S
C911   O949    1.290   .     A
C912   O951    1.290   .     A
C912   C915    1.444   .     S
C912   O950    1.290   .     A
C913   H929    1.085   .     S
C913   C915    1.391   .     A
C913   C923    1.392   .     A
C914   C924    1.392   .     A
C914   H930    1.085   .     S
C914   C916    1.391   .     A
C915   C917    1.395   .     A
C916   C918    1.395   .     A
C917   H931    1.081   .     S
C917   C919    1.404   .     A
C918   C920    1.404   .     A
C918   H932    1.081   .     S
C919   C925    1.421   .     A
C919   C921    1.423   .     A
C920   C926    1.421   .     A
C920   C922    1.423   .     A
C921   C923    1.412   .     A
C921   C346    1.404   1_556 S
C922   C924    1.412   .     A
C925   C953    1.487   .     S
C925   C323    1.399   1_556 S
C926   C957    1.487   .     S
Cu927  Cu928   2.679   .     S
Cu927  N943    2.014   .     S
Cu927  O949    1.955   .     S
Cu927  O945    1.963   .     S
Cu927  O947    1.962   .     S
Cu927  O951    1.956   .     S
Cu928  N944    2.014   .     S
Cu928  O946    1.963   .     S
Cu928  O950    1.955   .     S
Cu928  O948    1.962   .     S
Cu928  O952    1.956   .     S
C953   O954    1.223   .     D
C953   O955    1.399   .     S
H956   O827    1.014   1_655 S
C957   O958    1.223   .     D
C957   O959    1.399   .     S
O959   H832    1.014   1_655 S
C961   O1012   1.291   .     A
C961   O1009   1.292   .     A
C961   C970    1.448   .     S
C962   O1011   1.291   .     A
C962   O1010   1.292   .     A
C962   C969    1.448   .     S
C963   C988    1.398   .     A
C963   H997    1.085   .     S
C964   C987    1.398   .     A
C964   H998    1.085   .     S
C964   C414    1.399   1_556 S
C965   H999    1.083   .     S
C965   C970    1.401   .     A
C965   C1095   1.383   1_455 S
C966   C969    1.401   .     A
C966   H1000   1.083   .     S
C966   C1032   1.383   .     S
C967   C969    1.400   .     A
C967   H1001   1.083   .     S
C967   C1029   1.383   .     S
C968   H1002   1.083   .     S
C968   C970    1.400   .     A
C968   C1094   1.383   1_455 S
C971   H1003   1.082   .     S
C971   N1008   1.367   .     A
C972   N1007   1.367   .     A
C972   H1004   1.082   .     S
C972   C589    1.417   1_565 S
C973   N1008   1.367   .     A
C973   H1005   1.082   .     S
C974   N1007   1.367   .     A
C974   H1006   1.082   .     S
C974   C587    1.417   1_565 S
C975   O1016   1.290   .     A
C975   C980    1.444   .     S
C975   O1013   1.290   .     A
C976   O1015   1.290   .     A
C976   C979    1.444   .     S
C976   O1014   1.290   .     A
C977   H993    1.085   .     S
C977   C979    1.391   .     A
C977   C987    1.392   .     A
C978   C988    1.392   .     A
C978   H994    1.085   .     S
C978   C980    1.391   .     A
C979   C981    1.395   .     A
C980   C982    1.395   .     A
C981   H995    1.081   .     S
C981   C983    1.404   .     A
C982   C984    1.404   .     A
C982   H996    1.081   .     S
C983   C989    1.421   .     A
C983   C985    1.423   .     A
C984   C990    1.421   .     A
C984   C986    1.423   .     A
C985   C987    1.412   .     A
C985   C410    1.404   1_556 S
C986   C988    1.412   .     A
C989   C1017   1.487   .     S
C989   C387    1.399   1_556 S
C990   C1021   1.487   .     S
Cu991  Cu992   2.679   .     S
Cu991  N1007   2.014   .     S
Cu991  O1013   1.955   .     S
Cu991  O1009   1.963   .     S
Cu991  O1011   1.962   .     S
Cu991  O1015   1.956   .     S
Cu992  N1008   2.014   .     S
Cu992  O1010   1.963   .     S
Cu992  O1014   1.955   .     S
Cu992  O1012   1.962   .     S
Cu992  O1016   1.956   .     S
C1017  O1018   1.223   .     D
C1017  O1019   1.399   .     S
O1019  H1148   1.014   1_455 S
H1020  O1083   1.014   .     S
C1021  O1022   1.223   .     D
C1021  O1023   1.399   .     S
O1023  H1088   1.014   .     S
H1024  O1151   1.014   1_455 S
C1025  O1076   1.291   .     A
C1025  O1073   1.292   .     A
C1025  C1034   1.448   .     S
C1026  O1075   1.291   .     A
C1026  O1074   1.292   .     A
C1026  C1033   1.448   .     S
C1027  C1052   1.398   .     A
C1027  H1061   1.085   .     S
C1028  C1051   1.398   .     A
C1028  H1062   1.085   .     S
C1028  C478    1.399   1_556 S
C1029  H1063   1.083   .     S
C1029  C1034   1.401   .     A
C1030  C1033   1.401   .     A
C1030  H1064   1.083   .     S
C1030  C1096   1.383   .     S
C1031  C1033   1.400   .     A
C1031  H1065   1.083   .     S
C1031  C1093   1.383   .     S
C1032  H1066   1.083   .     S
C1032  C1034   1.400   .     A
C1035  H1067   1.082   .     S
C1035  N1072   1.367   .     A
C1036  N1071   1.367   .     A
C1036  H1068   1.082   .     S
C1036  C653    1.417   1_565 S
C1037  N1072   1.367   .     A
C1037  H1069   1.082   .     S
C1038  N1071   1.367   .     A
C1038  H1070   1.082   .     S
C1038  C651    1.417   1_565 S
C1039  O1080   1.290   .     A
C1039  C1044   1.444   .     S
C1039  O1077   1.290   .     A
C1040  O1079   1.290   .     A
C1040  C1043   1.444   .     S
C1040  O1078   1.290   .     A
C1041  H1057   1.085   .     S
C1041  C1043   1.391   .     A
C1041  C1051   1.392   .     A
C1042  C1052   1.392   .     A
C1042  H1058   1.085   .     S
C1042  C1044   1.391   .     A
C1043  C1045   1.395   .     A
C1044  C1046   1.395   .     A
C1045  H1059   1.081   .     S
C1045  C1047   1.404   .     A
C1046  C1048   1.404   .     A
C1046  H1060   1.081   .     S
C1047  C1053   1.421   .     A
C1047  C1049   1.423   .     A
C1048  C1054   1.421   .     A
C1048  C1050   1.423   .     A
C1049  C1051   1.412   .     A
C1049  C474    1.404   1_556 S
C1050  C1052   1.412   .     A
C1053  C1081   1.487   .     S
C1053  C451    1.399   1_556 S
C1054  C1085   1.487   .     S
Cu1055 Cu1056  2.679   .     S
Cu1055 N1071   2.014   .     S
Cu1055 O1077   1.955   .     S
Cu1055 O1073   1.963   .     S
Cu1055 O1075   1.962   .     S
Cu1055 O1079   1.956   .     S
Cu1056 N1072   2.014   .     S
Cu1056 O1074   1.963   .     S
Cu1056 O1078   1.955   .     S
Cu1056 O1076   1.962   .     S
Cu1056 O1080   1.956   .     S
C1081  O1082   1.223   .     D
C1081  O1083   1.399   .     S
H1084  O1147   1.014   .     S
C1085  O1086   1.223   .     D
C1085  O1087   1.399   .     S
O1087  H1152   1.014   .     S
C1089  O1140   1.291   .     A
C1089  O1137   1.292   .     A
C1089  C1098   1.448   .     S
C1090  O1139   1.291   .     A
C1090  O1138   1.292   .     A
C1090  C1097   1.448   .     S
C1091  C1116   1.398   .     A
C1091  H1125   1.085   .     S
C1092  C1115   1.398   .     A
C1092  H1126   1.085   .     S
C1092  C542    1.399   1_556 S
C1093  H1127   1.083   .     S
C1093  C1098   1.401   .     A
C1094  C1097   1.401   .     A
C1094  H1128   1.083   .     S
C1094  C968    1.383   1_655 S
C1095  C1097   1.400   .     A
C1095  H1129   1.083   .     S
C1095  C965    1.383   1_655 S
C1096  H1130   1.083   .     S
C1096  C1098   1.400   .     A
C1099  H1131   1.082   .     S
C1099  N1136   1.367   .     A
C1100  N1135   1.367   .     A
C1100  H1132   1.082   .     S
C1100  C717    1.417   1_565 S
C1101  N1136   1.367   .     A
C1101  H1133   1.082   .     S
C1102  N1135   1.367   .     A
C1102  H1134   1.082   .     S
C1102  C715    1.417   1_565 S
C1103  O1144   1.290   .     A
C1103  C1108   1.444   .     S
C1103  O1141   1.290   .     A
C1104  O1143   1.290   .     A
C1104  C1107   1.444   .     S
C1104  O1142   1.290   .     A
C1105  H1121   1.085   .     S
C1105  C1107   1.391   .     A
C1105  C1115   1.392   .     A
C1106  C1116   1.392   .     A
C1106  H1122   1.085   .     S
C1106  C1108   1.391   .     A
C1107  C1109   1.395   .     A
C1108  C1110   1.395   .     A
C1109  H1123   1.081   .     S
C1109  C1111   1.404   .     A
C1110  C1112   1.404   .     A
C1110  H1124   1.081   .     S
C1111  C1117   1.421   .     A
C1111  C1113   1.423   .     A
C1112  C1118   1.421   .     A
C1112  C1114   1.423   .     A
C1113  C1115   1.412   .     A
C1113  C538    1.404   1_556 S
C1114  C1116   1.412   .     A
C1117  C1145   1.487   .     S
C1117  C515    1.399   1_556 S
C1118  C1149   1.487   .     S
Cu1119 Cu1120  2.679   .     S
Cu1119 N1135   2.014   .     S
Cu1119 O1141   1.955   .     S
Cu1119 O1137   1.963   .     S
Cu1119 O1139   1.962   .     S
Cu1119 O1143   1.956   .     S
Cu1120 N1136   2.014   .     S
Cu1120 O1138   1.963   .     S
Cu1120 O1142   1.955   .     S
Cu1120 O1140   1.962   .     S
Cu1120 O1144   1.956   .     S
C1145  O1146   1.223   .     D
C1145  O1147   1.399   .     S
H1148  O1019   1.014   1_655 S
C1149  O1150   1.223   .     D
C1149  O1151   1.399   .     S
O1151  H1024   1.014   1_655 S
