data_str_m2_o2_o10_pcu_sym.135
_audit_creation_date              2020-01-03
_audit_creation_method            'Materials Studio'
_symmetry_space_group_name_H-M    'P1'
_symmetry_Int_Tables_number       1
_symmetry_cell_setting            triclinic
loop_
_symmetry_equiv_pos_as_xyz
  x,y,z
_cell_length_a                    26.1519
_cell_length_b                    30.2418
_cell_length_c                    27.6754
_cell_angle_alpha                 89.1091
_cell_angle_beta                  97.9376
_cell_angle_gamma                 90.1448
loop_
_atom_site_label
_atom_site_type_symbol
_atom_site_fract_x
_atom_site_fract_y
_atom_site_fract_z
_atom_site_U_iso_or_equiv
_atom_site_adp_type
_atom_site_occupancy
C1     C     0.16686   0.16521   0.25045   0.00000  Uiso   1.00
C2     C     0.16652   0.33479   0.24955   0.00000  Uiso   1.00
C3     C     0.20212   0.22569   0.05833   0.00000  Uiso   1.00
C4     C     0.13091   0.22590   0.44243   0.00000  Uiso   1.00
C5     C     0.20180   0.22560   0.10914   0.00000  Uiso   1.00
C6     C     0.13130   0.22579   0.39162   0.00000  Uiso   1.00
C7     C     0.13104   0.27484   0.10011   0.00000  Uiso   1.00
C8     C     0.20254   0.27455   0.39912   0.00000  Uiso   1.00
C9     C     0.12944   0.27593   0.04865   0.00000  Uiso   1.00
C10    C     0.20410   0.27564   0.45054   0.00000  Uiso   1.00
C11    C     0.16591   0.25086   0.02717   0.00000  Uiso   1.00
C12    C     0.16733   0.25086   0.47279   0.00000  Uiso   1.00
C13    C     0.06787   0.24998   0.23754   0.00000  Uiso   1.00
C14    C     0.26547   0.24999   0.26247   0.00000  Uiso   1.00
C15    C     0.01260   0.24997   0.23063   0.00000  Uiso   1.00
C16    C     0.32073   0.24995   0.26937   0.00000  Uiso   1.00
C17    C     0.21342   0.04851   0.27505   0.00000  Uiso   1.00
C18    C     0.12289   0.45219   0.22426   0.00000  Uiso   1.00
C19    C     0.21429   0.09484   0.26772   0.00000  Uiso   1.00
C20    C     0.12085   0.40585   0.23107   0.00000  Uiso   1.00
C21    C     0.16751   0.11721   0.25238   0.00000  Uiso   1.00
C22    C     0.16680   0.38279   0.24778   0.00000  Uiso   1.00
C23    C     0.12054   0.09412   0.24668   0.00000  Uiso   1.00
C24    C     0.21420   0.40521   0.25523   0.00000  Uiso   1.00
C25    C     0.12141   0.04816   0.25001   0.00000  Uiso   1.00
C26    C     0.21433   0.45118   0.25228   0.00000  Uiso   1.00
C27    C     0.16816   0.02447   0.25604   0.00000  Uiso   1.00
C28    C     0.16808   0.47555   0.24483   0.00000  Uiso   1.00
Cu29   Cu    0.16667   0.24999   0.29821   0.00000  Uiso   1.00
Cu30   Cu    0.16667   0.25000   0.20178   0.00000  Uiso   1.00
H31    H     0.32593   0.25001   0.19348   0.00000  Uiso   1.00
H32    H     0.00741   0.24990   0.30652   0.00000  Uiso   1.00
H33    H     0.08500   0.03118   0.24825   0.00000  Uiso   1.00
H34    H     0.25117   0.46748   0.25508   0.00000  Uiso   1.00
H35    H     0.23063   0.20615   0.04333   0.00000  Uiso   1.00
H36    H     0.10220   0.20654   0.45805   0.00000  Uiso   1.00
H37    H     0.22990   0.20593   0.13247   0.00000  Uiso   1.00
H38    H     0.10305   0.20627   0.36891   0.00000  Uiso   1.00
H39    H     0.10378   0.29412   0.11704   0.00000  Uiso   1.00
H40    H     0.23005   0.29362   0.38161   0.00000  Uiso   1.00
N41    N     0.16667   0.25001   0.12935   0.00000  Uiso   1.00
N42    N     0.16667   0.24999   0.37065   0.00000  Uiso   1.00
O43    O     0.16667   0.18572   0.29071   0.00000  Uiso   1.00
O44    O     0.16666   0.31427   0.20929   0.00000  Uiso   1.00
O45    O     0.16667   0.18573   0.20928   0.00000  Uiso   1.00
O46    O     0.16666   0.31427   0.29072   0.00000  Uiso   1.00
O47    O     0.09161   0.24999   0.28132   0.00000  Uiso   1.00
O48    O     0.24172   0.25000   0.21868   0.00000  Uiso   1.00
O49    O     0.09161   0.25000   0.19988   0.00000  Uiso   1.00
O50    O     0.24172   0.25000   0.30011   0.00000  Uiso   1.00
C51    C     0.25396   0.02863   0.31371   0.00000  Uiso   1.00
H52    H     0.24028   0.49769   0.32980   0.00000  Uiso   1.00
H53    H     0.29055   0.02279   0.29867   0.00000  Uiso   1.00
H54    H     0.26213   0.05151   0.34486   0.00000  Uiso   1.00
C55    C     0.08356   0.47307   0.18519   0.00000  Uiso   1.00
H56    H     0.04641   0.47874   0.19927   0.00000  Uiso   1.00
H57    H     0.09793   0.00436   0.17049   0.00000  Uiso   1.00
H58    H     0.07621   0.45090   0.15334   0.00000  Uiso   1.00
C59    C     0.26409   0.12099   0.27819   0.00000  Uiso   1.00
H60    H     0.26929   0.14214   0.24606   0.00000  Uiso   1.00
H61    H     0.26270   0.14232   0.31026   0.00000  Uiso   1.00
H62    H     0.29871   0.09961   0.28547   0.00000  Uiso   1.00
C63    C     0.07073   0.38045   0.21877   0.00000  Uiso   1.00
H64    H     0.06419   0.35885   0.25016   0.00000  Uiso   1.00
H65    H     0.03654   0.40232   0.21115   0.00000  Uiso   1.00
H66    H     0.07271   0.35962   0.18640   0.00000  Uiso   1.00
C67    C     0.06943   0.11801   0.23686   0.00000  Uiso   1.00
H68    H     0.06784   0.13833   0.20292   0.00000  Uiso   1.00
H69    H     0.03637   0.09463   0.23214   0.00000  Uiso   1.00
H70    H     0.06483   0.13992   0.26781   0.00000  Uiso   1.00
C71    C     0.26473   0.38054   0.26625   0.00000  Uiso   1.00
H72    H     0.26502   0.36032   0.30012   0.00000  Uiso   1.00
H73    H     0.26969   0.35845   0.23555   0.00000  Uiso   1.00
H74    H     0.29830   0.40338   0.27162   0.00000  Uiso   1.00
C75    C     0.09035   0.30367   0.01819   0.00000  Uiso   1.00
H76    H     0.08965   0.30590   0.47896   0.00000  Uiso   1.00
O77    O     0.05827   0.32452   0.03659   0.00000  Uiso   1.00
C78    C     0.24347   0.30310   0.48012   0.00000  Uiso   1.00
H79    H     0.24409   0.30541   0.01926   0.00000  Uiso   1.00
O80    O     0.27587   0.32363   0.46109   0.00000  Uiso   1.00
C81    C     0.50019   0.16521   0.25045   0.00000  Uiso   1.00
C82    C     0.49985   0.33479   0.24955   0.00000  Uiso   1.00
C83    C     0.53545   0.22569   0.05833   0.00000  Uiso   1.00
C84    C     0.46425   0.22590   0.44243   0.00000  Uiso   1.00
C85    C     0.53513   0.22560   0.10914   0.00000  Uiso   1.00
C86    C     0.46463   0.22579   0.39162   0.00000  Uiso   1.00
C87    C     0.46438   0.27484   0.10011   0.00000  Uiso   1.00
C88    C     0.53588   0.27455   0.39912   0.00000  Uiso   1.00
C89    C     0.46278   0.27593   0.04865   0.00000  Uiso   1.00
C90    C     0.53743   0.27564   0.45054   0.00000  Uiso   1.00
C91    C     0.49924   0.25086   0.02717   0.00000  Uiso   1.00
C92    C     0.50066   0.25086   0.47279   0.00000  Uiso   1.00
C93    C     0.40120   0.24998   0.23754   0.00000  Uiso   1.00
C94    C     0.59880   0.24999   0.26247   0.00000  Uiso   1.00
C95    C     0.34594   0.24997   0.23063   0.00000  Uiso   1.00
C96    C     0.65406   0.24995   0.26937   0.00000  Uiso   1.00
C97    C     0.54675   0.04851   0.27505   0.00000  Uiso   1.00
C98    C     0.45623   0.45219   0.22426   0.00000  Uiso   1.00
C99    C     0.54762   0.09484   0.26772   0.00000  Uiso   1.00
C100   C     0.45418   0.40585   0.23107   0.00000  Uiso   1.00
C101   C     0.50085   0.11721   0.25238   0.00000  Uiso   1.00
C102   C     0.50014   0.38279   0.24778   0.00000  Uiso   1.00
C103   C     0.45387   0.09412   0.24668   0.00000  Uiso   1.00
C104   C     0.54753   0.40521   0.25523   0.00000  Uiso   1.00
C105   C     0.45475   0.04816   0.25001   0.00000  Uiso   1.00
C106   C     0.54766   0.45118   0.25228   0.00000  Uiso   1.00
C107   C     0.50150   0.02447   0.25604   0.00000  Uiso   1.00
C108   C     0.50141   0.47555   0.24483   0.00000  Uiso   1.00
Cu109  Cu    0.50000   0.24999   0.29821   0.00000  Uiso   1.00
Cu110  Cu    0.50000   0.25000   0.20178   0.00000  Uiso   1.00
H111   H     0.65926   0.25001   0.19348   0.00000  Uiso   1.00
H112   H     0.34074   0.24990   0.30652   0.00000  Uiso   1.00
H113   H     0.41834   0.03118   0.24825   0.00000  Uiso   1.00
H114   H     0.58450   0.46748   0.25508   0.00000  Uiso   1.00
H115   H     0.56396   0.20615   0.04333   0.00000  Uiso   1.00
H116   H     0.43553   0.20654   0.45805   0.00000  Uiso   1.00
H117   H     0.56324   0.20593   0.13247   0.00000  Uiso   1.00
H118   H     0.43639   0.20627   0.36891   0.00000  Uiso   1.00
H119   H     0.43711   0.29412   0.11704   0.00000  Uiso   1.00
H120   H     0.56338   0.29362   0.38161   0.00000  Uiso   1.00
N121   N     0.50000   0.25001   0.12935   0.00000  Uiso   1.00
N122   N     0.50000   0.24999   0.37065   0.00000  Uiso   1.00
O123   O     0.50000   0.18572   0.29071   0.00000  Uiso   1.00
O124   O     0.50000   0.31427   0.20929   0.00000  Uiso   1.00
O125   O     0.50000   0.18573   0.20928   0.00000  Uiso   1.00
O126   O     0.50000   0.31427   0.29072   0.00000  Uiso   1.00
O127   O     0.42495   0.24999   0.28132   0.00000  Uiso   1.00
O128   O     0.57505   0.25000   0.21868   0.00000  Uiso   1.00
O129   O     0.42495   0.25000   0.19988   0.00000  Uiso   1.00
O130   O     0.57505   0.25000   0.30011   0.00000  Uiso   1.00
C131   C     0.58729   0.02863   0.31371   0.00000  Uiso   1.00
H132   H     0.57362   0.49769   0.32980   0.00000  Uiso   1.00
H133   H     0.62388   0.02279   0.29867   0.00000  Uiso   1.00
H134   H     0.59546   0.05151   0.34486   0.00000  Uiso   1.00
C135   C     0.41689   0.47307   0.18519   0.00000  Uiso   1.00
H136   H     0.37975   0.47874   0.19927   0.00000  Uiso   1.00
H137   H     0.43126   0.00436   0.17049   0.00000  Uiso   1.00
H138   H     0.40955   0.45090   0.15334   0.00000  Uiso   1.00
C139   C     0.59743   0.12099   0.27819   0.00000  Uiso   1.00
H140   H     0.60262   0.14214   0.24606   0.00000  Uiso   1.00
H141   H     0.59603   0.14232   0.31026   0.00000  Uiso   1.00
H142   H     0.63205   0.09961   0.28547   0.00000  Uiso   1.00
C143   C     0.40406   0.38045   0.21877   0.00000  Uiso   1.00
H144   H     0.39752   0.35885   0.25016   0.00000  Uiso   1.00
H145   H     0.36987   0.40232   0.21115   0.00000  Uiso   1.00
H146   H     0.40605   0.35962   0.18640   0.00000  Uiso   1.00
C147   C     0.40277   0.11801   0.23686   0.00000  Uiso   1.00
H148   H     0.40118   0.13833   0.20292   0.00000  Uiso   1.00
H149   H     0.36971   0.09463   0.23214   0.00000  Uiso   1.00
H150   H     0.39817   0.13992   0.26781   0.00000  Uiso   1.00
C151   C     0.59806   0.38054   0.26625   0.00000  Uiso   1.00
H152   H     0.59835   0.36032   0.30012   0.00000  Uiso   1.00
H153   H     0.60303   0.35845   0.23555   0.00000  Uiso   1.00
H154   H     0.63163   0.40338   0.27162   0.00000  Uiso   1.00
C155   C     0.42368   0.30367   0.01819   0.00000  Uiso   1.00
H156   H     0.42298   0.30590   0.47896   0.00000  Uiso   1.00
O157   O     0.39160   0.32452   0.03659   0.00000  Uiso   1.00
C158   C     0.57680   0.30310   0.48012   0.00000  Uiso   1.00
H159   H     0.57743   0.30541   0.01926   0.00000  Uiso   1.00
O160   O     0.60921   0.32363   0.46109   0.00000  Uiso   1.00
C161   C     0.83353   0.16521   0.25045   0.00000  Uiso   1.00
C162   C     0.83318   0.33479   0.24955   0.00000  Uiso   1.00
C163   C     0.86878   0.22569   0.05833   0.00000  Uiso   1.00
C164   C     0.79758   0.22590   0.44243   0.00000  Uiso   1.00
C165   C     0.86847   0.22560   0.10914   0.00000  Uiso   1.00
C166   C     0.79796   0.22579   0.39162   0.00000  Uiso   1.00
C167   C     0.79771   0.27484   0.10011   0.00000  Uiso   1.00
C168   C     0.86921   0.27455   0.39912   0.00000  Uiso   1.00
C169   C     0.79611   0.27593   0.04865   0.00000  Uiso   1.00
C170   C     0.87076   0.27564   0.45054   0.00000  Uiso   1.00
C171   C     0.83257   0.25086   0.02717   0.00000  Uiso   1.00
C172   C     0.83400   0.25086   0.47279   0.00000  Uiso   1.00
C173   C     0.73453   0.24998   0.23754   0.00000  Uiso   1.00
C174   C     0.93213   0.24999   0.26247   0.00000  Uiso   1.00
C175   C     0.67927   0.24997   0.23063   0.00000  Uiso   1.00
C176   C     0.98740   0.24995   0.26937   0.00000  Uiso   1.00
C177   C     0.88008   0.04851   0.27505   0.00000  Uiso   1.00
C178   C     0.78956   0.45219   0.22426   0.00000  Uiso   1.00
C179   C     0.88095   0.09484   0.26772   0.00000  Uiso   1.00
C180   C     0.78751   0.40585   0.23107   0.00000  Uiso   1.00
C181   C     0.83418   0.11721   0.25238   0.00000  Uiso   1.00
C182   C     0.83347   0.38279   0.24778   0.00000  Uiso   1.00
C183   C     0.78721   0.09412   0.24668   0.00000  Uiso   1.00
C184   C     0.88087   0.40521   0.25523   0.00000  Uiso   1.00
C185   C     0.78808   0.04816   0.25001   0.00000  Uiso   1.00
C186   C     0.88100   0.45118   0.25228   0.00000  Uiso   1.00
C187   C     0.83483   0.02447   0.25604   0.00000  Uiso   1.00
C188   C     0.83474   0.47555   0.24483   0.00000  Uiso   1.00
Cu189  Cu    0.83333   0.24999   0.29821   0.00000  Uiso   1.00
Cu190  Cu    0.83333   0.25000   0.20178   0.00000  Uiso   1.00
H191   H     0.99259   0.25001   0.19348   0.00000  Uiso   1.00
H192   H     0.67407   0.24990   0.30652   0.00000  Uiso   1.00
H193   H     0.75167   0.03118   0.24825   0.00000  Uiso   1.00
H194   H     0.91783   0.46748   0.25508   0.00000  Uiso   1.00
H195   H     0.89730   0.20615   0.04333   0.00000  Uiso   1.00
H196   H     0.76887   0.20654   0.45805   0.00000  Uiso   1.00
H197   H     0.89657   0.20593   0.13247   0.00000  Uiso   1.00
H198   H     0.76972   0.20627   0.36891   0.00000  Uiso   1.00
H199   H     0.77045   0.29412   0.11704   0.00000  Uiso   1.00
H200   H     0.89671   0.29362   0.38161   0.00000  Uiso   1.00
N201   N     0.83333   0.25001   0.12935   0.00000  Uiso   1.00
N202   N     0.83333   0.24999   0.37065   0.00000  Uiso   1.00
O203   O     0.83334   0.18572   0.29071   0.00000  Uiso   1.00
O204   O     0.83333   0.31427   0.20929   0.00000  Uiso   1.00
O205   O     0.83334   0.18573   0.20928   0.00000  Uiso   1.00
O206   O     0.83333   0.31427   0.29072   0.00000  Uiso   1.00
O207   O     0.75828   0.24999   0.28132   0.00000  Uiso   1.00
O208   O     0.90839   0.25000   0.21868   0.00000  Uiso   1.00
O209   O     0.75828   0.25000   0.19988   0.00000  Uiso   1.00
O210   O     0.90839   0.25000   0.30011   0.00000  Uiso   1.00
C211   C     0.92063   0.02863   0.31371   0.00000  Uiso   1.00
H212   H     0.90695   0.49769   0.32980   0.00000  Uiso   1.00
H213   H     0.95721   0.02279   0.29867   0.00000  Uiso   1.00
H214   H     0.92880   0.05151   0.34486   0.00000  Uiso   1.00
C215   C     0.75023   0.47307   0.18519   0.00000  Uiso   1.00
H216   H     0.71308   0.47874   0.19927   0.00000  Uiso   1.00
H217   H     0.76460   0.00436   0.17049   0.00000  Uiso   1.00
H218   H     0.74288   0.45090   0.15334   0.00000  Uiso   1.00
C219   C     0.93076   0.12099   0.27819   0.00000  Uiso   1.00
H220   H     0.93596   0.14214   0.24606   0.00000  Uiso   1.00
H221   H     0.92937   0.14232   0.31026   0.00000  Uiso   1.00
H222   H     0.96538   0.09961   0.28547   0.00000  Uiso   1.00
C223   C     0.73739   0.38045   0.21877   0.00000  Uiso   1.00
H224   H     0.73086   0.35885   0.25016   0.00000  Uiso   1.00
H225   H     0.70321   0.40232   0.21115   0.00000  Uiso   1.00
H226   H     0.73938   0.35962   0.18640   0.00000  Uiso   1.00
C227   C     0.73610   0.11801   0.23686   0.00000  Uiso   1.00
H228   H     0.73451   0.13833   0.20292   0.00000  Uiso   1.00
H229   H     0.70304   0.09463   0.23214   0.00000  Uiso   1.00
H230   H     0.73150   0.13992   0.26781   0.00000  Uiso   1.00
C231   C     0.93140   0.38054   0.26625   0.00000  Uiso   1.00
H232   H     0.93169   0.36032   0.30012   0.00000  Uiso   1.00
H233   H     0.93636   0.35845   0.23555   0.00000  Uiso   1.00
H234   H     0.96497   0.40338   0.27162   0.00000  Uiso   1.00
C235   C     0.75702   0.30367   0.01819   0.00000  Uiso   1.00
H236   H     0.75632   0.30590   0.47896   0.00000  Uiso   1.00
O237   O     0.72494   0.32452   0.03659   0.00000  Uiso   1.00
C238   C     0.91014   0.30310   0.48012   0.00000  Uiso   1.00
H239   H     0.91076   0.30541   0.01926   0.00000  Uiso   1.00
O240   O     0.94254   0.32363   0.46109   0.00000  Uiso   1.00
C241   C     0.16686   0.66521   0.25045   0.00000  Uiso   1.00
C242   C     0.16652   0.83479   0.24955   0.00000  Uiso   1.00
C243   C     0.20212   0.72569   0.05833   0.00000  Uiso   1.00
C244   C     0.13091   0.72590   0.44243   0.00000  Uiso   1.00
C245   C     0.20180   0.72560   0.10914   0.00000  Uiso   1.00
C246   C     0.13130   0.72579   0.39162   0.00000  Uiso   1.00
C247   C     0.13104   0.77484   0.10011   0.00000  Uiso   1.00
C248   C     0.20254   0.77455   0.39912   0.00000  Uiso   1.00
C249   C     0.12944   0.77593   0.04865   0.00000  Uiso   1.00
C250   C     0.20410   0.77564   0.45054   0.00000  Uiso   1.00
C251   C     0.16591   0.75086   0.02717   0.00000  Uiso   1.00
C252   C     0.16733   0.75086   0.47279   0.00000  Uiso   1.00
C253   C     0.06787   0.74998   0.23754   0.00000  Uiso   1.00
C254   C     0.26547   0.74999   0.26247   0.00000  Uiso   1.00
C255   C     0.01260   0.74997   0.23063   0.00000  Uiso   1.00
C256   C     0.32073   0.74995   0.26937   0.00000  Uiso   1.00
C257   C     0.21342   0.54851   0.27505   0.00000  Uiso   1.00
C258   C     0.12289   0.95219   0.22426   0.00000  Uiso   1.00
C259   C     0.21429   0.59484   0.26772   0.00000  Uiso   1.00
C260   C     0.12085   0.90585   0.23107   0.00000  Uiso   1.00
C261   C     0.16751   0.61721   0.25238   0.00000  Uiso   1.00
C262   C     0.16680   0.88279   0.24778   0.00000  Uiso   1.00
C263   C     0.12054   0.59412   0.24668   0.00000  Uiso   1.00
C264   C     0.21420   0.90521   0.25523   0.00000  Uiso   1.00
C265   C     0.12141   0.54816   0.25001   0.00000  Uiso   1.00
C266   C     0.21433   0.95118   0.25228   0.00000  Uiso   1.00
C267   C     0.16816   0.52447   0.25604   0.00000  Uiso   1.00
C268   C     0.16808   0.97555   0.24483   0.00000  Uiso   1.00
Cu269  Cu    0.16667   0.74999   0.29821   0.00000  Uiso   1.00
Cu270  Cu    0.16667   0.75000   0.20178   0.00000  Uiso   1.00
H271   H     0.32593   0.75001   0.19348   0.00000  Uiso   1.00
H272   H     0.00741   0.74990   0.30652   0.00000  Uiso   1.00
H273   H     0.08500   0.53118   0.24825   0.00000  Uiso   1.00
H274   H     0.25117   0.96748   0.25508   0.00000  Uiso   1.00
H275   H     0.23063   0.70615   0.04333   0.00000  Uiso   1.00
H276   H     0.10220   0.70654   0.45805   0.00000  Uiso   1.00
H277   H     0.22990   0.70593   0.13247   0.00000  Uiso   1.00
H278   H     0.10305   0.70627   0.36891   0.00000  Uiso   1.00
H279   H     0.10378   0.79412   0.11704   0.00000  Uiso   1.00
H280   H     0.23005   0.79362   0.38161   0.00000  Uiso   1.00
N281   N     0.16667   0.75001   0.12935   0.00000  Uiso   1.00
N282   N     0.16667   0.74999   0.37065   0.00000  Uiso   1.00
O283   O     0.16667   0.68572   0.29071   0.00000  Uiso   1.00
O284   O     0.16666   0.81427   0.20929   0.00000  Uiso   1.00
O285   O     0.16667   0.68573   0.20928   0.00000  Uiso   1.00
O286   O     0.16666   0.81427   0.29072   0.00000  Uiso   1.00
O287   O     0.09161   0.74999   0.28132   0.00000  Uiso   1.00
O288   O     0.24172   0.75000   0.21868   0.00000  Uiso   1.00
O289   O     0.09161   0.75000   0.19988   0.00000  Uiso   1.00
O290   O     0.24172   0.75000   0.30011   0.00000  Uiso   1.00
C291   C     0.25396   0.52863   0.31371   0.00000  Uiso   1.00
H292   H     0.24028   0.99769   0.32980   0.00000  Uiso   1.00
H293   H     0.29055   0.52279   0.29867   0.00000  Uiso   1.00
H294   H     0.26213   0.55151   0.34486   0.00000  Uiso   1.00
C295   C     0.08356   0.97307   0.18519   0.00000  Uiso   1.00
H296   H     0.04641   0.97874   0.19927   0.00000  Uiso   1.00
H297   H     0.09793   0.50436   0.17049   0.00000  Uiso   1.00
H298   H     0.07621   0.95090   0.15334   0.00000  Uiso   1.00
C299   C     0.26409   0.62099   0.27819   0.00000  Uiso   1.00
H300   H     0.26929   0.64214   0.24606   0.00000  Uiso   1.00
H301   H     0.26270   0.64232   0.31026   0.00000  Uiso   1.00
H302   H     0.29871   0.59961   0.28547   0.00000  Uiso   1.00
C303   C     0.07073   0.88045   0.21877   0.00000  Uiso   1.00
H304   H     0.06419   0.85885   0.25016   0.00000  Uiso   1.00
H305   H     0.03654   0.90232   0.21115   0.00000  Uiso   1.00
H306   H     0.07271   0.85962   0.18640   0.00000  Uiso   1.00
C307   C     0.06943   0.61801   0.23686   0.00000  Uiso   1.00
H308   H     0.06784   0.63833   0.20292   0.00000  Uiso   1.00
H309   H     0.03637   0.59463   0.23214   0.00000  Uiso   1.00
H310   H     0.06483   0.63992   0.26781   0.00000  Uiso   1.00
C311   C     0.26473   0.88054   0.26625   0.00000  Uiso   1.00
H312   H     0.26502   0.86032   0.30012   0.00000  Uiso   1.00
H313   H     0.26969   0.85845   0.23555   0.00000  Uiso   1.00
H314   H     0.29830   0.90338   0.27162   0.00000  Uiso   1.00
C315   C     0.09035   0.80367   0.01819   0.00000  Uiso   1.00
H316   H     0.08965   0.80590   0.47896   0.00000  Uiso   1.00
O317   O     0.05827   0.82452   0.03659   0.00000  Uiso   1.00
C318   C     0.24347   0.80310   0.48012   0.00000  Uiso   1.00
H319   H     0.24409   0.80541   0.01926   0.00000  Uiso   1.00
O320   O     0.27587   0.82363   0.46109   0.00000  Uiso   1.00
C321   C     0.50019   0.66521   0.25045   0.00000  Uiso   1.00
C322   C     0.49985   0.83479   0.24955   0.00000  Uiso   1.00
C323   C     0.53545   0.72569   0.05833   0.00000  Uiso   1.00
C324   C     0.46425   0.72590   0.44243   0.00000  Uiso   1.00
C325   C     0.53513   0.72560   0.10914   0.00000  Uiso   1.00
C326   C     0.46463   0.72579   0.39162   0.00000  Uiso   1.00
C327   C     0.46438   0.77484   0.10011   0.00000  Uiso   1.00
C328   C     0.53588   0.77455   0.39912   0.00000  Uiso   1.00
C329   C     0.46278   0.77593   0.04865   0.00000  Uiso   1.00
C330   C     0.53743   0.77564   0.45054   0.00000  Uiso   1.00
C331   C     0.49924   0.75086   0.02717   0.00000  Uiso   1.00
C332   C     0.50066   0.75086   0.47279   0.00000  Uiso   1.00
C333   C     0.40120   0.74998   0.23754   0.00000  Uiso   1.00
C334   C     0.59880   0.74999   0.26247   0.00000  Uiso   1.00
C335   C     0.34594   0.74997   0.23063   0.00000  Uiso   1.00
C336   C     0.65406   0.74995   0.26937   0.00000  Uiso   1.00
C337   C     0.54675   0.54851   0.27505   0.00000  Uiso   1.00
C338   C     0.45623   0.95219   0.22426   0.00000  Uiso   1.00
C339   C     0.54762   0.59484   0.26772   0.00000  Uiso   1.00
C340   C     0.45418   0.90585   0.23107   0.00000  Uiso   1.00
C341   C     0.50085   0.61721   0.25238   0.00000  Uiso   1.00
C342   C     0.50014   0.88279   0.24778   0.00000  Uiso   1.00
C343   C     0.45387   0.59412   0.24668   0.00000  Uiso   1.00
C344   C     0.54753   0.90521   0.25523   0.00000  Uiso   1.00
C345   C     0.45475   0.54816   0.25001   0.00000  Uiso   1.00
C346   C     0.54766   0.95118   0.25228   0.00000  Uiso   1.00
C347   C     0.50150   0.52447   0.25604   0.00000  Uiso   1.00
C348   C     0.50141   0.97555   0.24483   0.00000  Uiso   1.00
Cu349  Cu    0.50000   0.74999   0.29821   0.00000  Uiso   1.00
Cu350  Cu    0.50000   0.75000   0.20178   0.00000  Uiso   1.00
H351   H     0.65926   0.75001   0.19348   0.00000  Uiso   1.00
H352   H     0.34074   0.74990   0.30652   0.00000  Uiso   1.00
H353   H     0.41834   0.53118   0.24825   0.00000  Uiso   1.00
H354   H     0.58450   0.96748   0.25508   0.00000  Uiso   1.00
H355   H     0.56396   0.70615   0.04333   0.00000  Uiso   1.00
H356   H     0.43553   0.70654   0.45805   0.00000  Uiso   1.00
H357   H     0.56324   0.70593   0.13247   0.00000  Uiso   1.00
H358   H     0.43639   0.70627   0.36891   0.00000  Uiso   1.00
H359   H     0.43711   0.79412   0.11704   0.00000  Uiso   1.00
H360   H     0.56338   0.79362   0.38161   0.00000  Uiso   1.00
N361   N     0.50000   0.75001   0.12935   0.00000  Uiso   1.00
N362   N     0.50000   0.74999   0.37065   0.00000  Uiso   1.00
O363   O     0.50000   0.68572   0.29071   0.00000  Uiso   1.00
O364   O     0.50000   0.81427   0.20929   0.00000  Uiso   1.00
O365   O     0.50000   0.68573   0.20928   0.00000  Uiso   1.00
O366   O     0.50000   0.81427   0.29072   0.00000  Uiso   1.00
O367   O     0.42495   0.74999   0.28132   0.00000  Uiso   1.00
O368   O     0.57505   0.75000   0.21868   0.00000  Uiso   1.00
O369   O     0.42495   0.75000   0.19988   0.00000  Uiso   1.00
O370   O     0.57505   0.75000   0.30011   0.00000  Uiso   1.00
C371   C     0.58729   0.52863   0.31371   0.00000  Uiso   1.00
H372   H     0.57362   0.99769   0.32980   0.00000  Uiso   1.00
H373   H     0.62388   0.52279   0.29867   0.00000  Uiso   1.00
H374   H     0.59546   0.55151   0.34486   0.00000  Uiso   1.00
C375   C     0.41689   0.97307   0.18519   0.00000  Uiso   1.00
H376   H     0.37975   0.97874   0.19927   0.00000  Uiso   1.00
H377   H     0.43126   0.50436   0.17049   0.00000  Uiso   1.00
H378   H     0.40955   0.95090   0.15334   0.00000  Uiso   1.00
C379   C     0.59743   0.62099   0.27819   0.00000  Uiso   1.00
H380   H     0.60262   0.64214   0.24606   0.00000  Uiso   1.00
H381   H     0.59603   0.64232   0.31026   0.00000  Uiso   1.00
H382   H     0.63205   0.59961   0.28547   0.00000  Uiso   1.00
C383   C     0.40406   0.88045   0.21877   0.00000  Uiso   1.00
H384   H     0.39752   0.85885   0.25016   0.00000  Uiso   1.00
H385   H     0.36987   0.90232   0.21115   0.00000  Uiso   1.00
H386   H     0.40605   0.85962   0.18640   0.00000  Uiso   1.00
C387   C     0.40277   0.61801   0.23686   0.00000  Uiso   1.00
H388   H     0.40118   0.63833   0.20292   0.00000  Uiso   1.00
H389   H     0.36971   0.59463   0.23214   0.00000  Uiso   1.00
H390   H     0.39817   0.63992   0.26781   0.00000  Uiso   1.00
C391   C     0.59806   0.88054   0.26625   0.00000  Uiso   1.00
H392   H     0.59835   0.86032   0.30012   0.00000  Uiso   1.00
H393   H     0.60303   0.85845   0.23555   0.00000  Uiso   1.00
H394   H     0.63163   0.90338   0.27162   0.00000  Uiso   1.00
C395   C     0.42368   0.80367   0.01819   0.00000  Uiso   1.00
H396   H     0.42298   0.80590   0.47896   0.00000  Uiso   1.00
O397   O     0.39160   0.82452   0.03659   0.00000  Uiso   1.00
C398   C     0.57680   0.80310   0.48012   0.00000  Uiso   1.00
H399   H     0.57743   0.80541   0.01926   0.00000  Uiso   1.00
O400   O     0.60921   0.82363   0.46109   0.00000  Uiso   1.00
C401   C     0.83353   0.66521   0.25045   0.00000  Uiso   1.00
C402   C     0.83318   0.83479   0.24955   0.00000  Uiso   1.00
C403   C     0.86878   0.72569   0.05833   0.00000  Uiso   1.00
C404   C     0.79758   0.72590   0.44243   0.00000  Uiso   1.00
C405   C     0.86847   0.72560   0.10914   0.00000  Uiso   1.00
C406   C     0.79796   0.72579   0.39162   0.00000  Uiso   1.00
C407   C     0.79771   0.77484   0.10011   0.00000  Uiso   1.00
C408   C     0.86921   0.77455   0.39912   0.00000  Uiso   1.00
C409   C     0.79611   0.77593   0.04865   0.00000  Uiso   1.00
C410   C     0.87076   0.77564   0.45054   0.00000  Uiso   1.00
C411   C     0.83257   0.75086   0.02717   0.00000  Uiso   1.00
C412   C     0.83400   0.75086   0.47279   0.00000  Uiso   1.00
C413   C     0.73453   0.74998   0.23754   0.00000  Uiso   1.00
C414   C     0.93213   0.74999   0.26247   0.00000  Uiso   1.00
C415   C     0.67927   0.74997   0.23063   0.00000  Uiso   1.00
C416   C     0.98740   0.74995   0.26937   0.00000  Uiso   1.00
C417   C     0.88008   0.54851   0.27505   0.00000  Uiso   1.00
C418   C     0.78956   0.95219   0.22426   0.00000  Uiso   1.00
C419   C     0.88095   0.59484   0.26772   0.00000  Uiso   1.00
C420   C     0.78751   0.90585   0.23107   0.00000  Uiso   1.00
C421   C     0.83418   0.61721   0.25238   0.00000  Uiso   1.00
C422   C     0.83347   0.88279   0.24778   0.00000  Uiso   1.00
C423   C     0.78721   0.59412   0.24668   0.00000  Uiso   1.00
C424   C     0.88087   0.90521   0.25523   0.00000  Uiso   1.00
C425   C     0.78808   0.54816   0.25001   0.00000  Uiso   1.00
C426   C     0.88100   0.95118   0.25228   0.00000  Uiso   1.00
C427   C     0.83483   0.52447   0.25604   0.00000  Uiso   1.00
C428   C     0.83474   0.97555   0.24483   0.00000  Uiso   1.00
Cu429  Cu    0.83333   0.74999   0.29821   0.00000  Uiso   1.00
Cu430  Cu    0.83333   0.75000   0.20178   0.00000  Uiso   1.00
H431   H     0.99259   0.75001   0.19348   0.00000  Uiso   1.00
H432   H     0.67407   0.74990   0.30652   0.00000  Uiso   1.00
H433   H     0.75167   0.53118   0.24825   0.00000  Uiso   1.00
H434   H     0.91783   0.96748   0.25508   0.00000  Uiso   1.00
H435   H     0.89730   0.70615   0.04333   0.00000  Uiso   1.00
H436   H     0.76887   0.70654   0.45805   0.00000  Uiso   1.00
H437   H     0.89657   0.70593   0.13247   0.00000  Uiso   1.00
H438   H     0.76972   0.70627   0.36891   0.00000  Uiso   1.00
H439   H     0.77045   0.79412   0.11704   0.00000  Uiso   1.00
H440   H     0.89671   0.79362   0.38161   0.00000  Uiso   1.00
N441   N     0.83333   0.75001   0.12935   0.00000  Uiso   1.00
N442   N     0.83333   0.74999   0.37065   0.00000  Uiso   1.00
O443   O     0.83334   0.68572   0.29071   0.00000  Uiso   1.00
O444   O     0.83333   0.81427   0.20929   0.00000  Uiso   1.00
O445   O     0.83334   0.68573   0.20928   0.00000  Uiso   1.00
O446   O     0.83333   0.81427   0.29072   0.00000  Uiso   1.00
O447   O     0.75828   0.74999   0.28132   0.00000  Uiso   1.00
O448   O     0.90839   0.75000   0.21868   0.00000  Uiso   1.00
O449   O     0.75828   0.75000   0.19988   0.00000  Uiso   1.00
O450   O     0.90839   0.75000   0.30011   0.00000  Uiso   1.00
C451   C     0.92063   0.52863   0.31371   0.00000  Uiso   1.00
H452   H     0.90695   0.99769   0.32980   0.00000  Uiso   1.00
H453   H     0.95721   0.52279   0.29867   0.00000  Uiso   1.00
H454   H     0.92880   0.55151   0.34486   0.00000  Uiso   1.00
C455   C     0.75023   0.97307   0.18519   0.00000  Uiso   1.00
H456   H     0.71308   0.97874   0.19927   0.00000  Uiso   1.00
H457   H     0.76460   0.50436   0.17049   0.00000  Uiso   1.00
H458   H     0.74288   0.95090   0.15334   0.00000  Uiso   1.00
C459   C     0.93076   0.62099   0.27819   0.00000  Uiso   1.00
H460   H     0.93596   0.64214   0.24606   0.00000  Uiso   1.00
H461   H     0.92937   0.64232   0.31026   0.00000  Uiso   1.00
H462   H     0.96538   0.59961   0.28547   0.00000  Uiso   1.00
C463   C     0.73739   0.88045   0.21877   0.00000  Uiso   1.00
H464   H     0.73086   0.85885   0.25016   0.00000  Uiso   1.00
H465   H     0.70321   0.90232   0.21115   0.00000  Uiso   1.00
H466   H     0.73938   0.85962   0.18640   0.00000  Uiso   1.00
C467   C     0.73610   0.61801   0.23686   0.00000  Uiso   1.00
H468   H     0.73451   0.63833   0.20292   0.00000  Uiso   1.00
H469   H     0.70304   0.59463   0.23214   0.00000  Uiso   1.00
H470   H     0.73150   0.63992   0.26781   0.00000  Uiso   1.00
C471   C     0.93140   0.88054   0.26625   0.00000  Uiso   1.00
H472   H     0.93169   0.86032   0.30012   0.00000  Uiso   1.00
H473   H     0.93636   0.85845   0.23555   0.00000  Uiso   1.00
H474   H     0.96497   0.90338   0.27162   0.00000  Uiso   1.00
C475   C     0.75702   0.80367   0.01819   0.00000  Uiso   1.00
H476   H     0.75632   0.80590   0.47896   0.00000  Uiso   1.00
O477   O     0.72494   0.82452   0.03659   0.00000  Uiso   1.00
C478   C     0.91014   0.80310   0.48012   0.00000  Uiso   1.00
H479   H     0.91076   0.80541   0.01926   0.00000  Uiso   1.00
O480   O     0.94254   0.82363   0.46109   0.00000  Uiso   1.00
C481   C     0.16686   0.16521   0.75045   0.00000  Uiso   1.00
C482   C     0.16652   0.33479   0.74955   0.00000  Uiso   1.00
C483   C     0.20212   0.22569   0.55833   0.00000  Uiso   1.00
C484   C     0.13091   0.22590   0.94243   0.00000  Uiso   1.00
C485   C     0.20180   0.22560   0.60914   0.00000  Uiso   1.00
C486   C     0.13130   0.22579   0.89162   0.00000  Uiso   1.00
C487   C     0.13104   0.27484   0.60011   0.00000  Uiso   1.00
C488   C     0.20254   0.27455   0.89912   0.00000  Uiso   1.00
C489   C     0.12944   0.27593   0.54865   0.00000  Uiso   1.00
C490   C     0.20410   0.27564   0.95054   0.00000  Uiso   1.00
C491   C     0.16591   0.25086   0.52717   0.00000  Uiso   1.00
C492   C     0.16733   0.25086   0.97279   0.00000  Uiso   1.00
C493   C     0.06787   0.24998   0.73754   0.00000  Uiso   1.00
C494   C     0.26547   0.24999   0.76247   0.00000  Uiso   1.00
C495   C     0.01260   0.24997   0.73063   0.00000  Uiso   1.00
C496   C     0.32073   0.24995   0.76937   0.00000  Uiso   1.00
C497   C     0.21342   0.04851   0.77505   0.00000  Uiso   1.00
C498   C     0.12289   0.45219   0.72426   0.00000  Uiso   1.00
C499   C     0.21429   0.09484   0.76772   0.00000  Uiso   1.00
C500   C     0.12085   0.40585   0.73107   0.00000  Uiso   1.00
C501   C     0.16751   0.11721   0.75238   0.00000  Uiso   1.00
C502   C     0.16680   0.38279   0.74778   0.00000  Uiso   1.00
C503   C     0.12054   0.09412   0.74668   0.00000  Uiso   1.00
C504   C     0.21420   0.40521   0.75523   0.00000  Uiso   1.00
C505   C     0.12141   0.04816   0.75001   0.00000  Uiso   1.00
C506   C     0.21433   0.45118   0.75228   0.00000  Uiso   1.00
C507   C     0.16816   0.02447   0.75604   0.00000  Uiso   1.00
C508   C     0.16808   0.47555   0.74483   0.00000  Uiso   1.00
Cu509  Cu    0.16667   0.24999   0.79821   0.00000  Uiso   1.00
Cu510  Cu    0.16667   0.25000   0.70178   0.00000  Uiso   1.00
H511   H     0.32593   0.25001   0.69348   0.00000  Uiso   1.00
H512   H     0.00741   0.24990   0.80652   0.00000  Uiso   1.00
H513   H     0.08500   0.03118   0.74825   0.00000  Uiso   1.00
H514   H     0.25117   0.46748   0.75508   0.00000  Uiso   1.00
H515   H     0.23063   0.20615   0.54333   0.00000  Uiso   1.00
H516   H     0.10220   0.20654   0.95805   0.00000  Uiso   1.00
H517   H     0.22990   0.20593   0.63247   0.00000  Uiso   1.00
H518   H     0.10305   0.20627   0.86891   0.00000  Uiso   1.00
H519   H     0.10378   0.29412   0.61704   0.00000  Uiso   1.00
H520   H     0.23005   0.29362   0.88161   0.00000  Uiso   1.00
N521   N     0.16667   0.25001   0.62935   0.00000  Uiso   1.00
N522   N     0.16667   0.24999   0.87065   0.00000  Uiso   1.00
O523   O     0.16667   0.18572   0.79071   0.00000  Uiso   1.00
O524   O     0.16666   0.31427   0.70929   0.00000  Uiso   1.00
O525   O     0.16667   0.18573   0.70928   0.00000  Uiso   1.00
O526   O     0.16666   0.31427   0.79072   0.00000  Uiso   1.00
O527   O     0.09161   0.24999   0.78132   0.00000  Uiso   1.00
O528   O     0.24172   0.25000   0.71868   0.00000  Uiso   1.00
O529   O     0.09161   0.25000   0.69988   0.00000  Uiso   1.00
O530   O     0.24172   0.25000   0.80011   0.00000  Uiso   1.00
C531   C     0.25396   0.02863   0.81371   0.00000  Uiso   1.00
H532   H     0.24028   0.49769   0.82980   0.00000  Uiso   1.00
H533   H     0.29055   0.02279   0.79867   0.00000  Uiso   1.00
H534   H     0.26213   0.05151   0.84486   0.00000  Uiso   1.00
C535   C     0.08356   0.47307   0.68519   0.00000  Uiso   1.00
H536   H     0.04641   0.47874   0.69927   0.00000  Uiso   1.00
H537   H     0.09793   0.00436   0.67049   0.00000  Uiso   1.00
H538   H     0.07621   0.45090   0.65334   0.00000  Uiso   1.00
C539   C     0.26409   0.12099   0.77819   0.00000  Uiso   1.00
H540   H     0.26929   0.14214   0.74606   0.00000  Uiso   1.00
H541   H     0.26270   0.14232   0.81026   0.00000  Uiso   1.00
H542   H     0.29871   0.09961   0.78547   0.00000  Uiso   1.00
C543   C     0.07073   0.38045   0.71877   0.00000  Uiso   1.00
H544   H     0.06419   0.35885   0.75016   0.00000  Uiso   1.00
H545   H     0.03654   0.40232   0.71115   0.00000  Uiso   1.00
H546   H     0.07271   0.35962   0.68640   0.00000  Uiso   1.00
C547   C     0.06943   0.11801   0.73686   0.00000  Uiso   1.00
H548   H     0.06784   0.13833   0.70292   0.00000  Uiso   1.00
H549   H     0.03637   0.09463   0.73214   0.00000  Uiso   1.00
H550   H     0.06483   0.13992   0.76781   0.00000  Uiso   1.00
C551   C     0.26473   0.38054   0.76625   0.00000  Uiso   1.00
H552   H     0.26502   0.36032   0.80012   0.00000  Uiso   1.00
H553   H     0.26969   0.35845   0.73555   0.00000  Uiso   1.00
H554   H     0.29830   0.40338   0.77162   0.00000  Uiso   1.00
C555   C     0.09035   0.30367   0.51819   0.00000  Uiso   1.00
H556   H     0.08965   0.30590   0.97896   0.00000  Uiso   1.00
O557   O     0.05827   0.32452   0.53659   0.00000  Uiso   1.00
C558   C     0.24347   0.30310   0.98012   0.00000  Uiso   1.00
H559   H     0.24409   0.30541   0.51926   0.00000  Uiso   1.00
O560   O     0.27587   0.32363   0.96109   0.00000  Uiso   1.00
C561   C     0.50019   0.16521   0.75045   0.00000  Uiso   1.00
C562   C     0.49985   0.33479   0.74955   0.00000  Uiso   1.00
C563   C     0.53545   0.22569   0.55833   0.00000  Uiso   1.00
C564   C     0.46425   0.22590   0.94243   0.00000  Uiso   1.00
C565   C     0.53513   0.22560   0.60914   0.00000  Uiso   1.00
C566   C     0.46463   0.22579   0.89162   0.00000  Uiso   1.00
C567   C     0.46438   0.27484   0.60011   0.00000  Uiso   1.00
C568   C     0.53588   0.27455   0.89912   0.00000  Uiso   1.00
C569   C     0.46278   0.27593   0.54865   0.00000  Uiso   1.00
C570   C     0.53743   0.27564   0.95054   0.00000  Uiso   1.00
C571   C     0.49924   0.25086   0.52717   0.00000  Uiso   1.00
C572   C     0.50066   0.25086   0.97279   0.00000  Uiso   1.00
C573   C     0.40120   0.24998   0.73754   0.00000  Uiso   1.00
C574   C     0.59880   0.24999   0.76247   0.00000  Uiso   1.00
C575   C     0.34594   0.24997   0.73063   0.00000  Uiso   1.00
C576   C     0.65406   0.24995   0.76937   0.00000  Uiso   1.00
C577   C     0.54675   0.04851   0.77505   0.00000  Uiso   1.00
C578   C     0.45623   0.45219   0.72426   0.00000  Uiso   1.00
C579   C     0.54762   0.09484   0.76772   0.00000  Uiso   1.00
C580   C     0.45418   0.40585   0.73107   0.00000  Uiso   1.00
C581   C     0.50085   0.11721   0.75238   0.00000  Uiso   1.00
C582   C     0.50014   0.38279   0.74778   0.00000  Uiso   1.00
C583   C     0.45387   0.09412   0.74668   0.00000  Uiso   1.00
C584   C     0.54753   0.40521   0.75523   0.00000  Uiso   1.00
C585   C     0.45475   0.04816   0.75001   0.00000  Uiso   1.00
C586   C     0.54766   0.45118   0.75228   0.00000  Uiso   1.00
C587   C     0.50150   0.02447   0.75604   0.00000  Uiso   1.00
C588   C     0.50141   0.47555   0.74483   0.00000  Uiso   1.00
Cu589  Cu    0.50000   0.24999   0.79821   0.00000  Uiso   1.00
Cu590  Cu    0.50000   0.25000   0.70178   0.00000  Uiso   1.00
H591   H     0.65926   0.25001   0.69348   0.00000  Uiso   1.00
H592   H     0.34074   0.24990   0.80652   0.00000  Uiso   1.00
H593   H     0.41834   0.03118   0.74825   0.00000  Uiso   1.00
H594   H     0.58450   0.46748   0.75508   0.00000  Uiso   1.00
H595   H     0.56396   0.20615   0.54333   0.00000  Uiso   1.00
H596   H     0.43553   0.20654   0.95805   0.00000  Uiso   1.00
H597   H     0.56324   0.20593   0.63247   0.00000  Uiso   1.00
H598   H     0.43639   0.20627   0.86891   0.00000  Uiso   1.00
H599   H     0.43711   0.29412   0.61704   0.00000  Uiso   1.00
H600   H     0.56338   0.29362   0.88161   0.00000  Uiso   1.00
N601   N     0.50000   0.25001   0.62935   0.00000  Uiso   1.00
N602   N     0.50000   0.24999   0.87065   0.00000  Uiso   1.00
O603   O     0.50000   0.18572   0.79071   0.00000  Uiso   1.00
O604   O     0.50000   0.31427   0.70929   0.00000  Uiso   1.00
O605   O     0.50000   0.18573   0.70928   0.00000  Uiso   1.00
O606   O     0.50000   0.31427   0.79072   0.00000  Uiso   1.00
O607   O     0.42495   0.24999   0.78132   0.00000  Uiso   1.00
O608   O     0.57505   0.25000   0.71868   0.00000  Uiso   1.00
O609   O     0.42495   0.25000   0.69988   0.00000  Uiso   1.00
O610   O     0.57505   0.25000   0.80011   0.00000  Uiso   1.00
C611   C     0.58729   0.02863   0.81371   0.00000  Uiso   1.00
H612   H     0.57362   0.49769   0.82980   0.00000  Uiso   1.00
H613   H     0.62388   0.02279   0.79867   0.00000  Uiso   1.00
H614   H     0.59546   0.05151   0.84486   0.00000  Uiso   1.00
C615   C     0.41689   0.47307   0.68519   0.00000  Uiso   1.00
H616   H     0.37975   0.47874   0.69927   0.00000  Uiso   1.00
H617   H     0.43126   0.00436   0.67049   0.00000  Uiso   1.00
H618   H     0.40955   0.45090   0.65334   0.00000  Uiso   1.00
C619   C     0.59743   0.12099   0.77819   0.00000  Uiso   1.00
H620   H     0.60262   0.14214   0.74606   0.00000  Uiso   1.00
H621   H     0.59603   0.14232   0.81026   0.00000  Uiso   1.00
H622   H     0.63205   0.09961   0.78547   0.00000  Uiso   1.00
C623   C     0.40406   0.38045   0.71877   0.00000  Uiso   1.00
H624   H     0.39752   0.35885   0.75016   0.00000  Uiso   1.00
H625   H     0.36987   0.40232   0.71115   0.00000  Uiso   1.00
H626   H     0.40605   0.35962   0.68640   0.00000  Uiso   1.00
C627   C     0.40277   0.11801   0.73686   0.00000  Uiso   1.00
H628   H     0.40118   0.13833   0.70292   0.00000  Uiso   1.00
H629   H     0.36971   0.09463   0.73214   0.00000  Uiso   1.00
H630   H     0.39817   0.13992   0.76781   0.00000  Uiso   1.00
C631   C     0.59806   0.38054   0.76625   0.00000  Uiso   1.00
H632   H     0.59835   0.36032   0.80012   0.00000  Uiso   1.00
H633   H     0.60303   0.35845   0.73555   0.00000  Uiso   1.00
H634   H     0.63163   0.40338   0.77162   0.00000  Uiso   1.00
C635   C     0.42368   0.30367   0.51819   0.00000  Uiso   1.00
H636   H     0.42298   0.30590   0.97896   0.00000  Uiso   1.00
O637   O     0.39160   0.32452   0.53659   0.00000  Uiso   1.00
C638   C     0.57680   0.30310   0.98012   0.00000  Uiso   1.00
H639   H     0.57743   0.30541   0.51926   0.00000  Uiso   1.00
O640   O     0.60921   0.32363   0.96109   0.00000  Uiso   1.00
C641   C     0.83353   0.16521   0.75045   0.00000  Uiso   1.00
C642   C     0.83318   0.33479   0.74955   0.00000  Uiso   1.00
C643   C     0.86878   0.22569   0.55833   0.00000  Uiso   1.00
C644   C     0.79758   0.22590   0.94243   0.00000  Uiso   1.00
C645   C     0.86847   0.22560   0.60914   0.00000  Uiso   1.00
C646   C     0.79796   0.22579   0.89162   0.00000  Uiso   1.00
C647   C     0.79771   0.27484   0.60011   0.00000  Uiso   1.00
C648   C     0.86921   0.27455   0.89912   0.00000  Uiso   1.00
C649   C     0.79611   0.27593   0.54865   0.00000  Uiso   1.00
C650   C     0.87076   0.27564   0.95054   0.00000  Uiso   1.00
C651   C     0.83257   0.25086   0.52717   0.00000  Uiso   1.00
C652   C     0.83400   0.25086   0.97279   0.00000  Uiso   1.00
C653   C     0.73453   0.24998   0.73754   0.00000  Uiso   1.00
C654   C     0.93213   0.24999   0.76247   0.00000  Uiso   1.00
C655   C     0.67927   0.24997   0.73063   0.00000  Uiso   1.00
C656   C     0.98740   0.24995   0.76937   0.00000  Uiso   1.00
C657   C     0.88008   0.04851   0.77505   0.00000  Uiso   1.00
C658   C     0.78956   0.45219   0.72426   0.00000  Uiso   1.00
C659   C     0.88095   0.09484   0.76772   0.00000  Uiso   1.00
C660   C     0.78751   0.40585   0.73107   0.00000  Uiso   1.00
C661   C     0.83418   0.11721   0.75238   0.00000  Uiso   1.00
C662   C     0.83347   0.38279   0.74778   0.00000  Uiso   1.00
C663   C     0.78721   0.09412   0.74668   0.00000  Uiso   1.00
C664   C     0.88087   0.40521   0.75523   0.00000  Uiso   1.00
C665   C     0.78808   0.04816   0.75001   0.00000  Uiso   1.00
C666   C     0.88100   0.45118   0.75228   0.00000  Uiso   1.00
C667   C     0.83483   0.02447   0.75604   0.00000  Uiso   1.00
C668   C     0.83474   0.47555   0.74483   0.00000  Uiso   1.00
Cu669  Cu    0.83333   0.24999   0.79821   0.00000  Uiso   1.00
Cu670  Cu    0.83333   0.25000   0.70178   0.00000  Uiso   1.00
H671   H     0.99259   0.25001   0.69348   0.00000  Uiso   1.00
H672   H     0.67407   0.24990   0.80652   0.00000  Uiso   1.00
H673   H     0.75167   0.03118   0.74825   0.00000  Uiso   1.00
H674   H     0.91783   0.46748   0.75508   0.00000  Uiso   1.00
H675   H     0.89730   0.20615   0.54333   0.00000  Uiso   1.00
H676   H     0.76887   0.20654   0.95805   0.00000  Uiso   1.00
H677   H     0.89657   0.20593   0.63247   0.00000  Uiso   1.00
H678   H     0.76972   0.20627   0.86891   0.00000  Uiso   1.00
H679   H     0.77045   0.29412   0.61704   0.00000  Uiso   1.00
H680   H     0.89671   0.29362   0.88161   0.00000  Uiso   1.00
N681   N     0.83333   0.25001   0.62935   0.00000  Uiso   1.00
N682   N     0.83333   0.24999   0.87065   0.00000  Uiso   1.00
O683   O     0.83334   0.18572   0.79071   0.00000  Uiso   1.00
O684   O     0.83333   0.31427   0.70929   0.00000  Uiso   1.00
O685   O     0.83334   0.18573   0.70928   0.00000  Uiso   1.00
O686   O     0.83333   0.31427   0.79072   0.00000  Uiso   1.00
O687   O     0.75828   0.24999   0.78132   0.00000  Uiso   1.00
O688   O     0.90839   0.25000   0.71868   0.00000  Uiso   1.00
O689   O     0.75828   0.25000   0.69988   0.00000  Uiso   1.00
O690   O     0.90839   0.25000   0.80011   0.00000  Uiso   1.00
C691   C     0.92063   0.02863   0.81371   0.00000  Uiso   1.00
H692   H     0.90695   0.49769   0.82980   0.00000  Uiso   1.00
H693   H     0.95721   0.02279   0.79867   0.00000  Uiso   1.00
H694   H     0.92880   0.05151   0.84486   0.00000  Uiso   1.00
C695   C     0.75023   0.47307   0.68519   0.00000  Uiso   1.00
H696   H     0.71308   0.47874   0.69927   0.00000  Uiso   1.00
H697   H     0.76460   0.00436   0.67049   0.00000  Uiso   1.00
H698   H     0.74288   0.45090   0.65334   0.00000  Uiso   1.00
C699   C     0.93076   0.12099   0.77819   0.00000  Uiso   1.00
H700   H     0.93596   0.14214   0.74606   0.00000  Uiso   1.00
H701   H     0.92937   0.14232   0.81026   0.00000  Uiso   1.00
H702   H     0.96538   0.09961   0.78547   0.00000  Uiso   1.00
C703   C     0.73739   0.38045   0.71877   0.00000  Uiso   1.00
H704   H     0.73086   0.35885   0.75016   0.00000  Uiso   1.00
H705   H     0.70321   0.40232   0.71115   0.00000  Uiso   1.00
H706   H     0.73938   0.35962   0.68640   0.00000  Uiso   1.00
C707   C     0.73610   0.11801   0.73686   0.00000  Uiso   1.00
H708   H     0.73451   0.13833   0.70292   0.00000  Uiso   1.00
H709   H     0.70304   0.09463   0.73214   0.00000  Uiso   1.00
H710   H     0.73150   0.13992   0.76781   0.00000  Uiso   1.00
C711   C     0.93140   0.38054   0.76625   0.00000  Uiso   1.00
H712   H     0.93169   0.36032   0.80012   0.00000  Uiso   1.00
H713   H     0.93636   0.35845   0.73555   0.00000  Uiso   1.00
H714   H     0.96497   0.40338   0.77162   0.00000  Uiso   1.00
C715   C     0.75702   0.30367   0.51819   0.00000  Uiso   1.00
H716   H     0.75632   0.30590   0.97896   0.00000  Uiso   1.00
O717   O     0.72494   0.32452   0.53659   0.00000  Uiso   1.00
C718   C     0.91014   0.30310   0.98012   0.00000  Uiso   1.00
H719   H     0.91076   0.30541   0.51926   0.00000  Uiso   1.00
O720   O     0.94254   0.32363   0.96109   0.00000  Uiso   1.00
C721   C     0.16686   0.66521   0.75045   0.00000  Uiso   1.00
C722   C     0.16652   0.83479   0.74955   0.00000  Uiso   1.00
C723   C     0.20212   0.72569   0.55833   0.00000  Uiso   1.00
C724   C     0.13091   0.72590   0.94243   0.00000  Uiso   1.00
C725   C     0.20180   0.72560   0.60914   0.00000  Uiso   1.00
C726   C     0.13130   0.72579   0.89162   0.00000  Uiso   1.00
C727   C     0.13104   0.77484   0.60011   0.00000  Uiso   1.00
C728   C     0.20254   0.77455   0.89912   0.00000  Uiso   1.00
C729   C     0.12944   0.77593   0.54865   0.00000  Uiso   1.00
C730   C     0.20410   0.77564   0.95054   0.00000  Uiso   1.00
C731   C     0.16591   0.75086   0.52717   0.00000  Uiso   1.00
C732   C     0.16733   0.75086   0.97279   0.00000  Uiso   1.00
C733   C     0.06787   0.74998   0.73754   0.00000  Uiso   1.00
C734   C     0.26547   0.74999   0.76247   0.00000  Uiso   1.00
C735   C     0.01260   0.74997   0.73063   0.00000  Uiso   1.00
C736   C     0.32073   0.74995   0.76937   0.00000  Uiso   1.00
C737   C     0.21342   0.54851   0.77505   0.00000  Uiso   1.00
C738   C     0.12289   0.95219   0.72426   0.00000  Uiso   1.00
C739   C     0.21429   0.59484   0.76772   0.00000  Uiso   1.00
C740   C     0.12085   0.90585   0.73107   0.00000  Uiso   1.00
C741   C     0.16751   0.61721   0.75238   0.00000  Uiso   1.00
C742   C     0.16680   0.88279   0.74778   0.00000  Uiso   1.00
C743   C     0.12054   0.59412   0.74668   0.00000  Uiso   1.00
C744   C     0.21420   0.90521   0.75523   0.00000  Uiso   1.00
C745   C     0.12141   0.54816   0.75001   0.00000  Uiso   1.00
C746   C     0.21433   0.95118   0.75228   0.00000  Uiso   1.00
C747   C     0.16816   0.52447   0.75604   0.00000  Uiso   1.00
C748   C     0.16808   0.97555   0.74483   0.00000  Uiso   1.00
Cu749  Cu    0.16667   0.74999   0.79821   0.00000  Uiso   1.00
Cu750  Cu    0.16667   0.75000   0.70178   0.00000  Uiso   1.00
H751   H     0.32593   0.75001   0.69348   0.00000  Uiso   1.00
H752   H     0.00741   0.74990   0.80652   0.00000  Uiso   1.00
H753   H     0.08500   0.53118   0.74825   0.00000  Uiso   1.00
H754   H     0.25117   0.96748   0.75508   0.00000  Uiso   1.00
H755   H     0.23063   0.70615   0.54333   0.00000  Uiso   1.00
H756   H     0.10220   0.70654   0.95805   0.00000  Uiso   1.00
H757   H     0.22990   0.70593   0.63247   0.00000  Uiso   1.00
H758   H     0.10305   0.70627   0.86891   0.00000  Uiso   1.00
H759   H     0.10378   0.79412   0.61704   0.00000  Uiso   1.00
H760   H     0.23005   0.79362   0.88161   0.00000  Uiso   1.00
N761   N     0.16667   0.75001   0.62935   0.00000  Uiso   1.00
N762   N     0.16667   0.74999   0.87065   0.00000  Uiso   1.00
O763   O     0.16667   0.68572   0.79071   0.00000  Uiso   1.00
O764   O     0.16666   0.81427   0.70929   0.00000  Uiso   1.00
O765   O     0.16667   0.68573   0.70928   0.00000  Uiso   1.00
O766   O     0.16666   0.81427   0.79072   0.00000  Uiso   1.00
O767   O     0.09161   0.74999   0.78132   0.00000  Uiso   1.00
O768   O     0.24172   0.75000   0.71868   0.00000  Uiso   1.00
O769   O     0.09161   0.75000   0.69988   0.00000  Uiso   1.00
O770   O     0.24172   0.75000   0.80011   0.00000  Uiso   1.00
C771   C     0.25396   0.52863   0.81371   0.00000  Uiso   1.00
H772   H     0.24028   0.99769   0.82980   0.00000  Uiso   1.00
H773   H     0.29055   0.52279   0.79867   0.00000  Uiso   1.00
H774   H     0.26213   0.55151   0.84486   0.00000  Uiso   1.00
C775   C     0.08356   0.97307   0.68519   0.00000  Uiso   1.00
H776   H     0.04641   0.97874   0.69927   0.00000  Uiso   1.00
H777   H     0.09793   0.50436   0.67049   0.00000  Uiso   1.00
H778   H     0.07621   0.95090   0.65334   0.00000  Uiso   1.00
C779   C     0.26409   0.62099   0.77819   0.00000  Uiso   1.00
H780   H     0.26929   0.64214   0.74606   0.00000  Uiso   1.00
H781   H     0.26270   0.64232   0.81026   0.00000  Uiso   1.00
H782   H     0.29871   0.59961   0.78547   0.00000  Uiso   1.00
C783   C     0.07073   0.88045   0.71877   0.00000  Uiso   1.00
H784   H     0.06419   0.85885   0.75016   0.00000  Uiso   1.00
H785   H     0.03654   0.90232   0.71115   0.00000  Uiso   1.00
H786   H     0.07271   0.85962   0.68640   0.00000  Uiso   1.00
C787   C     0.06943   0.61801   0.73686   0.00000  Uiso   1.00
H788   H     0.06784   0.63833   0.70292   0.00000  Uiso   1.00
H789   H     0.03637   0.59463   0.73214   0.00000  Uiso   1.00
H790   H     0.06483   0.63992   0.76781   0.00000  Uiso   1.00
C791   C     0.26473   0.88054   0.76625   0.00000  Uiso   1.00
H792   H     0.26502   0.86032   0.80012   0.00000  Uiso   1.00
H793   H     0.26969   0.85845   0.73555   0.00000  Uiso   1.00
H794   H     0.29830   0.90338   0.77162   0.00000  Uiso   1.00
C795   C     0.09035   0.80367   0.51819   0.00000  Uiso   1.00
H796   H     0.08965   0.80590   0.97896   0.00000  Uiso   1.00
O797   O     0.05827   0.82452   0.53659   0.00000  Uiso   1.00
C798   C     0.24347   0.80310   0.98012   0.00000  Uiso   1.00
H799   H     0.24409   0.80541   0.51926   0.00000  Uiso   1.00
O800   O     0.27587   0.82363   0.96109   0.00000  Uiso   1.00
C801   C     0.50019   0.66521   0.75045   0.00000  Uiso   1.00
C802   C     0.49985   0.83479   0.74955   0.00000  Uiso   1.00
C803   C     0.53545   0.72569   0.55833   0.00000  Uiso   1.00
C804   C     0.46425   0.72590   0.94243   0.00000  Uiso   1.00
C805   C     0.53513   0.72560   0.60914   0.00000  Uiso   1.00
C806   C     0.46463   0.72579   0.89162   0.00000  Uiso   1.00
C807   C     0.46438   0.77484   0.60011   0.00000  Uiso   1.00
C808   C     0.53588   0.77455   0.89912   0.00000  Uiso   1.00
C809   C     0.46278   0.77593   0.54865   0.00000  Uiso   1.00
C810   C     0.53743   0.77564   0.95054   0.00000  Uiso   1.00
C811   C     0.49924   0.75086   0.52717   0.00000  Uiso   1.00
C812   C     0.50066   0.75086   0.97279   0.00000  Uiso   1.00
C813   C     0.40120   0.74998   0.73754   0.00000  Uiso   1.00
C814   C     0.59880   0.74999   0.76247   0.00000  Uiso   1.00
C815   C     0.34594   0.74997   0.73063   0.00000  Uiso   1.00
C816   C     0.65406   0.74995   0.76937   0.00000  Uiso   1.00
C817   C     0.54675   0.54851   0.77505   0.00000  Uiso   1.00
C818   C     0.45623   0.95219   0.72426   0.00000  Uiso   1.00
C819   C     0.54762   0.59484   0.76772   0.00000  Uiso   1.00
C820   C     0.45418   0.90585   0.73107   0.00000  Uiso   1.00
C821   C     0.50085   0.61721   0.75238   0.00000  Uiso   1.00
C822   C     0.50014   0.88279   0.74778   0.00000  Uiso   1.00
C823   C     0.45387   0.59412   0.74668   0.00000  Uiso   1.00
C824   C     0.54753   0.90521   0.75523   0.00000  Uiso   1.00
C825   C     0.45475   0.54816   0.75001   0.00000  Uiso   1.00
C826   C     0.54766   0.95118   0.75228   0.00000  Uiso   1.00
C827   C     0.50150   0.52447   0.75604   0.00000  Uiso   1.00
C828   C     0.50141   0.97555   0.74483   0.00000  Uiso   1.00
Cu829  Cu    0.50000   0.74999   0.79821   0.00000  Uiso   1.00
Cu830  Cu    0.50000   0.75000   0.70178   0.00000  Uiso   1.00
H831   H     0.65926   0.75001   0.69348   0.00000  Uiso   1.00
H832   H     0.34074   0.74990   0.80652   0.00000  Uiso   1.00
H833   H     0.41834   0.53118   0.74825   0.00000  Uiso   1.00
H834   H     0.58450   0.96748   0.75508   0.00000  Uiso   1.00
H835   H     0.56396   0.70615   0.54333   0.00000  Uiso   1.00
H836   H     0.43553   0.70654   0.95805   0.00000  Uiso   1.00
H837   H     0.56324   0.70593   0.63247   0.00000  Uiso   1.00
H838   H     0.43639   0.70627   0.86891   0.00000  Uiso   1.00
H839   H     0.43711   0.79412   0.61704   0.00000  Uiso   1.00
H840   H     0.56338   0.79362   0.88161   0.00000  Uiso   1.00
N841   N     0.50000   0.75001   0.62935   0.00000  Uiso   1.00
N842   N     0.50000   0.74999   0.87065   0.00000  Uiso   1.00
O843   O     0.50000   0.68572   0.79071   0.00000  Uiso   1.00
O844   O     0.50000   0.81427   0.70929   0.00000  Uiso   1.00
O845   O     0.50000   0.68573   0.70928   0.00000  Uiso   1.00
O846   O     0.50000   0.81427   0.79072   0.00000  Uiso   1.00
O847   O     0.42495   0.74999   0.78132   0.00000  Uiso   1.00
O848   O     0.57505   0.75000   0.71868   0.00000  Uiso   1.00
O849   O     0.42495   0.75000   0.69988   0.00000  Uiso   1.00
O850   O     0.57505   0.75000   0.80011   0.00000  Uiso   1.00
C851   C     0.58729   0.52863   0.81371   0.00000  Uiso   1.00
H852   H     0.57362   0.99769   0.82980   0.00000  Uiso   1.00
H853   H     0.62388   0.52279   0.79867   0.00000  Uiso   1.00
H854   H     0.59546   0.55151   0.84486   0.00000  Uiso   1.00
C855   C     0.41689   0.97307   0.68519   0.00000  Uiso   1.00
H856   H     0.37975   0.97874   0.69927   0.00000  Uiso   1.00
H857   H     0.43126   0.50436   0.67049   0.00000  Uiso   1.00
H858   H     0.40955   0.95090   0.65334   0.00000  Uiso   1.00
C859   C     0.59743   0.62099   0.77819   0.00000  Uiso   1.00
H860   H     0.60262   0.64214   0.74606   0.00000  Uiso   1.00
H861   H     0.59603   0.64232   0.81026   0.00000  Uiso   1.00
H862   H     0.63205   0.59961   0.78547   0.00000  Uiso   1.00
C863   C     0.40406   0.88045   0.71877   0.00000  Uiso   1.00
H864   H     0.39752   0.85885   0.75016   0.00000  Uiso   1.00
H865   H     0.36987   0.90232   0.71115   0.00000  Uiso   1.00
H866   H     0.40605   0.85962   0.68640   0.00000  Uiso   1.00
C867   C     0.40277   0.61801   0.73686   0.00000  Uiso   1.00
H868   H     0.40118   0.63833   0.70292   0.00000  Uiso   1.00
H869   H     0.36971   0.59463   0.73214   0.00000  Uiso   1.00
H870   H     0.39817   0.63992   0.76781   0.00000  Uiso   1.00
C871   C     0.59806   0.88054   0.76625   0.00000  Uiso   1.00
H872   H     0.59835   0.86032   0.80012   0.00000  Uiso   1.00
H873   H     0.60303   0.85845   0.73555   0.00000  Uiso   1.00
H874   H     0.63163   0.90338   0.77162   0.00000  Uiso   1.00
C875   C     0.42368   0.80367   0.51819   0.00000  Uiso   1.00
H876   H     0.42298   0.80590   0.97896   0.00000  Uiso   1.00
O877   O     0.39160   0.82452   0.53659   0.00000  Uiso   1.00
C878   C     0.57680   0.80310   0.98012   0.00000  Uiso   1.00
H879   H     0.57743   0.80541   0.51926   0.00000  Uiso   1.00
O880   O     0.60921   0.82363   0.96109   0.00000  Uiso   1.00
C881   C     0.83353   0.66521   0.75045   0.00000  Uiso   1.00
C882   C     0.83318   0.83479   0.74955   0.00000  Uiso   1.00
C883   C     0.86878   0.72569   0.55833   0.00000  Uiso   1.00
C884   C     0.79758   0.72590   0.94243   0.00000  Uiso   1.00
C885   C     0.86847   0.72560   0.60914   0.00000  Uiso   1.00
C886   C     0.79796   0.72579   0.89162   0.00000  Uiso   1.00
C887   C     0.79771   0.77484   0.60011   0.00000  Uiso   1.00
C888   C     0.86921   0.77455   0.89912   0.00000  Uiso   1.00
C889   C     0.79611   0.77593   0.54865   0.00000  Uiso   1.00
C890   C     0.87076   0.77564   0.95054   0.00000  Uiso   1.00
C891   C     0.83257   0.75086   0.52717   0.00000  Uiso   1.00
C892   C     0.83400   0.75086   0.97279   0.00000  Uiso   1.00
C893   C     0.73453   0.74998   0.73754   0.00000  Uiso   1.00
C894   C     0.93213   0.74999   0.76247   0.00000  Uiso   1.00
C895   C     0.67927   0.74997   0.73063   0.00000  Uiso   1.00
C896   C     0.98740   0.74995   0.76937   0.00000  Uiso   1.00
C897   C     0.88008   0.54851   0.77505   0.00000  Uiso   1.00
C898   C     0.78956   0.95219   0.72426   0.00000  Uiso   1.00
C899   C     0.88095   0.59484   0.76772   0.00000  Uiso   1.00
C900   C     0.78751   0.90585   0.73107   0.00000  Uiso   1.00
C901   C     0.83418   0.61721   0.75238   0.00000  Uiso   1.00
C902   C     0.83347   0.88279   0.74778   0.00000  Uiso   1.00
C903   C     0.78721   0.59412   0.74668   0.00000  Uiso   1.00
C904   C     0.88087   0.90521   0.75523   0.00000  Uiso   1.00
C905   C     0.78808   0.54816   0.75001   0.00000  Uiso   1.00
C906   C     0.88100   0.95118   0.75228   0.00000  Uiso   1.00
C907   C     0.83483   0.52447   0.75604   0.00000  Uiso   1.00
C908   C     0.83474   0.97555   0.74483   0.00000  Uiso   1.00
Cu909  Cu    0.83333   0.74999   0.79821   0.00000  Uiso   1.00
Cu910  Cu    0.83333   0.75000   0.70178   0.00000  Uiso   1.00
H911   H     0.99259   0.75001   0.69348   0.00000  Uiso   1.00
H912   H     0.67407   0.74990   0.80652   0.00000  Uiso   1.00
H913   H     0.75167   0.53118   0.74825   0.00000  Uiso   1.00
H914   H     0.91783   0.96748   0.75508   0.00000  Uiso   1.00
H915   H     0.89730   0.70615   0.54333   0.00000  Uiso   1.00
H916   H     0.76887   0.70654   0.95805   0.00000  Uiso   1.00
H917   H     0.89657   0.70593   0.63247   0.00000  Uiso   1.00
H918   H     0.76972   0.70627   0.86891   0.00000  Uiso   1.00
H919   H     0.77045   0.79412   0.61704   0.00000  Uiso   1.00
H920   H     0.89671   0.79362   0.88161   0.00000  Uiso   1.00
N921   N     0.83333   0.75001   0.62935   0.00000  Uiso   1.00
N922   N     0.83333   0.74999   0.87065   0.00000  Uiso   1.00
O923   O     0.83334   0.68572   0.79071   0.00000  Uiso   1.00
O924   O     0.83333   0.81427   0.70929   0.00000  Uiso   1.00
O925   O     0.83334   0.68573   0.70928   0.00000  Uiso   1.00
O926   O     0.83333   0.81427   0.79072   0.00000  Uiso   1.00
O927   O     0.75828   0.74999   0.78132   0.00000  Uiso   1.00
O928   O     0.90839   0.75000   0.71868   0.00000  Uiso   1.00
O929   O     0.75828   0.75000   0.69988   0.00000  Uiso   1.00
O930   O     0.90839   0.75000   0.80011   0.00000  Uiso   1.00
C931   C     0.92063   0.52863   0.81371   0.00000  Uiso   1.00
H932   H     0.90695   0.99769   0.82980   0.00000  Uiso   1.00
H933   H     0.95721   0.52279   0.79867   0.00000  Uiso   1.00
H934   H     0.92880   0.55151   0.84486   0.00000  Uiso   1.00
C935   C     0.75023   0.97307   0.68519   0.00000  Uiso   1.00
H936   H     0.71308   0.97874   0.69927   0.00000  Uiso   1.00
H937   H     0.76460   0.50436   0.67049   0.00000  Uiso   1.00
H938   H     0.74288   0.95090   0.65334   0.00000  Uiso   1.00
C939   C     0.93076   0.62099   0.77819   0.00000  Uiso   1.00
H940   H     0.93596   0.64214   0.74606   0.00000  Uiso   1.00
H941   H     0.92937   0.64232   0.81026   0.00000  Uiso   1.00
H942   H     0.96538   0.59961   0.78547   0.00000  Uiso   1.00
C943   C     0.73739   0.88045   0.71877   0.00000  Uiso   1.00
H944   H     0.73086   0.85885   0.75016   0.00000  Uiso   1.00
H945   H     0.70321   0.90232   0.71115   0.00000  Uiso   1.00
H946   H     0.73938   0.85962   0.68640   0.00000  Uiso   1.00
C947   C     0.73610   0.61801   0.73686   0.00000  Uiso   1.00
H948   H     0.73451   0.63833   0.70292   0.00000  Uiso   1.00
H949   H     0.70304   0.59463   0.73214   0.00000  Uiso   1.00
H950   H     0.73150   0.63992   0.76781   0.00000  Uiso   1.00
C951   C     0.93140   0.88054   0.76625   0.00000  Uiso   1.00
H952   H     0.93169   0.86032   0.80012   0.00000  Uiso   1.00
H953   H     0.93636   0.85845   0.73555   0.00000  Uiso   1.00
H954   H     0.96497   0.90338   0.77162   0.00000  Uiso   1.00
C955   C     0.75702   0.80367   0.51819   0.00000  Uiso   1.00
H956   H     0.75632   0.80590   0.97896   0.00000  Uiso   1.00
O957   O     0.72494   0.82452   0.53659   0.00000  Uiso   1.00
C958   C     0.91014   0.80310   0.98012   0.00000  Uiso   1.00
H959   H     0.91076   0.80541   0.51926   0.00000  Uiso   1.00
O960   O     0.94254   0.82363   0.96109   0.00000  Uiso   1.00
loop_
_geom_bond_atom_site_label_1
_geom_bond_atom_site_label_2
_geom_bond_distance
_geom_bond_site_symmetry_2
_ccdc_geom_bond_type
C1     C21     1.452   .     S
C1     O43     1.284   .     A
C1     O45     1.288   .     A
C2     O46     1.288   .     A
C2     O44     1.284   .     A
C2     C22     1.452   .     S
C3     H35     1.083   .     S
C3     C5      1.407   .     A
C3     C11     1.406   .     A
C4     H36     1.083   .     S
C4     C12     1.406   .     A
C4     C6      1.408   .     A
C5     H37     1.082   .     S
C5     N41     1.364   .     A
C6     H38     1.082   .     S
C6     N42     1.364   .     A
C7     C9      1.419   .     A
C7     N41     1.365   .     A
C7     H39     1.082   .     S
C8     N42     1.365   .     A
C8     H40     1.082   .     S
C8     C10     1.419   .     A
C9     C11     1.418   .     A
C9     C75     1.484   .     S
C10    C78     1.485   .     S
C10    C12     1.418   .     A
C11    C492    1.510   1_554 S
C12    C491    1.510   .     S
C13    O49     1.285   .     A
C13    C15     1.431   .     S
C13    O47     1.283   .     A
C14    O48     1.283   .     A
C14    C16     1.431   .     S
C14    O50     1.285   .     A
C15    C176    1.334   1_455 S
C15    H191    1.087   1_455 S
C16    C95     1.334   .     S
C16    H112    1.087   .     S
C17    C51     1.517   .     S
C17    C27     1.429   .     A
C17    C19     1.413   .     A
C18    C20     1.413   .     A
C18    C28     1.429   .     A
C18    C55     1.517   .     S
C19    C21     1.409   .     A
C19    C59     1.518   .     S
C20    C22     1.409   .     A
C20    C63     1.518   .     S
C21    C23     1.403   .     A
C22    C24     1.403   .     A
C23    C67     1.510   .     S
C23    C25     1.391   .     A
C24    C26     1.392   .     A
C24    C71     1.511   .     S
C25    C27     1.407   .     A
C25    H33     1.076   .     S
C26    H34     1.075   .     S
C26    C28     1.407   .     A
C27    C268    1.517   1_545 S
C28    C267    1.517   .     S
Cu29   N42     2.005   .     S
Cu29   O47     1.954   .     S
Cu29   O43     1.958   .     S
Cu29   O50     1.956   .     S
Cu29   Cu30    2.669   .     S
Cu29   O46     1.952   .     S
Cu30   O45     1.952   .     S
Cu30   O48     1.954   .     S
Cu30   N41     2.005   .     S
Cu30   O44     1.958   .     S
Cu30   O49     1.956   .     S
H31    C95     1.087   .     S
H32    C176    1.087   1_455 S
C51    H54     1.111   .     S
C51    H53     1.110   .     S
C51    H292    1.109   1_545 S
H52    C291    1.109   .     S
C55    H56     1.110   .     S
C55    H58     1.111   .     S
C55    H297    1.109   .     S
H57    C295    1.109   1_545 S
C59    H60     1.111   .     S
C59    H61     1.110   .     S
C59    H62     1.108   .     S
C63    H65     1.108   .     S
C63    H66     1.110   .     S
C63    H64     1.111   .     S
C67    H68     1.110   .     S
C67    H69     1.110   .     S
C67    H70     1.111   .     S
C71    H73     1.111   .     S
C71    H74     1.111   .     S
C71    H72     1.110   .     S
C75    O77     1.221   .     D
C75    H556    1.084   1_554 S
H76    C555    1.084   .     S
C78    O80     1.221   .     D
C78    H559    1.084   .     S
H79    C558    1.084   1_554 S
C81    C101    1.452   .     S
C81    O123    1.284   .     A
C81    O125    1.288   .     A
C82    O126    1.288   .     A
C82    O124    1.284   .     A
C82    C102    1.452   .     S
C83    H115    1.083   .     S
C83    C85     1.407   .     A
C83    C91     1.406   .     A
C84    H116    1.083   .     S
C84    C92     1.406   .     A
C84    C86     1.408   .     A
C85    H117    1.082   .     S
C85    N121    1.364   .     A
C86    H118    1.082   .     S
C86    N122    1.364   .     A
C87    C89     1.419   .     A
C87    N121    1.365   .     A
C87    H119    1.082   .     S
C88    N122    1.365   .     A
C88    H120    1.082   .     S
C88    C90     1.419   .     A
C89    C91     1.418   .     A
C89    C155    1.484   .     S
C90    C158    1.485   .     S
C90    C92     1.418   .     A
C91    C572    1.510   1_554 S
C92    C571    1.510   .     S
C93    O129    1.285   .     A
C93    C95     1.431   .     S
C93    O127    1.283   .     A
C94    O128    1.283   .     A
C94    C96     1.431   .     S
C94    O130    1.285   .     A
C96    C175    1.334   .     S
C96    H192    1.087   .     S
C97    C131    1.517   .     S
C97    C107    1.429   .     A
C97    C99     1.413   .     A
C98    C100    1.413   .     A
C98    C108    1.429   .     A
C98    C135    1.517   .     S
C99    C101    1.409   .     A
C99    C139    1.518   .     S
C100   C102    1.409   .     A
C100   C143    1.518   .     S
C101   C103    1.403   .     A
C102   C104    1.403   .     A
C103   C147    1.510   .     S
C103   C105    1.391   .     A
C104   C106    1.392   .     A
C104   C151    1.511   .     S
C105   C107    1.407   .     A
C105   H113    1.076   .     S
C106   H114    1.075   .     S
C106   C108    1.407   .     A
C107   C348    1.517   1_545 S
C108   C347    1.517   .     S
Cu109  N122    2.005   .     S
Cu109  O127    1.954   .     S
Cu109  O123    1.958   .     S
Cu109  O130    1.956   .     S
Cu109  Cu110   2.669   .     S
Cu109  O126    1.952   .     S
Cu110  O125    1.952   .     S
Cu110  O128    1.954   .     S
Cu110  N121    2.005   .     S
Cu110  O124    1.958   .     S
Cu110  O129    1.956   .     S
H111   C175    1.087   .     S
C131   H134    1.111   .     S
C131   H133    1.110   .     S
C131   H372    1.109   1_545 S
H132   C371    1.109   .     S
C135   H136    1.110   .     S
C135   H138    1.111   .     S
C135   H377    1.109   .     S
H137   C375    1.109   1_545 S
C139   H140    1.111   .     S
C139   H141    1.110   .     S
C139   H142    1.108   .     S
C143   H145    1.108   .     S
C143   H146    1.110   .     S
C143   H144    1.111   .     S
C147   H148    1.110   .     S
C147   H149    1.110   .     S
C147   H150    1.111   .     S
C151   H153    1.111   .     S
C151   H154    1.111   .     S
C151   H152    1.110   .     S
C155   O157    1.221   .     D
C155   H636    1.084   1_554 S
H156   C635    1.084   .     S
C158   O160    1.221   .     D
C158   H639    1.084   .     S
H159   C638    1.084   1_554 S
C161   C181    1.452   .     S
C161   O203    1.284   .     A
C161   O205    1.288   .     A
C162   O206    1.288   .     A
C162   O204    1.284   .     A
C162   C182    1.452   .     S
C163   H195    1.083   .     S
C163   C165    1.407   .     A
C163   C171    1.406   .     A
C164   H196    1.083   .     S
C164   C172    1.406   .     A
C164   C166    1.408   .     A
C165   H197    1.082   .     S
C165   N201    1.364   .     A
C166   H198    1.082   .     S
C166   N202    1.364   .     A
C167   C169    1.419   .     A
C167   N201    1.365   .     A
C167   H199    1.082   .     S
C168   N202    1.365   .     A
C168   H200    1.082   .     S
C168   C170    1.419   .     A
C169   C171    1.418   .     A
C169   C235    1.484   .     S
C170   C238    1.485   .     S
C170   C172    1.418   .     A
C171   C652    1.510   1_554 S
C172   C651    1.510   .     S
C173   O209    1.285   .     A
C173   C175    1.431   .     S
C173   O207    1.283   .     A
C174   O208    1.283   .     A
C174   C176    1.431   .     S
C174   O210    1.285   .     A
C176   C15     1.334   1_655 S
C176   H32     1.087   1_655 S
C177   C211    1.517   .     S
C177   C187    1.429   .     A
C177   C179    1.413   .     A
C178   C180    1.413   .     A
C178   C188    1.429   .     A
C178   C215    1.517   .     S
C179   C181    1.409   .     A
C179   C219    1.518   .     S
C180   C182    1.409   .     A
C180   C223    1.518   .     S
C181   C183    1.403   .     A
C182   C184    1.403   .     A
C183   C227    1.510   .     S
C183   C185    1.391   .     A
C184   C186    1.392   .     A
C184   C231    1.511   .     S
C185   C187    1.407   .     A
C185   H193    1.076   .     S
C186   H194    1.075   .     S
C186   C188    1.407   .     A
C187   C428    1.517   1_545 S
C188   C427    1.517   .     S
Cu189  N202    2.005   .     S
Cu189  O207    1.954   .     S
Cu189  O203    1.958   .     S
Cu189  O210    1.956   .     S
Cu189  Cu190   2.669   .     S
Cu189  O206    1.952   .     S
Cu190  O205    1.952   .     S
Cu190  O208    1.954   .     S
Cu190  N201    2.005   .     S
Cu190  O204    1.958   .     S
Cu190  O209    1.956   .     S
H191   C15     1.087   1_655 S
C211   H214    1.111   .     S
C211   H213    1.110   .     S
C211   H452    1.109   1_545 S
H212   C451    1.109   .     S
C215   H216    1.110   .     S
C215   H218    1.111   .     S
C215   H457    1.109   .     S
H217   C455    1.109   1_545 S
C219   H220    1.111   .     S
C219   H221    1.110   .     S
C219   H222    1.108   .     S
C223   H225    1.108   .     S
C223   H226    1.110   .     S
C223   H224    1.111   .     S
C227   H228    1.110   .     S
C227   H229    1.110   .     S
C227   H230    1.111   .     S
C231   H233    1.111   .     S
C231   H234    1.111   .     S
C231   H232    1.110   .     S
C235   O237    1.221   .     D
C235   H716    1.084   1_554 S
H236   C715    1.084   .     S
C238   O240    1.221   .     D
C238   H719    1.084   .     S
H239   C718    1.084   1_554 S
C241   C261    1.452   .     S
C241   O283    1.284   .     A
C241   O285    1.288   .     A
C242   O286    1.288   .     A
C242   O284    1.284   .     A
C242   C262    1.452   .     S
C243   H275    1.083   .     S
C243   C245    1.407   .     A
C243   C251    1.406   .     A
C244   H276    1.083   .     S
C244   C252    1.406   .     A
C244   C246    1.408   .     A
C245   H277    1.082   .     S
C245   N281    1.364   .     A
C246   H278    1.082   .     S
C246   N282    1.364   .     A
C247   C249    1.419   .     A
C247   N281    1.365   .     A
C247   H279    1.082   .     S
C248   N282    1.365   .     A
C248   H280    1.082   .     S
C248   C250    1.419   .     A
C249   C251    1.418   .     A
C249   C315    1.484   .     S
C250   C318    1.485   .     S
C250   C252    1.418   .     A
C251   C732    1.510   1_554 S
C252   C731    1.510   .     S
C253   O289    1.285   .     A
C253   C255    1.431   .     S
C253   O287    1.283   .     A
C254   O288    1.283   .     A
C254   C256    1.431   .     S
C254   O290    1.285   .     A
C255   C416    1.334   1_455 S
C255   H431    1.087   1_455 S
C256   C335    1.334   .     S
C256   H352    1.087   .     S
C257   C291    1.517   .     S
C257   C267    1.429   .     A
C257   C259    1.413   .     A
C258   C260    1.413   .     A
C258   C268    1.429   .     A
C258   C295    1.517   .     S
C259   C261    1.409   .     A
C259   C299    1.518   .     S
C260   C262    1.409   .     A
C260   C303    1.518   .     S
C261   C263    1.403   .     A
C262   C264    1.403   .     A
C263   C307    1.510   .     S
C263   C265    1.391   .     A
C264   C266    1.392   .     A
C264   C311    1.511   .     S
C265   C267    1.407   .     A
C265   H273    1.076   .     S
C266   H274    1.075   .     S
C266   C268    1.407   .     A
C268   C27     1.517   1_565 S
Cu269  N282    2.005   .     S
Cu269  O287    1.954   .     S
Cu269  O283    1.958   .     S
Cu269  O290    1.956   .     S
Cu269  Cu270   2.669   .     S
Cu269  O286    1.952   .     S
Cu270  O285    1.952   .     S
Cu270  O288    1.954   .     S
Cu270  N281    2.005   .     S
Cu270  O284    1.958   .     S
Cu270  O289    1.956   .     S
H271   C335    1.087   .     S
H272   C416    1.087   1_455 S
C291   H294    1.111   .     S
C291   H293    1.110   .     S
H292   C51     1.109   1_565 S
C295   H296    1.110   .     S
C295   H298    1.111   .     S
C295   H57     1.109   1_565 S
C299   H300    1.111   .     S
C299   H301    1.110   .     S
C299   H302    1.108   .     S
C303   H305    1.108   .     S
C303   H306    1.110   .     S
C303   H304    1.111   .     S
C307   H308    1.110   .     S
C307   H309    1.110   .     S
C307   H310    1.111   .     S
C311   H313    1.111   .     S
C311   H314    1.111   .     S
C311   H312    1.110   .     S
C315   O317    1.221   .     D
C315   H796    1.084   1_554 S
H316   C795    1.084   .     S
C318   O320    1.221   .     D
C318   H799    1.084   .     S
H319   C798    1.084   1_554 S
C321   C341    1.452   .     S
C321   O363    1.284   .     A
C321   O365    1.288   .     A
C322   O366    1.288   .     A
C322   O364    1.284   .     A
C322   C342    1.452   .     S
C323   H355    1.083   .     S
C323   C325    1.407   .     A
C323   C331    1.406   .     A
C324   H356    1.083   .     S
C324   C332    1.406   .     A
C324   C326    1.408   .     A
C325   H357    1.082   .     S
C325   N361    1.364   .     A
C326   H358    1.082   .     S
C326   N362    1.364   .     A
C327   C329    1.419   .     A
C327   N361    1.365   .     A
C327   H359    1.082   .     S
C328   N362    1.365   .     A
C328   H360    1.082   .     S
C328   C330    1.419   .     A
C329   C331    1.418   .     A
C329   C395    1.484   .     S
C330   C398    1.485   .     S
C330   C332    1.418   .     A
C331   C812    1.510   1_554 S
C332   C811    1.510   .     S
C333   O369    1.285   .     A
C333   C335    1.431   .     S
C333   O367    1.283   .     A
C334   O368    1.283   .     A
C334   C336    1.431   .     S
C334   O370    1.285   .     A
C336   C415    1.334   .     S
C336   H432    1.087   .     S
C337   C371    1.517   .     S
C337   C347    1.429   .     A
C337   C339    1.413   .     A
C338   C340    1.413   .     A
C338   C348    1.429   .     A
C338   C375    1.517   .     S
C339   C341    1.409   .     A
C339   C379    1.518   .     S
C340   C342    1.409   .     A
C340   C383    1.518   .     S
C341   C343    1.403   .     A
C342   C344    1.403   .     A
C343   C387    1.510   .     S
C343   C345    1.391   .     A
C344   C346    1.392   .     A
C344   C391    1.511   .     S
C345   C347    1.407   .     A
C345   H353    1.076   .     S
C346   H354    1.075   .     S
C346   C348    1.407   .     A
C348   C107    1.517   1_565 S
Cu349  N362    2.005   .     S
Cu349  O367    1.954   .     S
Cu349  O363    1.958   .     S
Cu349  O370    1.956   .     S
Cu349  Cu350   2.669   .     S
Cu349  O366    1.952   .     S
Cu350  O365    1.952   .     S
Cu350  O368    1.954   .     S
Cu350  N361    2.005   .     S
Cu350  O364    1.958   .     S
Cu350  O369    1.956   .     S
H351   C415    1.087   .     S
C371   H374    1.111   .     S
C371   H373    1.110   .     S
H372   C131    1.109   1_565 S
C375   H376    1.110   .     S
C375   H378    1.111   .     S
C375   H137    1.109   1_565 S
C379   H380    1.111   .     S
C379   H381    1.110   .     S
C379   H382    1.108   .     S
C383   H385    1.108   .     S
C383   H386    1.110   .     S
C383   H384    1.111   .     S
C387   H388    1.110   .     S
C387   H389    1.110   .     S
C387   H390    1.111   .     S
C391   H393    1.111   .     S
C391   H394    1.111   .     S
C391   H392    1.110   .     S
C395   O397    1.221   .     D
C395   H876    1.084   1_554 S
H396   C875    1.084   .     S
C398   O400    1.221   .     D
C398   H879    1.084   .     S
H399   C878    1.084   1_554 S
C401   C421    1.452   .     S
C401   O443    1.284   .     A
C401   O445    1.288   .     A
C402   O446    1.288   .     A
C402   O444    1.284   .     A
C402   C422    1.452   .     S
C403   H435    1.083   .     S
C403   C405    1.407   .     A
C403   C411    1.406   .     A
C404   H436    1.083   .     S
C404   C412    1.406   .     A
C404   C406    1.408   .     A
C405   H437    1.082   .     S
C405   N441    1.364   .     A
C406   H438    1.082   .     S
C406   N442    1.364   .     A
C407   C409    1.419   .     A
C407   N441    1.365   .     A
C407   H439    1.082   .     S
C408   N442    1.365   .     A
C408   H440    1.082   .     S
C408   C410    1.419   .     A
C409   C411    1.418   .     A
C409   C475    1.484   .     S
C410   C478    1.485   .     S
C410   C412    1.418   .     A
C411   C892    1.510   1_554 S
C412   C891    1.510   .     S
C413   O449    1.285   .     A
C413   C415    1.431   .     S
C413   O447    1.283   .     A
C414   O448    1.283   .     A
C414   C416    1.431   .     S
C414   O450    1.285   .     A
C416   C255    1.334   1_655 S
C416   H272    1.087   1_655 S
C417   C451    1.517   .     S
C417   C427    1.429   .     A
C417   C419    1.413   .     A
C418   C420    1.413   .     A
C418   C428    1.429   .     A
C418   C455    1.517   .     S
C419   C421    1.409   .     A
C419   C459    1.518   .     S
C420   C422    1.409   .     A
C420   C463    1.518   .     S
C421   C423    1.403   .     A
C422   C424    1.403   .     A
C423   C467    1.510   .     S
C423   C425    1.391   .     A
C424   C426    1.392   .     A
C424   C471    1.511   .     S
C425   C427    1.407   .     A
C425   H433    1.076   .     S
C426   H434    1.075   .     S
C426   C428    1.407   .     A
C428   C187    1.517   1_565 S
Cu429  N442    2.005   .     S
Cu429  O447    1.954   .     S
Cu429  O443    1.958   .     S
Cu429  O450    1.956   .     S
Cu429  Cu430   2.669   .     S
Cu429  O446    1.952   .     S
Cu430  O445    1.952   .     S
Cu430  O448    1.954   .     S
Cu430  N441    2.005   .     S
Cu430  O444    1.958   .     S
Cu430  O449    1.956   .     S
H431   C255    1.087   1_655 S
C451   H454    1.111   .     S
C451   H453    1.110   .     S
H452   C211    1.109   1_565 S
C455   H456    1.110   .     S
C455   H458    1.111   .     S
C455   H217    1.109   1_565 S
C459   H460    1.111   .     S
C459   H461    1.110   .     S
C459   H462    1.108   .     S
C463   H465    1.108   .     S
C463   H466    1.110   .     S
C463   H464    1.111   .     S
C467   H468    1.110   .     S
C467   H469    1.110   .     S
C467   H470    1.111   .     S
C471   H473    1.111   .     S
C471   H474    1.111   .     S
C471   H472    1.110   .     S
C475   O477    1.221   .     D
C475   H956    1.084   1_554 S
H476   C955    1.084   .     S
C478   O480    1.221   .     D
C478   H959    1.084   .     S
H479   C958    1.084   1_554 S
C481   C501    1.452   .     S
C481   O523    1.284   .     A
C481   O525    1.288   .     A
C482   O526    1.288   .     A
C482   O524    1.284   .     A
C482   C502    1.452   .     S
C483   H515    1.083   .     S
C483   C485    1.407   .     A
C483   C491    1.406   .     A
C484   H516    1.083   .     S
C484   C492    1.406   .     A
C484   C486    1.408   .     A
C485   H517    1.082   .     S
C485   N521    1.364   .     A
C486   H518    1.082   .     S
C486   N522    1.364   .     A
C487   C489    1.419   .     A
C487   N521    1.365   .     A
C487   H519    1.082   .     S
C488   N522    1.365   .     A
C488   H520    1.082   .     S
C488   C490    1.419   .     A
C489   C491    1.418   .     A
C489   C555    1.484   .     S
C490   C558    1.485   .     S
C490   C492    1.418   .     A
C492   C11     1.510   1_556 S
C493   O529    1.285   .     A
C493   C495    1.431   .     S
C493   O527    1.283   .     A
C494   O528    1.283   .     A
C494   C496    1.431   .     S
C494   O530    1.285   .     A
C495   C656    1.334   1_455 S
C495   H671    1.087   1_455 S
C496   C575    1.334   .     S
C496   H592    1.087   .     S
C497   C531    1.517   .     S
C497   C507    1.429   .     A
C497   C499    1.413   .     A
C498   C500    1.413   .     A
C498   C508    1.429   .     A
C498   C535    1.517   .     S
C499   C501    1.409   .     A
C499   C539    1.518   .     S
C500   C502    1.409   .     A
C500   C543    1.518   .     S
C501   C503    1.403   .     A
C502   C504    1.403   .     A
C503   C547    1.510   .     S
C503   C505    1.391   .     A
C504   C506    1.392   .     A
C504   C551    1.511   .     S
C505   C507    1.407   .     A
C505   H513    1.076   .     S
C506   H514    1.075   .     S
C506   C508    1.407   .     A
C507   C748    1.517   1_545 S
C508   C747    1.517   .     S
Cu509  N522    2.005   .     S
Cu509  O527    1.954   .     S
Cu509  O523    1.958   .     S
Cu509  O530    1.956   .     S
Cu509  Cu510   2.669   .     S
Cu509  O526    1.952   .     S
Cu510  O525    1.952   .     S
Cu510  O528    1.954   .     S
Cu510  N521    2.005   .     S
Cu510  O524    1.958   .     S
Cu510  O529    1.956   .     S
H511   C575    1.087   .     S
H512   C656    1.087   1_455 S
C531   H534    1.111   .     S
C531   H533    1.110   .     S
C531   H772    1.109   1_545 S
H532   C771    1.109   .     S
C535   H536    1.110   .     S
C535   H538    1.111   .     S
C535   H777    1.109   .     S
H537   C775    1.109   1_545 S
C539   H540    1.111   .     S
C539   H541    1.110   .     S
C539   H542    1.108   .     S
C543   H545    1.108   .     S
C543   H546    1.110   .     S
C543   H544    1.111   .     S
C547   H548    1.110   .     S
C547   H549    1.110   .     S
C547   H550    1.111   .     S
C551   H553    1.111   .     S
C551   H554    1.111   .     S
C551   H552    1.110   .     S
C555   O557    1.221   .     D
H556   C75     1.084   1_556 S
C558   O560    1.221   .     D
C558   H79     1.084   1_556 S
C561   C581    1.452   .     S
C561   O603    1.284   .     A
C561   O605    1.288   .     A
C562   O606    1.288   .     A
C562   O604    1.284   .     A
C562   C582    1.452   .     S
C563   H595    1.083   .     S
C563   C565    1.407   .     A
C563   C571    1.406   .     A
C564   H596    1.083   .     S
C564   C572    1.406   .     A
C564   C566    1.408   .     A
C565   H597    1.082   .     S
C565   N601    1.364   .     A
C566   H598    1.082   .     S
C566   N602    1.364   .     A
C567   C569    1.419   .     A
C567   N601    1.365   .     A
C567   H599    1.082   .     S
C568   N602    1.365   .     A
C568   H600    1.082   .     S
C568   C570    1.419   .     A
C569   C571    1.418   .     A
C569   C635    1.484   .     S
C570   C638    1.485   .     S
C570   C572    1.418   .     A
C572   C91     1.510   1_556 S
C573   O609    1.285   .     A
C573   C575    1.431   .     S
C573   O607    1.283   .     A
C574   O608    1.283   .     A
C574   C576    1.431   .     S
C574   O610    1.285   .     A
C576   C655    1.334   .     S
C576   H672    1.087   .     S
C577   C611    1.517   .     S
C577   C587    1.429   .     A
C577   C579    1.413   .     A
C578   C580    1.413   .     A
C578   C588    1.429   .     A
C578   C615    1.517   .     S
C579   C581    1.409   .     A
C579   C619    1.518   .     S
C580   C582    1.409   .     A
C580   C623    1.518   .     S
C581   C583    1.403   .     A
C582   C584    1.403   .     A
C583   C627    1.510   .     S
C583   C585    1.391   .     A
C584   C586    1.392   .     A
C584   C631    1.511   .     S
C585   C587    1.407   .     A
C585   H593    1.076   .     S
C586   H594    1.075   .     S
C586   C588    1.407   .     A
C587   C828    1.517   1_545 S
C588   C827    1.517   .     S
Cu589  N602    2.005   .     S
Cu589  O607    1.954   .     S
Cu589  O603    1.958   .     S
Cu589  O610    1.956   .     S
Cu589  Cu590   2.669   .     S
Cu589  O606    1.952   .     S
Cu590  O605    1.952   .     S
Cu590  O608    1.954   .     S
Cu590  N601    2.005   .     S
Cu590  O604    1.958   .     S
Cu590  O609    1.956   .     S
H591   C655    1.087   .     S
C611   H614    1.111   .     S
C611   H613    1.110   .     S
C611   H852    1.109   1_545 S
H612   C851    1.109   .     S
C615   H616    1.110   .     S
C615   H618    1.111   .     S
C615   H857    1.109   .     S
H617   C855    1.109   1_545 S
C619   H620    1.111   .     S
C619   H621    1.110   .     S
C619   H622    1.108   .     S
C623   H625    1.108   .     S
C623   H626    1.110   .     S
C623   H624    1.111   .     S
C627   H628    1.110   .     S
C627   H629    1.110   .     S
C627   H630    1.111   .     S
C631   H633    1.111   .     S
C631   H634    1.111   .     S
C631   H632    1.110   .     S
C635   O637    1.221   .     D
H636   C155    1.084   1_556 S
C638   O640    1.221   .     D
C638   H159    1.084   1_556 S
C641   C661    1.452   .     S
C641   O683    1.284   .     A
C641   O685    1.288   .     A
C642   O686    1.288   .     A
C642   O684    1.284   .     A
C642   C662    1.452   .     S
C643   H675    1.083   .     S
C643   C645    1.407   .     A
C643   C651    1.406   .     A
C644   H676    1.083   .     S
C644   C652    1.406   .     A
C644   C646    1.408   .     A
C645   H677    1.082   .     S
C645   N681    1.364   .     A
C646   H678    1.082   .     S
C646   N682    1.364   .     A
C647   C649    1.419   .     A
C647   N681    1.365   .     A
C647   H679    1.082   .     S
C648   N682    1.365   .     A
C648   H680    1.082   .     S
C648   C650    1.419   .     A
C649   C651    1.418   .     A
C649   C715    1.484   .     S
C650   C718    1.485   .     S
C650   C652    1.418   .     A
C652   C171    1.510   1_556 S
C653   O689    1.285   .     A
C653   C655    1.431   .     S
C653   O687    1.283   .     A
C654   O688    1.283   .     A
C654   C656    1.431   .     S
C654   O690    1.285   .     A
C656   C495    1.334   1_655 S
C656   H512    1.087   1_655 S
C657   C691    1.517   .     S
C657   C667    1.429   .     A
C657   C659    1.413   .     A
C658   C660    1.413   .     A
C658   C668    1.429   .     A
C658   C695    1.517   .     S
C659   C661    1.409   .     A
C659   C699    1.518   .     S
C660   C662    1.409   .     A
C660   C703    1.518   .     S
C661   C663    1.403   .     A
C662   C664    1.403   .     A
C663   C707    1.510   .     S
C663   C665    1.391   .     A
C664   C666    1.392   .     A
C664   C711    1.511   .     S
C665   C667    1.407   .     A
C665   H673    1.076   .     S
C666   H674    1.075   .     S
C666   C668    1.407   .     A
C667   C908    1.517   1_545 S
C668   C907    1.517   .     S
Cu669  N682    2.005   .     S
Cu669  O687    1.954   .     S
Cu669  O683    1.958   .     S
Cu669  O690    1.956   .     S
Cu669  Cu670   2.669   .     S
Cu669  O686    1.952   .     S
Cu670  O685    1.952   .     S
Cu670  O688    1.954   .     S
Cu670  N681    2.005   .     S
Cu670  O684    1.958   .     S
Cu670  O689    1.956   .     S
H671   C495    1.087   1_655 S
C691   H694    1.111   .     S
C691   H693    1.110   .     S
C691   H932    1.109   1_545 S
H692   C931    1.109   .     S
C695   H696    1.110   .     S
C695   H698    1.111   .     S
C695   H937    1.109   .     S
H697   C935    1.109   1_545 S
C699   H700    1.111   .     S
C699   H701    1.110   .     S
C699   H702    1.108   .     S
C703   H705    1.108   .     S
C703   H706    1.110   .     S
C703   H704    1.111   .     S
C707   H708    1.110   .     S
C707   H709    1.110   .     S
C707   H710    1.111   .     S
C711   H713    1.111   .     S
C711   H714    1.111   .     S
C711   H712    1.110   .     S
C715   O717    1.221   .     D
H716   C235    1.084   1_556 S
C718   O720    1.221   .     D
C718   H239    1.084   1_556 S
C721   C741    1.452   .     S
C721   O763    1.284   .     A
C721   O765    1.288   .     A
C722   O766    1.288   .     A
C722   O764    1.284   .     A
C722   C742    1.452   .     S
C723   H755    1.083   .     S
C723   C725    1.407   .     A
C723   C731    1.406   .     A
C724   H756    1.083   .     S
C724   C732    1.406   .     A
C724   C726    1.408   .     A
C725   H757    1.082   .     S
C725   N761    1.364   .     A
C726   H758    1.082   .     S
C726   N762    1.364   .     A
C727   C729    1.419   .     A
C727   N761    1.365   .     A
C727   H759    1.082   .     S
C728   N762    1.365   .     A
C728   H760    1.082   .     S
C728   C730    1.419   .     A
C729   C731    1.418   .     A
C729   C795    1.484   .     S
C730   C798    1.485   .     S
C730   C732    1.418   .     A
C732   C251    1.510   1_556 S
C733   O769    1.285   .     A
C733   C735    1.431   .     S
C733   O767    1.283   .     A
C734   O768    1.283   .     A
C734   C736    1.431   .     S
C734   O770    1.285   .     A
C735   C896    1.334   1_455 S
C735   H911    1.087   1_455 S
C736   C815    1.334   .     S
C736   H832    1.087   .     S
C737   C771    1.517   .     S
C737   C747    1.429   .     A
C737   C739    1.413   .     A
C738   C740    1.413   .     A
C738   C748    1.429   .     A
C738   C775    1.517   .     S
C739   C741    1.409   .     A
C739   C779    1.518   .     S
C740   C742    1.409   .     A
C740   C783    1.518   .     S
C741   C743    1.403   .     A
C742   C744    1.403   .     A
C743   C787    1.510   .     S
C743   C745    1.391   .     A
C744   C746    1.392   .     A
C744   C791    1.511   .     S
C745   C747    1.407   .     A
C745   H753    1.076   .     S
C746   H754    1.075   .     S
C746   C748    1.407   .     A
C748   C507    1.517   1_565 S
Cu749  N762    2.005   .     S
Cu749  O767    1.954   .     S
Cu749  O763    1.958   .     S
Cu749  O770    1.956   .     S
Cu749  Cu750   2.669   .     S
Cu749  O766    1.952   .     S
Cu750  O765    1.952   .     S
Cu750  O768    1.954   .     S
Cu750  N761    2.005   .     S
Cu750  O764    1.958   .     S
Cu750  O769    1.956   .     S
H751   C815    1.087   .     S
H752   C896    1.087   1_455 S
C771   H774    1.111   .     S
C771   H773    1.110   .     S
H772   C531    1.109   1_565 S
C775   H776    1.110   .     S
C775   H778    1.111   .     S
C775   H537    1.109   1_565 S
C779   H780    1.111   .     S
C779   H781    1.110   .     S
C779   H782    1.108   .     S
C783   H785    1.108   .     S
C783   H786    1.110   .     S
C783   H784    1.111   .     S
C787   H788    1.110   .     S
C787   H789    1.110   .     S
C787   H790    1.111   .     S
C791   H793    1.111   .     S
C791   H794    1.111   .     S
C791   H792    1.110   .     S
C795   O797    1.221   .     D
H796   C315    1.084   1_556 S
C798   O800    1.221   .     D
C798   H319    1.084   1_556 S
C801   C821    1.452   .     S
C801   O843    1.284   .     A
C801   O845    1.288   .     A
C802   O846    1.288   .     A
C802   O844    1.284   .     A
C802   C822    1.452   .     S
C803   H835    1.083   .     S
C803   C805    1.407   .     A
C803   C811    1.406   .     A
C804   H836    1.083   .     S
C804   C812    1.406   .     A
C804   C806    1.408   .     A
C805   H837    1.082   .     S
C805   N841    1.364   .     A
C806   H838    1.082   .     S
C806   N842    1.364   .     A
C807   C809    1.419   .     A
C807   N841    1.365   .     A
C807   H839    1.082   .     S
C808   N842    1.365   .     A
C808   H840    1.082   .     S
C808   C810    1.419   .     A
C809   C811    1.418   .     A
C809   C875    1.484   .     S
C810   C878    1.485   .     S
C810   C812    1.418   .     A
C812   C331    1.510   1_556 S
C813   O849    1.285   .     A
C813   C815    1.431   .     S
C813   O847    1.283   .     A
C814   O848    1.283   .     A
C814   C816    1.431   .     S
C814   O850    1.285   .     A
C816   C895    1.334   .     S
C816   H912    1.087   .     S
C817   C851    1.517   .     S
C817   C827    1.429   .     A
C817   C819    1.413   .     A
C818   C820    1.413   .     A
C818   C828    1.429   .     A
C818   C855    1.517   .     S
C819   C821    1.409   .     A
C819   C859    1.518   .     S
C820   C822    1.409   .     A
C820   C863    1.518   .     S
C821   C823    1.403   .     A
C822   C824    1.403   .     A
C823   C867    1.510   .     S
C823   C825    1.391   .     A
C824   C826    1.392   .     A
C824   C871    1.511   .     S
C825   C827    1.407   .     A
C825   H833    1.076   .     S
C826   H834    1.075   .     S
C826   C828    1.407   .     A
C828   C587    1.517   1_565 S
Cu829  N842    2.005   .     S
Cu829  O847    1.954   .     S
Cu829  O843    1.958   .     S
Cu829  O850    1.956   .     S
Cu829  Cu830   2.669   .     S
Cu829  O846    1.952   .     S
Cu830  O845    1.952   .     S
Cu830  O848    1.954   .     S
Cu830  N841    2.005   .     S
Cu830  O844    1.958   .     S
Cu830  O849    1.956   .     S
H831   C895    1.087   .     S
C851   H854    1.111   .     S
C851   H853    1.110   .     S
H852   C611    1.109   1_565 S
C855   H856    1.110   .     S
C855   H858    1.111   .     S
C855   H617    1.109   1_565 S
C859   H860    1.111   .     S
C859   H861    1.110   .     S
C859   H862    1.108   .     S
C863   H865    1.108   .     S
C863   H866    1.110   .     S
C863   H864    1.111   .     S
C867   H868    1.110   .     S
C867   H869    1.110   .     S
C867   H870    1.111   .     S
C871   H873    1.111   .     S
C871   H874    1.111   .     S
C871   H872    1.110   .     S
C875   O877    1.221   .     D
H876   C395    1.084   1_556 S
C878   O880    1.221   .     D
C878   H399    1.084   1_556 S
C881   C901    1.452   .     S
C881   O923    1.284   .     A
C881   O925    1.288   .     A
C882   O926    1.288   .     A
C882   O924    1.284   .     A
C882   C902    1.452   .     S
C883   H915    1.083   .     S
C883   C885    1.407   .     A
C883   C891    1.406   .     A
C884   H916    1.083   .     S
C884   C892    1.406   .     A
C884   C886    1.408   .     A
C885   H917    1.082   .     S
C885   N921    1.364   .     A
C886   H918    1.082   .     S
C886   N922    1.364   .     A
C887   C889    1.419   .     A
C887   N921    1.365   .     A
C887   H919    1.082   .     S
C888   N922    1.365   .     A
C888   H920    1.082   .     S
C888   C890    1.419   .     A
C889   C891    1.418   .     A
C889   C955    1.484   .     S
C890   C958    1.485   .     S
C890   C892    1.418   .     A
C892   C411    1.510   1_556 S
C893   O929    1.285   .     A
C893   C895    1.431   .     S
C893   O927    1.283   .     A
C894   O928    1.283   .     A
C894   C896    1.431   .     S
C894   O930    1.285   .     A
C896   C735    1.334   1_655 S
C896   H752    1.087   1_655 S
C897   C931    1.517   .     S
C897   C907    1.429   .     A
C897   C899    1.413   .     A
C898   C900    1.413   .     A
C898   C908    1.429   .     A
C898   C935    1.517   .     S
C899   C901    1.409   .     A
C899   C939    1.518   .     S
C900   C902    1.409   .     A
C900   C943    1.518   .     S
C901   C903    1.403   .     A
C902   C904    1.403   .     A
C903   C947    1.510   .     S
C903   C905    1.391   .     A
C904   C906    1.392   .     A
C904   C951    1.511   .     S
C905   C907    1.407   .     A
C905   H913    1.076   .     S
C906   H914    1.075   .     S
C906   C908    1.407   .     A
C908   C667    1.517   1_565 S
Cu909  N922    2.005   .     S
Cu909  O927    1.954   .     S
Cu909  O923    1.958   .     S
Cu909  O930    1.956   .     S
Cu909  Cu910   2.669   .     S
Cu909  O926    1.952   .     S
Cu910  O925    1.952   .     S
Cu910  O928    1.954   .     S
Cu910  N921    2.005   .     S
Cu910  O924    1.958   .     S
Cu910  O929    1.956   .     S
H911   C735    1.087   1_655 S
C931   H934    1.111   .     S
C931   H933    1.110   .     S
H932   C691    1.109   1_565 S
C935   H936    1.110   .     S
C935   H938    1.111   .     S
C935   H697    1.109   1_565 S
C939   H940    1.111   .     S
C939   H941    1.110   .     S
C939   H942    1.108   .     S
C943   H945    1.108   .     S
C943   H946    1.110   .     S
C943   H944    1.111   .     S
C947   H948    1.110   .     S
C947   H949    1.110   .     S
C947   H950    1.111   .     S
C951   H953    1.111   .     S
C951   H954    1.111   .     S
C951   H952    1.110   .     S
C955   O957    1.221   .     D
H956   C475    1.084   1_556 S
C958   O960    1.221   .     D
C958   H479    1.084   1_556 S
