data_str_m3_o1_o2_pcu_sym.53
_audit_creation_date              2020-01-03
_audit_creation_method            'Materials Studio'
_symmetry_space_group_name_H-M    'P1'
_symmetry_Int_Tables_number       1
_symmetry_cell_setting            triclinic
loop_
_symmetry_equiv_pos_as_xyz
  x,y,z
_cell_length_a                    32.0001
_cell_length_b                    29.6080
_cell_length_c                    30.0570
_cell_angle_alpha                 89.9994
_cell_angle_beta                  89.7957
_cell_angle_gamma                 89.9999
loop_
_atom_site_label
_atom_site_type_symbol
_atom_site_fract_x
_atom_site_fract_y
_atom_site_fract_z
_atom_site_U_iso_or_equiv
_atom_site_adp_type
_atom_site_occupancy
C1     C     0.08685   0.16677   0.25047   0.00000  Uiso   1.00
C2     C     0.31110   0.16847   0.29122   0.00000  Uiso   1.00
C3     C     0.31187   0.16939   0.20852   0.00000  Uiso   1.00
C4     C     0.02147   0.16939   0.29148   0.00000  Uiso   1.00
C5     C     0.15426   0.20551   0.04732   0.00000  Uiso   1.00
C6     C     0.15400   0.12796   0.45284   0.00000  Uiso   1.00
C7     C     0.17907   0.20551   0.45268   0.00000  Uiso   1.00
C8     C     0.17932   0.12796   0.04716   0.00000  Uiso   1.00
C9     C     0.15508   0.20576   0.09320   0.00000  Uiso   1.00
C10    C     0.15467   0.12769   0.40694   0.00000  Uiso   1.00
C11    C     0.17825   0.20576   0.40680   0.00000  Uiso   1.00
C12    C     0.24648   0.16677   0.24954   0.00000  Uiso   1.00
C13    C     0.17866   0.12769   0.09306   0.00000  Uiso   1.00
C14    C     0.16685   0.16670   0.11610   0.00000  Uiso   1.00
C15    C     0.16648   0.16670   0.38390   0.00000  Uiso   1.00
C16    C     0.16672   0.16673   0.02412   0.00000  Uiso   1.00
C17    C     0.16660   0.16673   0.47588   0.00000  Uiso   1.00
C18    C     0.29068   0.16745   0.24973   0.00000  Uiso   1.00
C19    C     0.04265   0.16745   0.25027   0.00000  Uiso   1.00
C20    C     0.04728   0.16997   0.16532   0.00000  Uiso   1.00
C21    C     0.05676   0.21858   0.15143   0.00000  Uiso   1.00
C22    C     0.28605   0.16996   0.33468   0.00000  Uiso   1.00
C23    C     0.16679   0.16667   0.16396   0.00000  Uiso   1.00
C24    C     0.27657   0.21857   0.34858   0.00000  Uiso   1.00
C25    C     0.28772   0.17282   0.16481   0.00000  Uiso   1.00
C26    C     0.27857   0.12622   0.14563   0.00000  Uiso   1.00
C27    C     0.04561   0.17282   0.33519   0.00000  Uiso   1.00
C28    C     0.05476   0.12621   0.35437   0.00000  Uiso   1.00
C29    C     0.16655   0.16667   0.33604   0.00000  Uiso   1.00
C30    C     0.14435   0.02383   0.28105   0.00000  Uiso   1.00
C31    C     0.18918   0.30932   0.21909   0.00000  Uiso   1.00
C32    C     0.18898   0.02383   0.21895   0.00000  Uiso   1.00
C33    C     0.14415   0.30932   0.28091   0.00000  Uiso   1.00
C34    C     0.02224   0.16847   0.20878   0.00000  Uiso   1.00
F35    F     0.12218   0.04611   0.31248   0.00000  Uiso   1.00
F36    F     0.21201   0.28673   0.18822   0.00000  Uiso   1.00
F37    F     0.21116   0.04611   0.18752   0.00000  Uiso   1.00
F38    F     0.12132   0.28673   0.31178   0.00000  Uiso   1.00
H39    H     0.14360   0.23547   0.03008   0.00000  Uiso   1.00
H40    H     0.08059   0.23370   0.17358   0.00000  Uiso   1.00
H41    H     0.06894   0.21892   0.11683   0.00000  Uiso   1.00
H42    H     0.07701   0.15094   0.16808   0.00000  Uiso   1.00
H43    H     0.03074   0.15259   0.13794   0.00000  Uiso   1.00
H44    H     0.25274   0.23369   0.32642   0.00000  Uiso   1.00
H45    H     0.26439   0.21891   0.38318   0.00000  Uiso   1.00
H46    H     0.30510   0.23984   0.34730   0.00000  Uiso   1.00
H47    H     0.25633   0.15093   0.33192   0.00000  Uiso   1.00
H48    H     0.30260   0.15258   0.36206   0.00000  Uiso   1.00
H49    H     0.30721   0.10515   0.14400   0.00000  Uiso   1.00
H50    H     0.14336   0.09803   0.47022   0.00000  Uiso   1.00
H51    H     0.25522   0.10888   0.16671   0.00000  Uiso   1.00
H52    H     0.26583   0.12976   0.11153   0.00000  Uiso   1.00
H53    H     0.25786   0.19134   0.16918   0.00000  Uiso   1.00
H54    H     0.30475   0.19322   0.13976   0.00000  Uiso   1.00
H55    H     0.07812   0.10888   0.33329   0.00000  Uiso   1.00
H56    H     0.06750   0.12976   0.38847   0.00000  Uiso   1.00
H57    H     0.02613   0.10514   0.35599   0.00000  Uiso   1.00
H58    H     0.07547   0.19134   0.33082   0.00000  Uiso   1.00
H59    H     0.02858   0.19321   0.36024   0.00000  Uiso   1.00
H60    H     0.18972   0.23547   0.46992   0.00000  Uiso   1.00
H61    H     0.18996   0.09803   0.02978   0.00000  Uiso   1.00
H62    H     0.14579   0.23616   0.11068   0.00000  Uiso   1.00
H63    H     0.14513   0.09736   0.38957   0.00000  Uiso   1.00
H64    H     0.18754   0.23616   0.38932   0.00000  Uiso   1.00
H65    H     0.18820   0.09736   0.11043   0.00000  Uiso   1.00
H66    H     0.02823   0.23985   0.15270   0.00000  Uiso   1.00
N67    N     0.16667   0.28573   0.25000   0.00000  Uiso   1.00
N68    N     0.16667   0.04760   0.25000   0.00000  Uiso   1.00
O69    O     0.10559   0.20487   0.24999   0.00000  Uiso   1.00
O70    O     0.22774   0.12846   0.25001   0.00000  Uiso   1.00
O71    O     0.22774   0.20487   0.25001   0.00000  Uiso   1.00
O72    O     0.10559   0.12846   0.25000   0.00000  Uiso   1.00
O73    O     0.16666   0.20489   0.18453   0.00000  Uiso   1.00
O74    O     0.16667   0.12845   0.31547   0.00000  Uiso   1.00
O75    O     0.16667   0.20489   0.31547   0.00000  Uiso   1.00
O76    O     0.16666   0.12845   0.18453   0.00000  Uiso   1.00
Zn77   Zn    0.16667   0.21771   0.25000   0.00000  Uiso   1.00
Zn78   Zn    0.16667   0.11563   0.25000   0.00000  Uiso   1.00
C79    C     0.42019   0.16677   0.25047   0.00000  Uiso   1.00
C80    C     0.64443   0.16847   0.29122   0.00000  Uiso   1.00
C81    C     0.64520   0.16939   0.20852   0.00000  Uiso   1.00
C82    C     0.35480   0.16939   0.29148   0.00000  Uiso   1.00
C83    C     0.48759   0.20551   0.04732   0.00000  Uiso   1.00
C84    C     0.48734   0.12796   0.45284   0.00000  Uiso   1.00
C85    C     0.51240   0.20551   0.45268   0.00000  Uiso   1.00
C86    C     0.51266   0.12796   0.04716   0.00000  Uiso   1.00
C87    C     0.48842   0.20576   0.09320   0.00000  Uiso   1.00
C88    C     0.48801   0.12769   0.40694   0.00000  Uiso   1.00
C89    C     0.51158   0.20576   0.40680   0.00000  Uiso   1.00
C90    C     0.57981   0.16677   0.24954   0.00000  Uiso   1.00
C91    C     0.51199   0.12769   0.09306   0.00000  Uiso   1.00
C92    C     0.50018   0.16670   0.11610   0.00000  Uiso   1.00
C93    C     0.49982   0.16670   0.38390   0.00000  Uiso   1.00
C94    C     0.50005   0.16673   0.02412   0.00000  Uiso   1.00
C95    C     0.49994   0.16673   0.47588   0.00000  Uiso   1.00
C96    C     0.62401   0.16745   0.24973   0.00000  Uiso   1.00
C97    C     0.37599   0.16745   0.25027   0.00000  Uiso   1.00
C98    C     0.38062   0.16997   0.16532   0.00000  Uiso   1.00
C99    C     0.39009   0.21858   0.15143   0.00000  Uiso   1.00
C100   C     0.61938   0.16996   0.33468   0.00000  Uiso   1.00
C101   C     0.50012   0.16667   0.16396   0.00000  Uiso   1.00
C102   C     0.60990   0.21857   0.34858   0.00000  Uiso   1.00
C103   C     0.62106   0.17282   0.16481   0.00000  Uiso   1.00
C104   C     0.61191   0.12622   0.14563   0.00000  Uiso   1.00
C105   C     0.37894   0.17282   0.33519   0.00000  Uiso   1.00
C106   C     0.38809   0.12621   0.35437   0.00000  Uiso   1.00
C107   C     0.49988   0.16667   0.33604   0.00000  Uiso   1.00
C108   C     0.47768   0.02383   0.28105   0.00000  Uiso   1.00
C109   C     0.52252   0.30932   0.21909   0.00000  Uiso   1.00
C110   C     0.52232   0.02383   0.21895   0.00000  Uiso   1.00
C111   C     0.47748   0.30932   0.28091   0.00000  Uiso   1.00
C112   C     0.35557   0.16847   0.20878   0.00000  Uiso   1.00
F113   F     0.45551   0.04611   0.31248   0.00000  Uiso   1.00
F114   F     0.54534   0.28673   0.18822   0.00000  Uiso   1.00
F115   F     0.54449   0.04611   0.18752   0.00000  Uiso   1.00
F116   F     0.45466   0.28673   0.31178   0.00000  Uiso   1.00
H117   H     0.47693   0.23547   0.03008   0.00000  Uiso   1.00
H118   H     0.41393   0.23370   0.17358   0.00000  Uiso   1.00
H119   H     0.40227   0.21892   0.11683   0.00000  Uiso   1.00
H120   H     0.41034   0.15094   0.16808   0.00000  Uiso   1.00
H121   H     0.36407   0.15259   0.13794   0.00000  Uiso   1.00
H122   H     0.58607   0.23369   0.32642   0.00000  Uiso   1.00
H123   H     0.59773   0.21891   0.38318   0.00000  Uiso   1.00
H124   H     0.63843   0.23984   0.34730   0.00000  Uiso   1.00
H125   H     0.58966   0.15093   0.33192   0.00000  Uiso   1.00
H126   H     0.63593   0.15258   0.36206   0.00000  Uiso   1.00
H127   H     0.64054   0.10515   0.14400   0.00000  Uiso   1.00
H128   H     0.47670   0.09803   0.47022   0.00000  Uiso   1.00
H129   H     0.58856   0.10888   0.16671   0.00000  Uiso   1.00
H130   H     0.59916   0.12976   0.11153   0.00000  Uiso   1.00
H131   H     0.59120   0.19134   0.16918   0.00000  Uiso   1.00
H132   H     0.63808   0.19322   0.13976   0.00000  Uiso   1.00
H133   H     0.41145   0.10888   0.33329   0.00000  Uiso   1.00
H134   H     0.40083   0.12976   0.38847   0.00000  Uiso   1.00
H135   H     0.35946   0.10514   0.35599   0.00000  Uiso   1.00
H136   H     0.40880   0.19134   0.33082   0.00000  Uiso   1.00
H137   H     0.36191   0.19321   0.36024   0.00000  Uiso   1.00
H138   H     0.52306   0.23547   0.46992   0.00000  Uiso   1.00
H139   H     0.52330   0.09803   0.02978   0.00000  Uiso   1.00
H140   H     0.47912   0.23616   0.11068   0.00000  Uiso   1.00
H141   H     0.47847   0.09736   0.38957   0.00000  Uiso   1.00
H142   H     0.52087   0.23616   0.38932   0.00000  Uiso   1.00
H143   H     0.52153   0.09736   0.11043   0.00000  Uiso   1.00
H144   H     0.36156   0.23985   0.15270   0.00000  Uiso   1.00
N145   N     0.50000   0.28573   0.25000   0.00000  Uiso   1.00
N146   N     0.50000   0.04760   0.25000   0.00000  Uiso   1.00
O147   O     0.43892   0.20487   0.24999   0.00000  Uiso   1.00
O148   O     0.56108   0.12846   0.25001   0.00000  Uiso   1.00
O149   O     0.56108   0.20487   0.25001   0.00000  Uiso   1.00
O150   O     0.43892   0.12846   0.25000   0.00000  Uiso   1.00
O151   O     0.50000   0.20489   0.18453   0.00000  Uiso   1.00
O152   O     0.50000   0.12845   0.31547   0.00000  Uiso   1.00
O153   O     0.50000   0.20489   0.31547   0.00000  Uiso   1.00
O154   O     0.50000   0.12845   0.18453   0.00000  Uiso   1.00
Zn155  Zn    0.50000   0.21771   0.25000   0.00000  Uiso   1.00
Zn156  Zn    0.50000   0.11563   0.25000   0.00000  Uiso   1.00
C157   C     0.75352   0.16677   0.25047   0.00000  Uiso   1.00
C158   C     0.97776   0.16847   0.29122   0.00000  Uiso   1.00
C159   C     0.97853   0.16939   0.20852   0.00000  Uiso   1.00
C160   C     0.68813   0.16939   0.29148   0.00000  Uiso   1.00
C161   C     0.82092   0.20551   0.04732   0.00000  Uiso   1.00
C162   C     0.82067   0.12796   0.45284   0.00000  Uiso   1.00
C163   C     0.84574   0.20551   0.45268   0.00000  Uiso   1.00
C164   C     0.84599   0.12796   0.04716   0.00000  Uiso   1.00
C165   C     0.82175   0.20576   0.09320   0.00000  Uiso   1.00
C166   C     0.82134   0.12769   0.40694   0.00000  Uiso   1.00
C167   C     0.84491   0.20576   0.40680   0.00000  Uiso   1.00
C168   C     0.91315   0.16677   0.24954   0.00000  Uiso   1.00
C169   C     0.84532   0.12769   0.09306   0.00000  Uiso   1.00
C170   C     0.83351   0.16670   0.11610   0.00000  Uiso   1.00
C171   C     0.83315   0.16670   0.38390   0.00000  Uiso   1.00
C172   C     0.83339   0.16673   0.02412   0.00000  Uiso   1.00
C173   C     0.83327   0.16673   0.47588   0.00000  Uiso   1.00
C174   C     0.95735   0.16745   0.24973   0.00000  Uiso   1.00
C175   C     0.70932   0.16745   0.25027   0.00000  Uiso   1.00
C176   C     0.71395   0.16997   0.16532   0.00000  Uiso   1.00
C177   C     0.72343   0.21858   0.15143   0.00000  Uiso   1.00
C178   C     0.95272   0.16996   0.33468   0.00000  Uiso   1.00
C179   C     0.83345   0.16667   0.16396   0.00000  Uiso   1.00
C180   C     0.94324   0.21857   0.34858   0.00000  Uiso   1.00
C181   C     0.95439   0.17282   0.16481   0.00000  Uiso   1.00
C182   C     0.94524   0.12622   0.14563   0.00000  Uiso   1.00
C183   C     0.71228   0.17282   0.33519   0.00000  Uiso   1.00
C184   C     0.72143   0.12621   0.35437   0.00000  Uiso   1.00
C185   C     0.83321   0.16667   0.33604   0.00000  Uiso   1.00
C186   C     0.81102   0.02383   0.28105   0.00000  Uiso   1.00
C187   C     0.85585   0.30932   0.21909   0.00000  Uiso   1.00
C188   C     0.85565   0.02383   0.21895   0.00000  Uiso   1.00
C189   C     0.81082   0.30932   0.28091   0.00000  Uiso   1.00
C190   C     0.68890   0.16847   0.20878   0.00000  Uiso   1.00
F191   F     0.78884   0.04611   0.31248   0.00000  Uiso   1.00
F192   F     0.87868   0.28673   0.18822   0.00000  Uiso   1.00
F193   F     0.87782   0.04611   0.18752   0.00000  Uiso   1.00
F194   F     0.78799   0.28673   0.31178   0.00000  Uiso   1.00
H195   H     0.81027   0.23547   0.03008   0.00000  Uiso   1.00
H196   H     0.74726   0.23370   0.17358   0.00000  Uiso   1.00
H197   H     0.73560   0.21892   0.11683   0.00000  Uiso   1.00
H198   H     0.74367   0.15094   0.16808   0.00000  Uiso   1.00
H199   H     0.69741   0.15259   0.13794   0.00000  Uiso   1.00
H200   H     0.91940   0.23369   0.32642   0.00000  Uiso   1.00
H201   H     0.93106   0.21891   0.38318   0.00000  Uiso   1.00
H202   H     0.97177   0.23984   0.34730   0.00000  Uiso   1.00
H203   H     0.92300   0.15093   0.33192   0.00000  Uiso   1.00
H204   H     0.96926   0.15258   0.36206   0.00000  Uiso   1.00
H205   H     0.97388   0.10515   0.14400   0.00000  Uiso   1.00
H206   H     0.81003   0.09803   0.47022   0.00000  Uiso   1.00
H207   H     0.92189   0.10888   0.16671   0.00000  Uiso   1.00
H208   H     0.93250   0.12976   0.11153   0.00000  Uiso   1.00
H209   H     0.92453   0.19134   0.16918   0.00000  Uiso   1.00
H210   H     0.97142   0.19322   0.13976   0.00000  Uiso   1.00
H211   H     0.74479   0.10888   0.33329   0.00000  Uiso   1.00
H212   H     0.73417   0.12976   0.38847   0.00000  Uiso   1.00
H213   H     0.69279   0.10514   0.35599   0.00000  Uiso   1.00
H214   H     0.74214   0.19134   0.33082   0.00000  Uiso   1.00
H215   H     0.69525   0.19321   0.36024   0.00000  Uiso   1.00
H216   H     0.85639   0.23547   0.46992   0.00000  Uiso   1.00
H217   H     0.85663   0.09803   0.02978   0.00000  Uiso   1.00
H218   H     0.81246   0.23616   0.11068   0.00000  Uiso   1.00
H219   H     0.81180   0.09736   0.38957   0.00000  Uiso   1.00
H220   H     0.85421   0.23616   0.38932   0.00000  Uiso   1.00
H221   H     0.85486   0.09736   0.11043   0.00000  Uiso   1.00
H222   H     0.69489   0.23985   0.15270   0.00000  Uiso   1.00
N223   N     0.83333   0.28573   0.25000   0.00000  Uiso   1.00
N224   N     0.83333   0.04760   0.25000   0.00000  Uiso   1.00
O225   O     0.77226   0.20487   0.24999   0.00000  Uiso   1.00
O226   O     0.89441   0.12846   0.25001   0.00000  Uiso   1.00
O227   O     0.89441   0.20487   0.25001   0.00000  Uiso   1.00
O228   O     0.77226   0.12846   0.25000   0.00000  Uiso   1.00
O229   O     0.83333   0.20489   0.18453   0.00000  Uiso   1.00
O230   O     0.83334   0.12845   0.31547   0.00000  Uiso   1.00
O231   O     0.83334   0.20489   0.31547   0.00000  Uiso   1.00
O232   O     0.83333   0.12845   0.18453   0.00000  Uiso   1.00
Zn233  Zn    0.83333   0.21771   0.25000   0.00000  Uiso   1.00
Zn234  Zn    0.83333   0.11563   0.25000   0.00000  Uiso   1.00
C235   C     0.08685   0.50010   0.25047   0.00000  Uiso   1.00
C236   C     0.31110   0.50180   0.29122   0.00000  Uiso   1.00
C237   C     0.31187   0.50273   0.20852   0.00000  Uiso   1.00
C238   C     0.02147   0.50272   0.29148   0.00000  Uiso   1.00
C239   C     0.15426   0.53885   0.04732   0.00000  Uiso   1.00
C240   C     0.15400   0.46129   0.45284   0.00000  Uiso   1.00
C241   C     0.17907   0.53885   0.45268   0.00000  Uiso   1.00
C242   C     0.17932   0.46129   0.04716   0.00000  Uiso   1.00
C243   C     0.15508   0.53909   0.09320   0.00000  Uiso   1.00
C244   C     0.15467   0.46102   0.40694   0.00000  Uiso   1.00
C245   C     0.17825   0.53909   0.40680   0.00000  Uiso   1.00
C246   C     0.24648   0.50010   0.24954   0.00000  Uiso   1.00
C247   C     0.17866   0.46102   0.09306   0.00000  Uiso   1.00
C248   C     0.16685   0.50003   0.11610   0.00000  Uiso   1.00
C249   C     0.16648   0.50003   0.38390   0.00000  Uiso   1.00
C250   C     0.16672   0.50006   0.02412   0.00000  Uiso   1.00
C251   C     0.16660   0.50006   0.47588   0.00000  Uiso   1.00
C252   C     0.29068   0.50078   0.24973   0.00000  Uiso   1.00
C253   C     0.04265   0.50078   0.25027   0.00000  Uiso   1.00
C254   C     0.04728   0.50330   0.16532   0.00000  Uiso   1.00
C255   C     0.05676   0.55192   0.15143   0.00000  Uiso   1.00
C256   C     0.28605   0.50329   0.33468   0.00000  Uiso   1.00
C257   C     0.16679   0.50000   0.16396   0.00000  Uiso   1.00
C258   C     0.27657   0.55191   0.34858   0.00000  Uiso   1.00
C259   C     0.28772   0.50615   0.16481   0.00000  Uiso   1.00
C260   C     0.27857   0.45955   0.14563   0.00000  Uiso   1.00
C261   C     0.04561   0.50615   0.33519   0.00000  Uiso   1.00
C262   C     0.05476   0.45955   0.35437   0.00000  Uiso   1.00
C263   C     0.16655   0.50000   0.33604   0.00000  Uiso   1.00
C264   C     0.14435   0.35717   0.28105   0.00000  Uiso   1.00
C265   C     0.18918   0.64265   0.21909   0.00000  Uiso   1.00
C266   C     0.18898   0.35717   0.21895   0.00000  Uiso   1.00
C267   C     0.14415   0.64265   0.28091   0.00000  Uiso   1.00
C268   C     0.02224   0.50180   0.20878   0.00000  Uiso   1.00
F269   F     0.12218   0.37944   0.31248   0.00000  Uiso   1.00
F270   F     0.21201   0.62006   0.18822   0.00000  Uiso   1.00
F271   F     0.21116   0.37944   0.18752   0.00000  Uiso   1.00
F272   F     0.12132   0.62006   0.31178   0.00000  Uiso   1.00
H273   H     0.14360   0.56881   0.03008   0.00000  Uiso   1.00
H274   H     0.08059   0.56703   0.17358   0.00000  Uiso   1.00
H275   H     0.06894   0.55226   0.11683   0.00000  Uiso   1.00
H276   H     0.07701   0.48427   0.16808   0.00000  Uiso   1.00
H277   H     0.03074   0.48593   0.13794   0.00000  Uiso   1.00
H278   H     0.25274   0.56702   0.32642   0.00000  Uiso   1.00
H279   H     0.26439   0.55224   0.38318   0.00000  Uiso   1.00
H280   H     0.30510   0.57317   0.34730   0.00000  Uiso   1.00
H281   H     0.25633   0.48426   0.33192   0.00000  Uiso   1.00
H282   H     0.30260   0.48592   0.36206   0.00000  Uiso   1.00
H283   H     0.30721   0.43848   0.14400   0.00000  Uiso   1.00
H284   H     0.14336   0.43136   0.47022   0.00000  Uiso   1.00
H285   H     0.25522   0.44222   0.16671   0.00000  Uiso   1.00
H286   H     0.26583   0.46310   0.11153   0.00000  Uiso   1.00
H287   H     0.25786   0.52468   0.16918   0.00000  Uiso   1.00
H288   H     0.30475   0.52655   0.13976   0.00000  Uiso   1.00
H289   H     0.07812   0.44222   0.33329   0.00000  Uiso   1.00
H290   H     0.06750   0.46309   0.38847   0.00000  Uiso   1.00
H291   H     0.02613   0.43847   0.35599   0.00000  Uiso   1.00
H292   H     0.07547   0.52467   0.33082   0.00000  Uiso   1.00
H293   H     0.02858   0.52655   0.36024   0.00000  Uiso   1.00
H294   H     0.18972   0.56881   0.46992   0.00000  Uiso   1.00
H295   H     0.18996   0.43136   0.02978   0.00000  Uiso   1.00
H296   H     0.14579   0.56949   0.11068   0.00000  Uiso   1.00
H297   H     0.14513   0.43070   0.38957   0.00000  Uiso   1.00
H298   H     0.18754   0.56949   0.38932   0.00000  Uiso   1.00
H299   H     0.18820   0.43070   0.11043   0.00000  Uiso   1.00
H300   H     0.02823   0.57318   0.15270   0.00000  Uiso   1.00
N301   N     0.16667   0.61907   0.25000   0.00000  Uiso   1.00
N302   N     0.16667   0.38093   0.25000   0.00000  Uiso   1.00
O303   O     0.10559   0.53821   0.24999   0.00000  Uiso   1.00
O304   O     0.22774   0.46179   0.25001   0.00000  Uiso   1.00
O305   O     0.22774   0.53821   0.25001   0.00000  Uiso   1.00
O306   O     0.10559   0.46179   0.25000   0.00000  Uiso   1.00
O307   O     0.16666   0.53822   0.18453   0.00000  Uiso   1.00
O308   O     0.16667   0.46178   0.31547   0.00000  Uiso   1.00
O309   O     0.16667   0.53822   0.31547   0.00000  Uiso   1.00
O310   O     0.16666   0.46178   0.18453   0.00000  Uiso   1.00
Zn311  Zn    0.16667   0.55104   0.25000   0.00000  Uiso   1.00
Zn312  Zn    0.16667   0.44896   0.25000   0.00000  Uiso   1.00
C313   C     0.42019   0.50010   0.25047   0.00000  Uiso   1.00
C314   C     0.64443   0.50180   0.29122   0.00000  Uiso   1.00
C315   C     0.64520   0.50273   0.20852   0.00000  Uiso   1.00
C316   C     0.35480   0.50272   0.29148   0.00000  Uiso   1.00
C317   C     0.48759   0.53885   0.04732   0.00000  Uiso   1.00
C318   C     0.48734   0.46129   0.45284   0.00000  Uiso   1.00
C319   C     0.51240   0.53885   0.45268   0.00000  Uiso   1.00
C320   C     0.51266   0.46129   0.04716   0.00000  Uiso   1.00
C321   C     0.48842   0.53909   0.09320   0.00000  Uiso   1.00
C322   C     0.48801   0.46102   0.40694   0.00000  Uiso   1.00
C323   C     0.51158   0.53909   0.40680   0.00000  Uiso   1.00
C324   C     0.57981   0.50010   0.24954   0.00000  Uiso   1.00
C325   C     0.51199   0.46102   0.09306   0.00000  Uiso   1.00
C326   C     0.50018   0.50003   0.11610   0.00000  Uiso   1.00
C327   C     0.49982   0.50003   0.38390   0.00000  Uiso   1.00
C328   C     0.50005   0.50006   0.02412   0.00000  Uiso   1.00
C329   C     0.49994   0.50006   0.47588   0.00000  Uiso   1.00
C330   C     0.62401   0.50078   0.24973   0.00000  Uiso   1.00
C331   C     0.37599   0.50078   0.25027   0.00000  Uiso   1.00
C332   C     0.38062   0.50330   0.16532   0.00000  Uiso   1.00
C333   C     0.39009   0.55192   0.15143   0.00000  Uiso   1.00
C334   C     0.61938   0.50329   0.33468   0.00000  Uiso   1.00
C335   C     0.50012   0.50000   0.16396   0.00000  Uiso   1.00
C336   C     0.60990   0.55191   0.34858   0.00000  Uiso   1.00
C337   C     0.62106   0.50615   0.16481   0.00000  Uiso   1.00
C338   C     0.61191   0.45955   0.14563   0.00000  Uiso   1.00
C339   C     0.37894   0.50615   0.33519   0.00000  Uiso   1.00
C340   C     0.38809   0.45955   0.35437   0.00000  Uiso   1.00
C341   C     0.49988   0.50000   0.33604   0.00000  Uiso   1.00
C342   C     0.47768   0.35717   0.28105   0.00000  Uiso   1.00
C343   C     0.52252   0.64265   0.21909   0.00000  Uiso   1.00
C344   C     0.52232   0.35717   0.21895   0.00000  Uiso   1.00
C345   C     0.47748   0.64265   0.28091   0.00000  Uiso   1.00
C346   C     0.35557   0.50180   0.20878   0.00000  Uiso   1.00
F347   F     0.45551   0.37944   0.31248   0.00000  Uiso   1.00
F348   F     0.54534   0.62006   0.18822   0.00000  Uiso   1.00
F349   F     0.54449   0.37944   0.18752   0.00000  Uiso   1.00
F350   F     0.45466   0.62006   0.31178   0.00000  Uiso   1.00
H351   H     0.47693   0.56881   0.03008   0.00000  Uiso   1.00
H352   H     0.41393   0.56703   0.17358   0.00000  Uiso   1.00
H353   H     0.40227   0.55226   0.11683   0.00000  Uiso   1.00
H354   H     0.41034   0.48427   0.16808   0.00000  Uiso   1.00
H355   H     0.36407   0.48593   0.13794   0.00000  Uiso   1.00
H356   H     0.58607   0.56702   0.32642   0.00000  Uiso   1.00
H357   H     0.59773   0.55224   0.38318   0.00000  Uiso   1.00
H358   H     0.63843   0.57317   0.34730   0.00000  Uiso   1.00
H359   H     0.58966   0.48426   0.33192   0.00000  Uiso   1.00
H360   H     0.63593   0.48592   0.36206   0.00000  Uiso   1.00
H361   H     0.64054   0.43848   0.14400   0.00000  Uiso   1.00
H362   H     0.47670   0.43136   0.47022   0.00000  Uiso   1.00
H363   H     0.58856   0.44222   0.16671   0.00000  Uiso   1.00
H364   H     0.59916   0.46310   0.11153   0.00000  Uiso   1.00
H365   H     0.59120   0.52468   0.16918   0.00000  Uiso   1.00
H366   H     0.63808   0.52655   0.13976   0.00000  Uiso   1.00
H367   H     0.41145   0.44222   0.33329   0.00000  Uiso   1.00
H368   H     0.40083   0.46309   0.38847   0.00000  Uiso   1.00
H369   H     0.35946   0.43847   0.35599   0.00000  Uiso   1.00
H370   H     0.40880   0.52467   0.33082   0.00000  Uiso   1.00
H371   H     0.36191   0.52655   0.36024   0.00000  Uiso   1.00
H372   H     0.52306   0.56881   0.46992   0.00000  Uiso   1.00
H373   H     0.52330   0.43136   0.02978   0.00000  Uiso   1.00
H374   H     0.47912   0.56949   0.11068   0.00000  Uiso   1.00
H375   H     0.47847   0.43070   0.38957   0.00000  Uiso   1.00
H376   H     0.52087   0.56949   0.38932   0.00000  Uiso   1.00
H377   H     0.52153   0.43070   0.11043   0.00000  Uiso   1.00
H378   H     0.36156   0.57318   0.15270   0.00000  Uiso   1.00
N379   N     0.50000   0.61907   0.25000   0.00000  Uiso   1.00
N380   N     0.50000   0.38093   0.25000   0.00000  Uiso   1.00
O381   O     0.43892   0.53821   0.24999   0.00000  Uiso   1.00
O382   O     0.56108   0.46179   0.25001   0.00000  Uiso   1.00
O383   O     0.56108   0.53821   0.25001   0.00000  Uiso   1.00
O384   O     0.43892   0.46179   0.25000   0.00000  Uiso   1.00
O385   O     0.50000   0.53822   0.18453   0.00000  Uiso   1.00
O386   O     0.50000   0.46178   0.31547   0.00000  Uiso   1.00
O387   O     0.50000   0.53822   0.31547   0.00000  Uiso   1.00
O388   O     0.50000   0.46178   0.18453   0.00000  Uiso   1.00
Zn389  Zn    0.50000   0.55104   0.25000   0.00000  Uiso   1.00
Zn390  Zn    0.50000   0.44896   0.25000   0.00000  Uiso   1.00
C391   C     0.75352   0.50010   0.25047   0.00000  Uiso   1.00
C392   C     0.97776   0.50180   0.29122   0.00000  Uiso   1.00
C393   C     0.97853   0.50273   0.20852   0.00000  Uiso   1.00
C394   C     0.68813   0.50272   0.29148   0.00000  Uiso   1.00
C395   C     0.82092   0.53885   0.04732   0.00000  Uiso   1.00
C396   C     0.82067   0.46129   0.45284   0.00000  Uiso   1.00
C397   C     0.84574   0.53885   0.45268   0.00000  Uiso   1.00
C398   C     0.84599   0.46129   0.04716   0.00000  Uiso   1.00
C399   C     0.82175   0.53909   0.09320   0.00000  Uiso   1.00
C400   C     0.82134   0.46102   0.40694   0.00000  Uiso   1.00
C401   C     0.84491   0.53909   0.40680   0.00000  Uiso   1.00
C402   C     0.91315   0.50010   0.24954   0.00000  Uiso   1.00
C403   C     0.84532   0.46102   0.09306   0.00000  Uiso   1.00
C404   C     0.83351   0.50003   0.11610   0.00000  Uiso   1.00
C405   C     0.83315   0.50003   0.38390   0.00000  Uiso   1.00
C406   C     0.83339   0.50006   0.02412   0.00000  Uiso   1.00
C407   C     0.83327   0.50006   0.47588   0.00000  Uiso   1.00
C408   C     0.95735   0.50078   0.24973   0.00000  Uiso   1.00
C409   C     0.70932   0.50078   0.25027   0.00000  Uiso   1.00
C410   C     0.71395   0.50330   0.16532   0.00000  Uiso   1.00
C411   C     0.72343   0.55192   0.15143   0.00000  Uiso   1.00
C412   C     0.95272   0.50329   0.33468   0.00000  Uiso   1.00
C413   C     0.83345   0.50000   0.16396   0.00000  Uiso   1.00
C414   C     0.94324   0.55191   0.34858   0.00000  Uiso   1.00
C415   C     0.95439   0.50615   0.16481   0.00000  Uiso   1.00
C416   C     0.94524   0.45955   0.14563   0.00000  Uiso   1.00
C417   C     0.71228   0.50615   0.33519   0.00000  Uiso   1.00
C418   C     0.72143   0.45955   0.35437   0.00000  Uiso   1.00
C419   C     0.83321   0.50000   0.33604   0.00000  Uiso   1.00
C420   C     0.81102   0.35717   0.28105   0.00000  Uiso   1.00
C421   C     0.85585   0.64265   0.21909   0.00000  Uiso   1.00
C422   C     0.85565   0.35717   0.21895   0.00000  Uiso   1.00
C423   C     0.81082   0.64265   0.28091   0.00000  Uiso   1.00
C424   C     0.68890   0.50180   0.20878   0.00000  Uiso   1.00
F425   F     0.78884   0.37944   0.31248   0.00000  Uiso   1.00
F426   F     0.87868   0.62006   0.18822   0.00000  Uiso   1.00
F427   F     0.87782   0.37944   0.18752   0.00000  Uiso   1.00
F428   F     0.78799   0.62006   0.31178   0.00000  Uiso   1.00
H429   H     0.81027   0.56881   0.03008   0.00000  Uiso   1.00
H430   H     0.74726   0.56703   0.17358   0.00000  Uiso   1.00
H431   H     0.73560   0.55226   0.11683   0.00000  Uiso   1.00
H432   H     0.74367   0.48427   0.16808   0.00000  Uiso   1.00
H433   H     0.69741   0.48593   0.13794   0.00000  Uiso   1.00
H434   H     0.91940   0.56702   0.32642   0.00000  Uiso   1.00
H435   H     0.93106   0.55224   0.38318   0.00000  Uiso   1.00
H436   H     0.97177   0.57317   0.34730   0.00000  Uiso   1.00
H437   H     0.92300   0.48426   0.33192   0.00000  Uiso   1.00
H438   H     0.96926   0.48592   0.36206   0.00000  Uiso   1.00
H439   H     0.97388   0.43848   0.14400   0.00000  Uiso   1.00
H440   H     0.81003   0.43136   0.47022   0.00000  Uiso   1.00
H441   H     0.92189   0.44222   0.16671   0.00000  Uiso   1.00
H442   H     0.93250   0.46310   0.11153   0.00000  Uiso   1.00
H443   H     0.92453   0.52468   0.16918   0.00000  Uiso   1.00
H444   H     0.97142   0.52655   0.13976   0.00000  Uiso   1.00
H445   H     0.74479   0.44222   0.33329   0.00000  Uiso   1.00
H446   H     0.73417   0.46309   0.38847   0.00000  Uiso   1.00
H447   H     0.69279   0.43847   0.35599   0.00000  Uiso   1.00
H448   H     0.74214   0.52467   0.33082   0.00000  Uiso   1.00
H449   H     0.69525   0.52655   0.36024   0.00000  Uiso   1.00
H450   H     0.85639   0.56881   0.46992   0.00000  Uiso   1.00
H451   H     0.85663   0.43136   0.02978   0.00000  Uiso   1.00
H452   H     0.81246   0.56949   0.11068   0.00000  Uiso   1.00
H453   H     0.81180   0.43070   0.38957   0.00000  Uiso   1.00
H454   H     0.85421   0.56949   0.38932   0.00000  Uiso   1.00
H455   H     0.85486   0.43070   0.11043   0.00000  Uiso   1.00
H456   H     0.69489   0.57318   0.15270   0.00000  Uiso   1.00
N457   N     0.83333   0.61907   0.25000   0.00000  Uiso   1.00
N458   N     0.83333   0.38093   0.25000   0.00000  Uiso   1.00
O459   O     0.77226   0.53821   0.24999   0.00000  Uiso   1.00
O460   O     0.89441   0.46179   0.25001   0.00000  Uiso   1.00
O461   O     0.89441   0.53821   0.25001   0.00000  Uiso   1.00
O462   O     0.77226   0.46179   0.25000   0.00000  Uiso   1.00
O463   O     0.83333   0.53822   0.18453   0.00000  Uiso   1.00
O464   O     0.83334   0.46178   0.31547   0.00000  Uiso   1.00
O465   O     0.83334   0.53822   0.31547   0.00000  Uiso   1.00
O466   O     0.83333   0.46178   0.18453   0.00000  Uiso   1.00
Zn467  Zn    0.83333   0.55104   0.25000   0.00000  Uiso   1.00
Zn468  Zn    0.83333   0.44896   0.25000   0.00000  Uiso   1.00
C469   C     0.08685   0.83343   0.25047   0.00000  Uiso   1.00
C470   C     0.31110   0.83513   0.29122   0.00000  Uiso   1.00
C471   C     0.31187   0.83606   0.20852   0.00000  Uiso   1.00
C472   C     0.02147   0.83606   0.29148   0.00000  Uiso   1.00
C473   C     0.15426   0.87218   0.04732   0.00000  Uiso   1.00
C474   C     0.15400   0.79462   0.45284   0.00000  Uiso   1.00
C475   C     0.17907   0.87218   0.45268   0.00000  Uiso   1.00
C476   C     0.17932   0.79462   0.04716   0.00000  Uiso   1.00
C477   C     0.15508   0.87243   0.09320   0.00000  Uiso   1.00
C478   C     0.15467   0.79436   0.40694   0.00000  Uiso   1.00
C479   C     0.17825   0.87243   0.40680   0.00000  Uiso   1.00
C480   C     0.24648   0.83343   0.24954   0.00000  Uiso   1.00
C481   C     0.17866   0.79436   0.09306   0.00000  Uiso   1.00
C482   C     0.16685   0.83337   0.11610   0.00000  Uiso   1.00
C483   C     0.16648   0.83337   0.38390   0.00000  Uiso   1.00
C484   C     0.16672   0.83340   0.02412   0.00000  Uiso   1.00
C485   C     0.16660   0.83340   0.47588   0.00000  Uiso   1.00
C486   C     0.29068   0.83412   0.24973   0.00000  Uiso   1.00
C487   C     0.04265   0.83412   0.25027   0.00000  Uiso   1.00
C488   C     0.04728   0.83663   0.16532   0.00000  Uiso   1.00
C489   C     0.05676   0.88525   0.15143   0.00000  Uiso   1.00
C490   C     0.28605   0.83662   0.33468   0.00000  Uiso   1.00
C491   C     0.16679   0.83334   0.16396   0.00000  Uiso   1.00
C492   C     0.27657   0.88524   0.34858   0.00000  Uiso   1.00
C493   C     0.28772   0.83949   0.16481   0.00000  Uiso   1.00
C494   C     0.27857   0.79288   0.14563   0.00000  Uiso   1.00
C495   C     0.04561   0.83948   0.33519   0.00000  Uiso   1.00
C496   C     0.05476   0.79288   0.35437   0.00000  Uiso   1.00
C497   C     0.16655   0.83334   0.33604   0.00000  Uiso   1.00
C498   C     0.14435   0.69050   0.28105   0.00000  Uiso   1.00
C499   C     0.18918   0.97599   0.21909   0.00000  Uiso   1.00
C500   C     0.18898   0.69050   0.21895   0.00000  Uiso   1.00
C501   C     0.14415   0.97599   0.28091   0.00000  Uiso   1.00
C502   C     0.02224   0.83514   0.20878   0.00000  Uiso   1.00
F503   F     0.12218   0.71278   0.31248   0.00000  Uiso   1.00
F504   F     0.21201   0.95340   0.18822   0.00000  Uiso   1.00
F505   F     0.21116   0.71278   0.18752   0.00000  Uiso   1.00
F506   F     0.12132   0.95339   0.31178   0.00000  Uiso   1.00
H507   H     0.14360   0.90214   0.03008   0.00000  Uiso   1.00
H508   H     0.08059   0.90037   0.17358   0.00000  Uiso   1.00
H509   H     0.06894   0.88559   0.11683   0.00000  Uiso   1.00
H510   H     0.07701   0.81761   0.16808   0.00000  Uiso   1.00
H511   H     0.03074   0.81926   0.13794   0.00000  Uiso   1.00
H512   H     0.25274   0.90036   0.32642   0.00000  Uiso   1.00
H513   H     0.26439   0.88557   0.38318   0.00000  Uiso   1.00
H514   H     0.30510   0.90651   0.34730   0.00000  Uiso   1.00
H515   H     0.25633   0.81760   0.33192   0.00000  Uiso   1.00
H516   H     0.30260   0.81925   0.36206   0.00000  Uiso   1.00
H517   H     0.30721   0.77182   0.14400   0.00000  Uiso   1.00
H518   H     0.14336   0.76469   0.47022   0.00000  Uiso   1.00
H519   H     0.25522   0.77555   0.16671   0.00000  Uiso   1.00
H520   H     0.26583   0.79643   0.11153   0.00000  Uiso   1.00
H521   H     0.25786   0.85801   0.16918   0.00000  Uiso   1.00
H522   H     0.30475   0.85989   0.13976   0.00000  Uiso   1.00
H523   H     0.07812   0.77555   0.33329   0.00000  Uiso   1.00
H524   H     0.06750   0.79642   0.38847   0.00000  Uiso   1.00
H525   H     0.02613   0.77181   0.35599   0.00000  Uiso   1.00
H526   H     0.07547   0.85801   0.33082   0.00000  Uiso   1.00
H527   H     0.02858   0.85988   0.36024   0.00000  Uiso   1.00
H528   H     0.18972   0.90214   0.46992   0.00000  Uiso   1.00
H529   H     0.18996   0.76469   0.02978   0.00000  Uiso   1.00
H530   H     0.14579   0.90282   0.11068   0.00000  Uiso   1.00
H531   H     0.14513   0.76403   0.38957   0.00000  Uiso   1.00
H532   H     0.18754   0.90282   0.38932   0.00000  Uiso   1.00
H533   H     0.18820   0.76403   0.11043   0.00000  Uiso   1.00
H534   H     0.02823   0.90652   0.15270   0.00000  Uiso   1.00
N535   N     0.16667   0.95240   0.25000   0.00000  Uiso   1.00
N536   N     0.16667   0.71427   0.25000   0.00000  Uiso   1.00
O537   O     0.10559   0.87154   0.24999   0.00000  Uiso   1.00
O538   O     0.22774   0.79513   0.25001   0.00000  Uiso   1.00
O539   O     0.22774   0.87154   0.25001   0.00000  Uiso   1.00
O540   O     0.10559   0.79513   0.25000   0.00000  Uiso   1.00
O541   O     0.16666   0.87155   0.18453   0.00000  Uiso   1.00
O542   O     0.16667   0.79511   0.31547   0.00000  Uiso   1.00
O543   O     0.16667   0.87155   0.31547   0.00000  Uiso   1.00
O544   O     0.16666   0.79511   0.18453   0.00000  Uiso   1.00
Zn545  Zn    0.16667   0.88437   0.25000   0.00000  Uiso   1.00
Zn546  Zn    0.16667   0.78229   0.25000   0.00000  Uiso   1.00
C547   C     0.42019   0.83343   0.25047   0.00000  Uiso   1.00
C548   C     0.64443   0.83513   0.29122   0.00000  Uiso   1.00
C549   C     0.64520   0.83606   0.20852   0.00000  Uiso   1.00
C550   C     0.35480   0.83606   0.29148   0.00000  Uiso   1.00
C551   C     0.48759   0.87218   0.04732   0.00000  Uiso   1.00
C552   C     0.48734   0.79462   0.45284   0.00000  Uiso   1.00
C553   C     0.51240   0.87218   0.45268   0.00000  Uiso   1.00
C554   C     0.51266   0.79462   0.04716   0.00000  Uiso   1.00
C555   C     0.48842   0.87243   0.09320   0.00000  Uiso   1.00
C556   C     0.48801   0.79436   0.40694   0.00000  Uiso   1.00
C557   C     0.51158   0.87243   0.40680   0.00000  Uiso   1.00
C558   C     0.57981   0.83343   0.24954   0.00000  Uiso   1.00
C559   C     0.51199   0.79436   0.09306   0.00000  Uiso   1.00
C560   C     0.50018   0.83337   0.11610   0.00000  Uiso   1.00
C561   C     0.49982   0.83337   0.38390   0.00000  Uiso   1.00
C562   C     0.50005   0.83340   0.02412   0.00000  Uiso   1.00
C563   C     0.49994   0.83340   0.47588   0.00000  Uiso   1.00
C564   C     0.62401   0.83412   0.24973   0.00000  Uiso   1.00
C565   C     0.37599   0.83412   0.25027   0.00000  Uiso   1.00
C566   C     0.38062   0.83663   0.16532   0.00000  Uiso   1.00
C567   C     0.39009   0.88525   0.15143   0.00000  Uiso   1.00
C568   C     0.61938   0.83662   0.33468   0.00000  Uiso   1.00
C569   C     0.50012   0.83334   0.16396   0.00000  Uiso   1.00
C570   C     0.60990   0.88524   0.34858   0.00000  Uiso   1.00
C571   C     0.62106   0.83949   0.16481   0.00000  Uiso   1.00
C572   C     0.61191   0.79288   0.14563   0.00000  Uiso   1.00
C573   C     0.37894   0.83948   0.33519   0.00000  Uiso   1.00
C574   C     0.38809   0.79288   0.35437   0.00000  Uiso   1.00
C575   C     0.49988   0.83334   0.33604   0.00000  Uiso   1.00
C576   C     0.47768   0.69050   0.28105   0.00000  Uiso   1.00
C577   C     0.52252   0.97599   0.21909   0.00000  Uiso   1.00
C578   C     0.52232   0.69050   0.21895   0.00000  Uiso   1.00
C579   C     0.47748   0.97599   0.28091   0.00000  Uiso   1.00
C580   C     0.35557   0.83514   0.20878   0.00000  Uiso   1.00
F581   F     0.45551   0.71278   0.31248   0.00000  Uiso   1.00
F582   F     0.54534   0.95340   0.18822   0.00000  Uiso   1.00
F583   F     0.54449   0.71278   0.18752   0.00000  Uiso   1.00
F584   F     0.45466   0.95339   0.31178   0.00000  Uiso   1.00
H585   H     0.47693   0.90214   0.03008   0.00000  Uiso   1.00
H586   H     0.41393   0.90037   0.17358   0.00000  Uiso   1.00
H587   H     0.40227   0.88559   0.11683   0.00000  Uiso   1.00
H588   H     0.41034   0.81761   0.16808   0.00000  Uiso   1.00
H589   H     0.36407   0.81926   0.13794   0.00000  Uiso   1.00
H590   H     0.58607   0.90036   0.32642   0.00000  Uiso   1.00
H591   H     0.59773   0.88557   0.38318   0.00000  Uiso   1.00
H592   H     0.63843   0.90651   0.34730   0.00000  Uiso   1.00
H593   H     0.58966   0.81760   0.33192   0.00000  Uiso   1.00
H594   H     0.63593   0.81925   0.36206   0.00000  Uiso   1.00
H595   H     0.64054   0.77182   0.14400   0.00000  Uiso   1.00
H596   H     0.47670   0.76469   0.47022   0.00000  Uiso   1.00
H597   H     0.58856   0.77555   0.16671   0.00000  Uiso   1.00
H598   H     0.59916   0.79643   0.11153   0.00000  Uiso   1.00
H599   H     0.59120   0.85801   0.16918   0.00000  Uiso   1.00
H600   H     0.63808   0.85989   0.13976   0.00000  Uiso   1.00
H601   H     0.41145   0.77555   0.33329   0.00000  Uiso   1.00
H602   H     0.40083   0.79642   0.38847   0.00000  Uiso   1.00
H603   H     0.35946   0.77181   0.35599   0.00000  Uiso   1.00
H604   H     0.40880   0.85801   0.33082   0.00000  Uiso   1.00
H605   H     0.36191   0.85988   0.36024   0.00000  Uiso   1.00
H606   H     0.52306   0.90214   0.46992   0.00000  Uiso   1.00
H607   H     0.52330   0.76469   0.02978   0.00000  Uiso   1.00
H608   H     0.47912   0.90282   0.11068   0.00000  Uiso   1.00
H609   H     0.47847   0.76403   0.38957   0.00000  Uiso   1.00
H610   H     0.52087   0.90282   0.38932   0.00000  Uiso   1.00
H611   H     0.52153   0.76403   0.11043   0.00000  Uiso   1.00
H612   H     0.36156   0.90652   0.15270   0.00000  Uiso   1.00
N613   N     0.50000   0.95240   0.25000   0.00000  Uiso   1.00
N614   N     0.50000   0.71427   0.25000   0.00000  Uiso   1.00
O615   O     0.43892   0.87154   0.24999   0.00000  Uiso   1.00
O616   O     0.56108   0.79513   0.25001   0.00000  Uiso   1.00
O617   O     0.56108   0.87154   0.25001   0.00000  Uiso   1.00
O618   O     0.43892   0.79513   0.25000   0.00000  Uiso   1.00
O619   O     0.50000   0.87155   0.18453   0.00000  Uiso   1.00
O620   O     0.50000   0.79511   0.31547   0.00000  Uiso   1.00
O621   O     0.50000   0.87155   0.31547   0.00000  Uiso   1.00
O622   O     0.50000   0.79511   0.18453   0.00000  Uiso   1.00
Zn623  Zn    0.50000   0.88437   0.25000   0.00000  Uiso   1.00
Zn624  Zn    0.50000   0.78229   0.25000   0.00000  Uiso   1.00
C625   C     0.75352   0.83343   0.25047   0.00000  Uiso   1.00
C626   C     0.97776   0.83513   0.29122   0.00000  Uiso   1.00
C627   C     0.97853   0.83606   0.20852   0.00000  Uiso   1.00
C628   C     0.68813   0.83606   0.29148   0.00000  Uiso   1.00
C629   C     0.82092   0.87218   0.04732   0.00000  Uiso   1.00
C630   C     0.82067   0.79462   0.45284   0.00000  Uiso   1.00
C631   C     0.84574   0.87218   0.45268   0.00000  Uiso   1.00
C632   C     0.84599   0.79462   0.04716   0.00000  Uiso   1.00
C633   C     0.82175   0.87243   0.09320   0.00000  Uiso   1.00
C634   C     0.82134   0.79436   0.40694   0.00000  Uiso   1.00
C635   C     0.84491   0.87243   0.40680   0.00000  Uiso   1.00
C636   C     0.91315   0.83343   0.24954   0.00000  Uiso   1.00
C637   C     0.84532   0.79436   0.09306   0.00000  Uiso   1.00
C638   C     0.83351   0.83337   0.11610   0.00000  Uiso   1.00
C639   C     0.83315   0.83337   0.38390   0.00000  Uiso   1.00
C640   C     0.83339   0.83340   0.02412   0.00000  Uiso   1.00
C641   C     0.83327   0.83340   0.47588   0.00000  Uiso   1.00
C642   C     0.95735   0.83412   0.24973   0.00000  Uiso   1.00
C643   C     0.70932   0.83412   0.25027   0.00000  Uiso   1.00
C644   C     0.71395   0.83663   0.16532   0.00000  Uiso   1.00
C645   C     0.72343   0.88525   0.15143   0.00000  Uiso   1.00
C646   C     0.95272   0.83662   0.33468   0.00000  Uiso   1.00
C647   C     0.83345   0.83334   0.16396   0.00000  Uiso   1.00
C648   C     0.94324   0.88524   0.34858   0.00000  Uiso   1.00
C649   C     0.95439   0.83949   0.16481   0.00000  Uiso   1.00
C650   C     0.94524   0.79288   0.14563   0.00000  Uiso   1.00
C651   C     0.71228   0.83948   0.33519   0.00000  Uiso   1.00
C652   C     0.72143   0.79288   0.35437   0.00000  Uiso   1.00
C653   C     0.83321   0.83334   0.33604   0.00000  Uiso   1.00
C654   C     0.81102   0.69050   0.28105   0.00000  Uiso   1.00
C655   C     0.85585   0.97599   0.21909   0.00000  Uiso   1.00
C656   C     0.85565   0.69050   0.21895   0.00000  Uiso   1.00
C657   C     0.81082   0.97599   0.28091   0.00000  Uiso   1.00
C658   C     0.68890   0.83514   0.20878   0.00000  Uiso   1.00
F659   F     0.78884   0.71278   0.31248   0.00000  Uiso   1.00
F660   F     0.87868   0.95340   0.18822   0.00000  Uiso   1.00
F661   F     0.87782   0.71278   0.18752   0.00000  Uiso   1.00
F662   F     0.78799   0.95339   0.31178   0.00000  Uiso   1.00
H663   H     0.81027   0.90214   0.03008   0.00000  Uiso   1.00
H664   H     0.74726   0.90037   0.17358   0.00000  Uiso   1.00
H665   H     0.73560   0.88559   0.11683   0.00000  Uiso   1.00
H666   H     0.74367   0.81761   0.16808   0.00000  Uiso   1.00
H667   H     0.69741   0.81926   0.13794   0.00000  Uiso   1.00
H668   H     0.91940   0.90036   0.32642   0.00000  Uiso   1.00
H669   H     0.93106   0.88557   0.38318   0.00000  Uiso   1.00
H670   H     0.97177   0.90651   0.34730   0.00000  Uiso   1.00
H671   H     0.92300   0.81760   0.33192   0.00000  Uiso   1.00
H672   H     0.96926   0.81925   0.36206   0.00000  Uiso   1.00
H673   H     0.97388   0.77182   0.14400   0.00000  Uiso   1.00
H674   H     0.81003   0.76469   0.47022   0.00000  Uiso   1.00
H675   H     0.92189   0.77555   0.16671   0.00000  Uiso   1.00
H676   H     0.93250   0.79643   0.11153   0.00000  Uiso   1.00
H677   H     0.92453   0.85801   0.16918   0.00000  Uiso   1.00
H678   H     0.97142   0.85989   0.13976   0.00000  Uiso   1.00
H679   H     0.74479   0.77555   0.33329   0.00000  Uiso   1.00
H680   H     0.73417   0.79642   0.38847   0.00000  Uiso   1.00
H681   H     0.69279   0.77181   0.35599   0.00000  Uiso   1.00
H682   H     0.74214   0.85801   0.33082   0.00000  Uiso   1.00
H683   H     0.69525   0.85988   0.36024   0.00000  Uiso   1.00
H684   H     0.85639   0.90214   0.46992   0.00000  Uiso   1.00
H685   H     0.85663   0.76469   0.02978   0.00000  Uiso   1.00
H686   H     0.81246   0.90282   0.11068   0.00000  Uiso   1.00
H687   H     0.81180   0.76403   0.38957   0.00000  Uiso   1.00
H688   H     0.85421   0.90282   0.38932   0.00000  Uiso   1.00
H689   H     0.85486   0.76403   0.11043   0.00000  Uiso   1.00
H690   H     0.69489   0.90652   0.15270   0.00000  Uiso   1.00
N691   N     0.83333   0.95240   0.25000   0.00000  Uiso   1.00
N692   N     0.83333   0.71427   0.25000   0.00000  Uiso   1.00
O693   O     0.77226   0.87154   0.24999   0.00000  Uiso   1.00
O694   O     0.89441   0.79513   0.25001   0.00000  Uiso   1.00
O695   O     0.89441   0.87154   0.25001   0.00000  Uiso   1.00
O696   O     0.77226   0.79513   0.25000   0.00000  Uiso   1.00
O697   O     0.83333   0.87155   0.18453   0.00000  Uiso   1.00
O698   O     0.83334   0.79511   0.31547   0.00000  Uiso   1.00
O699   O     0.83334   0.87155   0.31547   0.00000  Uiso   1.00
O700   O     0.83333   0.79511   0.18453   0.00000  Uiso   1.00
Zn701  Zn    0.83333   0.88437   0.25000   0.00000  Uiso   1.00
Zn702  Zn    0.83333   0.78229   0.25000   0.00000  Uiso   1.00
C703   C     0.08685   0.16677   0.75047   0.00000  Uiso   1.00
C704   C     0.31110   0.16847   0.79122   0.00000  Uiso   1.00
C705   C     0.31187   0.16939   0.70852   0.00000  Uiso   1.00
C706   C     0.02147   0.16939   0.79148   0.00000  Uiso   1.00
C707   C     0.15426   0.20551   0.54732   0.00000  Uiso   1.00
C708   C     0.15400   0.12796   0.95284   0.00000  Uiso   1.00
C709   C     0.17907   0.20551   0.95268   0.00000  Uiso   1.00
C710   C     0.17932   0.12796   0.54716   0.00000  Uiso   1.00
C711   C     0.15508   0.20576   0.59320   0.00000  Uiso   1.00
C712   C     0.15467   0.12769   0.90694   0.00000  Uiso   1.00
C713   C     0.17825   0.20576   0.90680   0.00000  Uiso   1.00
C714   C     0.24648   0.16677   0.74954   0.00000  Uiso   1.00
C715   C     0.17866   0.12769   0.59306   0.00000  Uiso   1.00
C716   C     0.16685   0.16670   0.61610   0.00000  Uiso   1.00
C717   C     0.16648   0.16670   0.88390   0.00000  Uiso   1.00
C718   C     0.16672   0.16673   0.52412   0.00000  Uiso   1.00
C719   C     0.16660   0.16673   0.97588   0.00000  Uiso   1.00
C720   C     0.29068   0.16745   0.74973   0.00000  Uiso   1.00
C721   C     0.04265   0.16745   0.75027   0.00000  Uiso   1.00
C722   C     0.04728   0.16997   0.66532   0.00000  Uiso   1.00
C723   C     0.05676   0.21858   0.65143   0.00000  Uiso   1.00
C724   C     0.28605   0.16996   0.83468   0.00000  Uiso   1.00
C725   C     0.16679   0.16667   0.66396   0.00000  Uiso   1.00
C726   C     0.27657   0.21857   0.84858   0.00000  Uiso   1.00
C727   C     0.28772   0.17282   0.66481   0.00000  Uiso   1.00
C728   C     0.27857   0.12622   0.64563   0.00000  Uiso   1.00
C729   C     0.04561   0.17282   0.83519   0.00000  Uiso   1.00
C730   C     0.05476   0.12621   0.85437   0.00000  Uiso   1.00
C731   C     0.16655   0.16667   0.83604   0.00000  Uiso   1.00
C732   C     0.14435   0.02383   0.78105   0.00000  Uiso   1.00
C733   C     0.18918   0.30932   0.71909   0.00000  Uiso   1.00
C734   C     0.18898   0.02383   0.71895   0.00000  Uiso   1.00
C735   C     0.14415   0.30932   0.78091   0.00000  Uiso   1.00
C736   C     0.02224   0.16847   0.70878   0.00000  Uiso   1.00
F737   F     0.12218   0.04611   0.81248   0.00000  Uiso   1.00
F738   F     0.21201   0.28673   0.68822   0.00000  Uiso   1.00
F739   F     0.21116   0.04611   0.68752   0.00000  Uiso   1.00
F740   F     0.12132   0.28673   0.81178   0.00000  Uiso   1.00
H741   H     0.14360   0.23547   0.53008   0.00000  Uiso   1.00
H742   H     0.08059   0.23370   0.67358   0.00000  Uiso   1.00
H743   H     0.06894   0.21892   0.61683   0.00000  Uiso   1.00
H744   H     0.07701   0.15094   0.66808   0.00000  Uiso   1.00
H745   H     0.03074   0.15259   0.63794   0.00000  Uiso   1.00
H746   H     0.25274   0.23369   0.82642   0.00000  Uiso   1.00
H747   H     0.26439   0.21891   0.88318   0.00000  Uiso   1.00
H748   H     0.30510   0.23984   0.84730   0.00000  Uiso   1.00
H749   H     0.25633   0.15093   0.83192   0.00000  Uiso   1.00
H750   H     0.30260   0.15258   0.86206   0.00000  Uiso   1.00
H751   H     0.30721   0.10515   0.64400   0.00000  Uiso   1.00
H752   H     0.14336   0.09803   0.97022   0.00000  Uiso   1.00
H753   H     0.25522   0.10888   0.66671   0.00000  Uiso   1.00
H754   H     0.26583   0.12976   0.61153   0.00000  Uiso   1.00
H755   H     0.25786   0.19134   0.66918   0.00000  Uiso   1.00
H756   H     0.30475   0.19322   0.63976   0.00000  Uiso   1.00
H757   H     0.07812   0.10888   0.83329   0.00000  Uiso   1.00
H758   H     0.06750   0.12976   0.88847   0.00000  Uiso   1.00
H759   H     0.02613   0.10514   0.85599   0.00000  Uiso   1.00
H760   H     0.07547   0.19134   0.83082   0.00000  Uiso   1.00
H761   H     0.02858   0.19321   0.86024   0.00000  Uiso   1.00
H762   H     0.18972   0.23547   0.96992   0.00000  Uiso   1.00
H763   H     0.18996   0.09803   0.52978   0.00000  Uiso   1.00
H764   H     0.14579   0.23616   0.61068   0.00000  Uiso   1.00
H765   H     0.14513   0.09736   0.88957   0.00000  Uiso   1.00
H766   H     0.18754   0.23616   0.88932   0.00000  Uiso   1.00
H767   H     0.18820   0.09736   0.61043   0.00000  Uiso   1.00
H768   H     0.02823   0.23985   0.65270   0.00000  Uiso   1.00
N769   N     0.16667   0.28573   0.75000   0.00000  Uiso   1.00
N770   N     0.16667   0.04760   0.75000   0.00000  Uiso   1.00
O771   O     0.10559   0.20487   0.74999   0.00000  Uiso   1.00
O772   O     0.22774   0.12846   0.75001   0.00000  Uiso   1.00
O773   O     0.22774   0.20487   0.75001   0.00000  Uiso   1.00
O774   O     0.10559   0.12846   0.75000   0.00000  Uiso   1.00
O775   O     0.16666   0.20489   0.68453   0.00000  Uiso   1.00
O776   O     0.16667   0.12845   0.81547   0.00000  Uiso   1.00
O777   O     0.16667   0.20489   0.81547   0.00000  Uiso   1.00
O778   O     0.16666   0.12845   0.68453   0.00000  Uiso   1.00
Zn779  Zn    0.16667   0.21771   0.75000   0.00000  Uiso   1.00
Zn780  Zn    0.16667   0.11563   0.75000   0.00000  Uiso   1.00
C781   C     0.42019   0.16677   0.75047   0.00000  Uiso   1.00
C782   C     0.64443   0.16847   0.79122   0.00000  Uiso   1.00
C783   C     0.64520   0.16939   0.70852   0.00000  Uiso   1.00
C784   C     0.35480   0.16939   0.79148   0.00000  Uiso   1.00
C785   C     0.48759   0.20551   0.54732   0.00000  Uiso   1.00
C786   C     0.48734   0.12796   0.95284   0.00000  Uiso   1.00
C787   C     0.51240   0.20551   0.95268   0.00000  Uiso   1.00
C788   C     0.51266   0.12796   0.54716   0.00000  Uiso   1.00
C789   C     0.48842   0.20576   0.59320   0.00000  Uiso   1.00
C790   C     0.48801   0.12769   0.90694   0.00000  Uiso   1.00
C791   C     0.51158   0.20576   0.90680   0.00000  Uiso   1.00
C792   C     0.57981   0.16677   0.74954   0.00000  Uiso   1.00
C793   C     0.51199   0.12769   0.59306   0.00000  Uiso   1.00
C794   C     0.50018   0.16670   0.61610   0.00000  Uiso   1.00
C795   C     0.49982   0.16670   0.88390   0.00000  Uiso   1.00
C796   C     0.50005   0.16673   0.52412   0.00000  Uiso   1.00
C797   C     0.49994   0.16673   0.97588   0.00000  Uiso   1.00
C798   C     0.62401   0.16745   0.74973   0.00000  Uiso   1.00
C799   C     0.37599   0.16745   0.75027   0.00000  Uiso   1.00
C800   C     0.38062   0.16997   0.66532   0.00000  Uiso   1.00
C801   C     0.39009   0.21858   0.65143   0.00000  Uiso   1.00
C802   C     0.61938   0.16996   0.83468   0.00000  Uiso   1.00
C803   C     0.50012   0.16667   0.66396   0.00000  Uiso   1.00
C804   C     0.60990   0.21857   0.84858   0.00000  Uiso   1.00
C805   C     0.62106   0.17282   0.66481   0.00000  Uiso   1.00
C806   C     0.61191   0.12622   0.64563   0.00000  Uiso   1.00
C807   C     0.37894   0.17282   0.83519   0.00000  Uiso   1.00
C808   C     0.38809   0.12621   0.85437   0.00000  Uiso   1.00
C809   C     0.49988   0.16667   0.83604   0.00000  Uiso   1.00
C810   C     0.47768   0.02383   0.78105   0.00000  Uiso   1.00
C811   C     0.52252   0.30932   0.71909   0.00000  Uiso   1.00
C812   C     0.52232   0.02383   0.71895   0.00000  Uiso   1.00
C813   C     0.47748   0.30932   0.78091   0.00000  Uiso   1.00
C814   C     0.35557   0.16847   0.70878   0.00000  Uiso   1.00
F815   F     0.45551   0.04611   0.81248   0.00000  Uiso   1.00
F816   F     0.54534   0.28673   0.68822   0.00000  Uiso   1.00
F817   F     0.54449   0.04611   0.68752   0.00000  Uiso   1.00
F818   F     0.45466   0.28673   0.81178   0.00000  Uiso   1.00
H819   H     0.47693   0.23547   0.53008   0.00000  Uiso   1.00
H820   H     0.41393   0.23370   0.67358   0.00000  Uiso   1.00
H821   H     0.40227   0.21892   0.61683   0.00000  Uiso   1.00
H822   H     0.41034   0.15094   0.66808   0.00000  Uiso   1.00
H823   H     0.36407   0.15259   0.63794   0.00000  Uiso   1.00
H824   H     0.58607   0.23369   0.82642   0.00000  Uiso   1.00
H825   H     0.59773   0.21891   0.88318   0.00000  Uiso   1.00
H826   H     0.63843   0.23984   0.84730   0.00000  Uiso   1.00
H827   H     0.58966   0.15093   0.83192   0.00000  Uiso   1.00
H828   H     0.63593   0.15258   0.86206   0.00000  Uiso   1.00
H829   H     0.64054   0.10515   0.64400   0.00000  Uiso   1.00
H830   H     0.47670   0.09803   0.97022   0.00000  Uiso   1.00
H831   H     0.58856   0.10888   0.66671   0.00000  Uiso   1.00
H832   H     0.59916   0.12976   0.61153   0.00000  Uiso   1.00
H833   H     0.59120   0.19134   0.66918   0.00000  Uiso   1.00
H834   H     0.63808   0.19322   0.63976   0.00000  Uiso   1.00
H835   H     0.41145   0.10888   0.83329   0.00000  Uiso   1.00
H836   H     0.40083   0.12976   0.88847   0.00000  Uiso   1.00
H837   H     0.35946   0.10514   0.85599   0.00000  Uiso   1.00
H838   H     0.40880   0.19134   0.83082   0.00000  Uiso   1.00
H839   H     0.36191   0.19321   0.86024   0.00000  Uiso   1.00
H840   H     0.52306   0.23547   0.96992   0.00000  Uiso   1.00
H841   H     0.52330   0.09803   0.52978   0.00000  Uiso   1.00
H842   H     0.47912   0.23616   0.61068   0.00000  Uiso   1.00
H843   H     0.47847   0.09736   0.88957   0.00000  Uiso   1.00
H844   H     0.52087   0.23616   0.88932   0.00000  Uiso   1.00
H845   H     0.52153   0.09736   0.61043   0.00000  Uiso   1.00
H846   H     0.36156   0.23985   0.65270   0.00000  Uiso   1.00
N847   N     0.50000   0.28573   0.75000   0.00000  Uiso   1.00
N848   N     0.50000   0.04760   0.75000   0.00000  Uiso   1.00
O849   O     0.43892   0.20487   0.74999   0.00000  Uiso   1.00
O850   O     0.56108   0.12846   0.75001   0.00000  Uiso   1.00
O851   O     0.56108   0.20487   0.75001   0.00000  Uiso   1.00
O852   O     0.43892   0.12846   0.75000   0.00000  Uiso   1.00
O853   O     0.50000   0.20489   0.68453   0.00000  Uiso   1.00
O854   O     0.50000   0.12845   0.81547   0.00000  Uiso   1.00
O855   O     0.50000   0.20489   0.81547   0.00000  Uiso   1.00
O856   O     0.50000   0.12845   0.68453   0.00000  Uiso   1.00
Zn857  Zn    0.50000   0.21771   0.75000   0.00000  Uiso   1.00
Zn858  Zn    0.50000   0.11563   0.75000   0.00000  Uiso   1.00
C859   C     0.75352   0.16677   0.75047   0.00000  Uiso   1.00
C860   C     0.97776   0.16847   0.79122   0.00000  Uiso   1.00
C861   C     0.97853   0.16939   0.70852   0.00000  Uiso   1.00
C862   C     0.68813   0.16939   0.79148   0.00000  Uiso   1.00
C863   C     0.82092   0.20551   0.54732   0.00000  Uiso   1.00
C864   C     0.82067   0.12796   0.95284   0.00000  Uiso   1.00
C865   C     0.84574   0.20551   0.95268   0.00000  Uiso   1.00
C866   C     0.84599   0.12796   0.54716   0.00000  Uiso   1.00
C867   C     0.82175   0.20576   0.59320   0.00000  Uiso   1.00
C868   C     0.82134   0.12769   0.90694   0.00000  Uiso   1.00
C869   C     0.84491   0.20576   0.90680   0.00000  Uiso   1.00
C870   C     0.91315   0.16677   0.74954   0.00000  Uiso   1.00
C871   C     0.84532   0.12769   0.59306   0.00000  Uiso   1.00
C872   C     0.83351   0.16670   0.61610   0.00000  Uiso   1.00
C873   C     0.83315   0.16670   0.88390   0.00000  Uiso   1.00
C874   C     0.83339   0.16673   0.52412   0.00000  Uiso   1.00
C875   C     0.83327   0.16673   0.97588   0.00000  Uiso   1.00
C876   C     0.95735   0.16745   0.74973   0.00000  Uiso   1.00
C877   C     0.70932   0.16745   0.75027   0.00000  Uiso   1.00
C878   C     0.71395   0.16997   0.66532   0.00000  Uiso   1.00
C879   C     0.72343   0.21858   0.65143   0.00000  Uiso   1.00
C880   C     0.95272   0.16996   0.83468   0.00000  Uiso   1.00
C881   C     0.83345   0.16667   0.66396   0.00000  Uiso   1.00
C882   C     0.94324   0.21857   0.84858   0.00000  Uiso   1.00
C883   C     0.95439   0.17282   0.66481   0.00000  Uiso   1.00
C884   C     0.94524   0.12622   0.64563   0.00000  Uiso   1.00
C885   C     0.71228   0.17282   0.83519   0.00000  Uiso   1.00
C886   C     0.72143   0.12621   0.85437   0.00000  Uiso   1.00
C887   C     0.83321   0.16667   0.83604   0.00000  Uiso   1.00
C888   C     0.81102   0.02383   0.78105   0.00000  Uiso   1.00
C889   C     0.85585   0.30932   0.71909   0.00000  Uiso   1.00
C890   C     0.85565   0.02383   0.71895   0.00000  Uiso   1.00
C891   C     0.81082   0.30932   0.78091   0.00000  Uiso   1.00
C892   C     0.68890   0.16847   0.70878   0.00000  Uiso   1.00
F893   F     0.78884   0.04611   0.81248   0.00000  Uiso   1.00
F894   F     0.87868   0.28673   0.68822   0.00000  Uiso   1.00
F895   F     0.87782   0.04611   0.68752   0.00000  Uiso   1.00
F896   F     0.78799   0.28673   0.81178   0.00000  Uiso   1.00
H897   H     0.81027   0.23547   0.53008   0.00000  Uiso   1.00
H898   H     0.74726   0.23370   0.67358   0.00000  Uiso   1.00
H899   H     0.73560   0.21892   0.61683   0.00000  Uiso   1.00
H900   H     0.74367   0.15094   0.66808   0.00000  Uiso   1.00
H901   H     0.69741   0.15259   0.63794   0.00000  Uiso   1.00
H902   H     0.91940   0.23369   0.82642   0.00000  Uiso   1.00
H903   H     0.93106   0.21891   0.88318   0.00000  Uiso   1.00
H904   H     0.97177   0.23984   0.84730   0.00000  Uiso   1.00
H905   H     0.92300   0.15093   0.83192   0.00000  Uiso   1.00
H906   H     0.96926   0.15258   0.86206   0.00000  Uiso   1.00
H907   H     0.97388   0.10515   0.64400   0.00000  Uiso   1.00
H908   H     0.81003   0.09803   0.97022   0.00000  Uiso   1.00
H909   H     0.92189   0.10888   0.66671   0.00000  Uiso   1.00
H910   H     0.93250   0.12976   0.61153   0.00000  Uiso   1.00
H911   H     0.92453   0.19134   0.66918   0.00000  Uiso   1.00
H912   H     0.97142   0.19322   0.63976   0.00000  Uiso   1.00
H913   H     0.74479   0.10888   0.83329   0.00000  Uiso   1.00
H914   H     0.73417   0.12976   0.88847   0.00000  Uiso   1.00
H915   H     0.69279   0.10514   0.85599   0.00000  Uiso   1.00
H916   H     0.74214   0.19134   0.83082   0.00000  Uiso   1.00
H917   H     0.69525   0.19321   0.86024   0.00000  Uiso   1.00
H918   H     0.85639   0.23547   0.96992   0.00000  Uiso   1.00
H919   H     0.85663   0.09803   0.52978   0.00000  Uiso   1.00
H920   H     0.81246   0.23616   0.61068   0.00000  Uiso   1.00
H921   H     0.81180   0.09736   0.88957   0.00000  Uiso   1.00
H922   H     0.85421   0.23616   0.88932   0.00000  Uiso   1.00
H923   H     0.85486   0.09736   0.61043   0.00000  Uiso   1.00
H924   H     0.69489   0.23985   0.65270   0.00000  Uiso   1.00
N925   N     0.83333   0.28573   0.75000   0.00000  Uiso   1.00
N926   N     0.83333   0.04760   0.75000   0.00000  Uiso   1.00
O927   O     0.77226   0.20487   0.74999   0.00000  Uiso   1.00
O928   O     0.89441   0.12846   0.75001   0.00000  Uiso   1.00
O929   O     0.89441   0.20487   0.75001   0.00000  Uiso   1.00
O930   O     0.77226   0.12846   0.75000   0.00000  Uiso   1.00
O931   O     0.83333   0.20489   0.68453   0.00000  Uiso   1.00
O932   O     0.83334   0.12845   0.81547   0.00000  Uiso   1.00
O933   O     0.83334   0.20489   0.81547   0.00000  Uiso   1.00
O934   O     0.83333   0.12845   0.68453   0.00000  Uiso   1.00
Zn935  Zn    0.83333   0.21771   0.75000   0.00000  Uiso   1.00
Zn936  Zn    0.83333   0.11563   0.75000   0.00000  Uiso   1.00
C937   C     0.08685   0.50010   0.75047   0.00000  Uiso   1.00
C938   C     0.31110   0.50180   0.79122   0.00000  Uiso   1.00
C939   C     0.31187   0.50273   0.70852   0.00000  Uiso   1.00
C940   C     0.02147   0.50272   0.79148   0.00000  Uiso   1.00
C941   C     0.15426   0.53885   0.54732   0.00000  Uiso   1.00
C942   C     0.15400   0.46129   0.95284   0.00000  Uiso   1.00
C943   C     0.17907   0.53885   0.95268   0.00000  Uiso   1.00
C944   C     0.17932   0.46129   0.54716   0.00000  Uiso   1.00
C945   C     0.15508   0.53909   0.59320   0.00000  Uiso   1.00
C946   C     0.15467   0.46102   0.90694   0.00000  Uiso   1.00
C947   C     0.17825   0.53909   0.90680   0.00000  Uiso   1.00
C948   C     0.24648   0.50010   0.74954   0.00000  Uiso   1.00
C949   C     0.17866   0.46102   0.59306   0.00000  Uiso   1.00
C950   C     0.16685   0.50003   0.61610   0.00000  Uiso   1.00
C951   C     0.16648   0.50003   0.88390   0.00000  Uiso   1.00
C952   C     0.16672   0.50006   0.52412   0.00000  Uiso   1.00
C953   C     0.16660   0.50006   0.97588   0.00000  Uiso   1.00
C954   C     0.29068   0.50078   0.74973   0.00000  Uiso   1.00
C955   C     0.04265   0.50078   0.75027   0.00000  Uiso   1.00
C956   C     0.04728   0.50330   0.66532   0.00000  Uiso   1.00
C957   C     0.05676   0.55192   0.65143   0.00000  Uiso   1.00
C958   C     0.28605   0.50329   0.83468   0.00000  Uiso   1.00
C959   C     0.16679   0.50000   0.66396   0.00000  Uiso   1.00
C960   C     0.27657   0.55191   0.84858   0.00000  Uiso   1.00
C961   C     0.28772   0.50615   0.66481   0.00000  Uiso   1.00
C962   C     0.27857   0.45955   0.64563   0.00000  Uiso   1.00
C963   C     0.04561   0.50615   0.83519   0.00000  Uiso   1.00
C964   C     0.05476   0.45955   0.85437   0.00000  Uiso   1.00
C965   C     0.16655   0.50000   0.83604   0.00000  Uiso   1.00
C966   C     0.14435   0.35717   0.78105   0.00000  Uiso   1.00
C967   C     0.18918   0.64265   0.71909   0.00000  Uiso   1.00
C968   C     0.18898   0.35717   0.71895   0.00000  Uiso   1.00
C969   C     0.14415   0.64265   0.78091   0.00000  Uiso   1.00
C970   C     0.02224   0.50180   0.70878   0.00000  Uiso   1.00
F971   F     0.12218   0.37944   0.81248   0.00000  Uiso   1.00
F972   F     0.21201   0.62006   0.68822   0.00000  Uiso   1.00
F973   F     0.21116   0.37944   0.68752   0.00000  Uiso   1.00
F974   F     0.12132   0.62006   0.81178   0.00000  Uiso   1.00
H975   H     0.14360   0.56881   0.53008   0.00000  Uiso   1.00
H976   H     0.08059   0.56703   0.67358   0.00000  Uiso   1.00
H977   H     0.06894   0.55226   0.61683   0.00000  Uiso   1.00
H978   H     0.07701   0.48427   0.66808   0.00000  Uiso   1.00
H979   H     0.03074   0.48593   0.63794   0.00000  Uiso   1.00
H980   H     0.25274   0.56702   0.82642   0.00000  Uiso   1.00
H981   H     0.26439   0.55224   0.88318   0.00000  Uiso   1.00
H982   H     0.30510   0.57317   0.84730   0.00000  Uiso   1.00
H983   H     0.25633   0.48426   0.83192   0.00000  Uiso   1.00
H984   H     0.30260   0.48592   0.86206   0.00000  Uiso   1.00
H985   H     0.30721   0.43848   0.64400   0.00000  Uiso   1.00
H986   H     0.14336   0.43136   0.97022   0.00000  Uiso   1.00
H987   H     0.25522   0.44222   0.66671   0.00000  Uiso   1.00
H988   H     0.26583   0.46310   0.61153   0.00000  Uiso   1.00
H989   H     0.25786   0.52468   0.66918   0.00000  Uiso   1.00
H990   H     0.30475   0.52655   0.63976   0.00000  Uiso   1.00
H991   H     0.07812   0.44222   0.83329   0.00000  Uiso   1.00
H992   H     0.06750   0.46309   0.88847   0.00000  Uiso   1.00
H993   H     0.02613   0.43847   0.85599   0.00000  Uiso   1.00
H994   H     0.07547   0.52467   0.83082   0.00000  Uiso   1.00
H995   H     0.02858   0.52655   0.86024   0.00000  Uiso   1.00
H996   H     0.18972   0.56881   0.96992   0.00000  Uiso   1.00
H997   H     0.18996   0.43136   0.52978   0.00000  Uiso   1.00
H998   H     0.14579   0.56949   0.61068   0.00000  Uiso   1.00
H999   H     0.14513   0.43070   0.88957   0.00000  Uiso   1.00
H1000  H     0.18754   0.56949   0.88932   0.00000  Uiso   1.00
H1001  H     0.18820   0.43070   0.61043   0.00000  Uiso   1.00
H1002  H     0.02823   0.57318   0.65270   0.00000  Uiso   1.00
N1003  N     0.16667   0.61907   0.75000   0.00000  Uiso   1.00
N1004  N     0.16667   0.38093   0.75000   0.00000  Uiso   1.00
O1005  O     0.10559   0.53821   0.74999   0.00000  Uiso   1.00
O1006  O     0.22774   0.46179   0.75001   0.00000  Uiso   1.00
O1007  O     0.22774   0.53821   0.75001   0.00000  Uiso   1.00
O1008  O     0.10559   0.46179   0.75000   0.00000  Uiso   1.00
O1009  O     0.16666   0.53822   0.68453   0.00000  Uiso   1.00
O1010  O     0.16667   0.46178   0.81547   0.00000  Uiso   1.00
O1011  O     0.16667   0.53822   0.81547   0.00000  Uiso   1.00
O1012  O     0.16666   0.46178   0.68453   0.00000  Uiso   1.00
Zn1013 Zn    0.16667   0.55104   0.75000   0.00000  Uiso   1.00
Zn1014 Zn    0.16667   0.44896   0.75000   0.00000  Uiso   1.00
C1015  C     0.42019   0.50010   0.75047   0.00000  Uiso   1.00
C1016  C     0.64443   0.50180   0.79122   0.00000  Uiso   1.00
C1017  C     0.64520   0.50273   0.70852   0.00000  Uiso   1.00
C1018  C     0.35480   0.50272   0.79148   0.00000  Uiso   1.00
C1019  C     0.48759   0.53885   0.54732   0.00000  Uiso   1.00
C1020  C     0.48734   0.46129   0.95284   0.00000  Uiso   1.00
C1021  C     0.51240   0.53885   0.95268   0.00000  Uiso   1.00
C1022  C     0.51266   0.46129   0.54716   0.00000  Uiso   1.00
C1023  C     0.48842   0.53909   0.59320   0.00000  Uiso   1.00
C1024  C     0.48801   0.46102   0.90694   0.00000  Uiso   1.00
C1025  C     0.51158   0.53909   0.90680   0.00000  Uiso   1.00
C1026  C     0.57981   0.50010   0.74954   0.00000  Uiso   1.00
C1027  C     0.51199   0.46102   0.59306   0.00000  Uiso   1.00
C1028  C     0.50018   0.50003   0.61610   0.00000  Uiso   1.00
C1029  C     0.49982   0.50003   0.88390   0.00000  Uiso   1.00
C1030  C     0.50005   0.50006   0.52412   0.00000  Uiso   1.00
C1031  C     0.49994   0.50006   0.97588   0.00000  Uiso   1.00
C1032  C     0.62401   0.50078   0.74973   0.00000  Uiso   1.00
C1033  C     0.37599   0.50078   0.75027   0.00000  Uiso   1.00
C1034  C     0.38062   0.50330   0.66532   0.00000  Uiso   1.00
C1035  C     0.39009   0.55192   0.65143   0.00000  Uiso   1.00
C1036  C     0.61938   0.50329   0.83468   0.00000  Uiso   1.00
C1037  C     0.50012   0.50000   0.66396   0.00000  Uiso   1.00
C1038  C     0.60990   0.55191   0.84858   0.00000  Uiso   1.00
C1039  C     0.62106   0.50615   0.66481   0.00000  Uiso   1.00
C1040  C     0.61191   0.45955   0.64563   0.00000  Uiso   1.00
C1041  C     0.37894   0.50615   0.83519   0.00000  Uiso   1.00
C1042  C     0.38809   0.45955   0.85437   0.00000  Uiso   1.00
C1043  C     0.49988   0.50000   0.83604   0.00000  Uiso   1.00
C1044  C     0.47768   0.35717   0.78105   0.00000  Uiso   1.00
C1045  C     0.52252   0.64265   0.71909   0.00000  Uiso   1.00
C1046  C     0.52232   0.35717   0.71895   0.00000  Uiso   1.00
C1047  C     0.47748   0.64265   0.78091   0.00000  Uiso   1.00
C1048  C     0.35557   0.50180   0.70878   0.00000  Uiso   1.00
F1049  F     0.45551   0.37944   0.81248   0.00000  Uiso   1.00
F1050  F     0.54534   0.62006   0.68822   0.00000  Uiso   1.00
F1051  F     0.54449   0.37944   0.68752   0.00000  Uiso   1.00
F1052  F     0.45466   0.62006   0.81178   0.00000  Uiso   1.00
H1053  H     0.47693   0.56881   0.53008   0.00000  Uiso   1.00
H1054  H     0.41393   0.56703   0.67358   0.00000  Uiso   1.00
H1055  H     0.40227   0.55226   0.61683   0.00000  Uiso   1.00
H1056  H     0.41034   0.48427   0.66808   0.00000  Uiso   1.00
H1057  H     0.36407   0.48593   0.63794   0.00000  Uiso   1.00
H1058  H     0.58607   0.56702   0.82642   0.00000  Uiso   1.00
H1059  H     0.59773   0.55224   0.88318   0.00000  Uiso   1.00
H1060  H     0.63843   0.57317   0.84730   0.00000  Uiso   1.00
H1061  H     0.58966   0.48426   0.83192   0.00000  Uiso   1.00
H1062  H     0.63593   0.48592   0.86206   0.00000  Uiso   1.00
H1063  H     0.64054   0.43848   0.64400   0.00000  Uiso   1.00
H1064  H     0.47670   0.43136   0.97022   0.00000  Uiso   1.00
H1065  H     0.58856   0.44222   0.66671   0.00000  Uiso   1.00
H1066  H     0.59916   0.46310   0.61153   0.00000  Uiso   1.00
H1067  H     0.59120   0.52468   0.66918   0.00000  Uiso   1.00
H1068  H     0.63808   0.52655   0.63976   0.00000  Uiso   1.00
H1069  H     0.41145   0.44222   0.83329   0.00000  Uiso   1.00
H1070  H     0.40083   0.46309   0.88847   0.00000  Uiso   1.00
H1071  H     0.35946   0.43847   0.85599   0.00000  Uiso   1.00
H1072  H     0.40880   0.52467   0.83082   0.00000  Uiso   1.00
H1073  H     0.36191   0.52655   0.86024   0.00000  Uiso   1.00
H1074  H     0.52306   0.56881   0.96992   0.00000  Uiso   1.00
H1075  H     0.52330   0.43136   0.52978   0.00000  Uiso   1.00
H1076  H     0.47912   0.56949   0.61068   0.00000  Uiso   1.00
H1077  H     0.47847   0.43070   0.88957   0.00000  Uiso   1.00
H1078  H     0.52087   0.56949   0.88932   0.00000  Uiso   1.00
H1079  H     0.52153   0.43070   0.61043   0.00000  Uiso   1.00
H1080  H     0.36156   0.57318   0.65270   0.00000  Uiso   1.00
N1081  N     0.50000   0.61907   0.75000   0.00000  Uiso   1.00
N1082  N     0.50000   0.38093   0.75000   0.00000  Uiso   1.00
O1083  O     0.43892   0.53821   0.74999   0.00000  Uiso   1.00
O1084  O     0.56108   0.46179   0.75001   0.00000  Uiso   1.00
O1085  O     0.56108   0.53821   0.75001   0.00000  Uiso   1.00
O1086  O     0.43892   0.46179   0.75000   0.00000  Uiso   1.00
O1087  O     0.50000   0.53822   0.68453   0.00000  Uiso   1.00
O1088  O     0.50000   0.46178   0.81547   0.00000  Uiso   1.00
O1089  O     0.50000   0.53822   0.81547   0.00000  Uiso   1.00
O1090  O     0.50000   0.46178   0.68453   0.00000  Uiso   1.00
Zn1091 Zn    0.50000   0.55104   0.75000   0.00000  Uiso   1.00
Zn1092 Zn    0.50000   0.44896   0.75000   0.00000  Uiso   1.00
C1093  C     0.75352   0.50010   0.75047   0.00000  Uiso   1.00
C1094  C     0.97776   0.50180   0.79122   0.00000  Uiso   1.00
C1095  C     0.97853   0.50273   0.70852   0.00000  Uiso   1.00
C1096  C     0.68813   0.50272   0.79148   0.00000  Uiso   1.00
C1097  C     0.82092   0.53885   0.54732   0.00000  Uiso   1.00
C1098  C     0.82067   0.46129   0.95284   0.00000  Uiso   1.00
C1099  C     0.84574   0.53885   0.95268   0.00000  Uiso   1.00
C1100  C     0.84599   0.46129   0.54716   0.00000  Uiso   1.00
C1101  C     0.82175   0.53909   0.59320   0.00000  Uiso   1.00
C1102  C     0.82134   0.46102   0.90694   0.00000  Uiso   1.00
C1103  C     0.84491   0.53909   0.90680   0.00000  Uiso   1.00
C1104  C     0.91315   0.50010   0.74954   0.00000  Uiso   1.00
C1105  C     0.84532   0.46102   0.59306   0.00000  Uiso   1.00
C1106  C     0.83351   0.50003   0.61610   0.00000  Uiso   1.00
C1107  C     0.83315   0.50003   0.88390   0.00000  Uiso   1.00
C1108  C     0.83339   0.50006   0.52412   0.00000  Uiso   1.00
C1109  C     0.83327   0.50006   0.97588   0.00000  Uiso   1.00
C1110  C     0.95735   0.50078   0.74973   0.00000  Uiso   1.00
C1111  C     0.70932   0.50078   0.75027   0.00000  Uiso   1.00
C1112  C     0.71395   0.50330   0.66532   0.00000  Uiso   1.00
C1113  C     0.72343   0.55192   0.65143   0.00000  Uiso   1.00
C1114  C     0.95272   0.50329   0.83468   0.00000  Uiso   1.00
C1115  C     0.83345   0.50000   0.66396   0.00000  Uiso   1.00
C1116  C     0.94324   0.55191   0.84858   0.00000  Uiso   1.00
C1117  C     0.95439   0.50615   0.66481   0.00000  Uiso   1.00
C1118  C     0.94524   0.45955   0.64563   0.00000  Uiso   1.00
C1119  C     0.71228   0.50615   0.83519   0.00000  Uiso   1.00
C1120  C     0.72143   0.45955   0.85437   0.00000  Uiso   1.00
C1121  C     0.83321   0.50000   0.83604   0.00000  Uiso   1.00
C1122  C     0.81102   0.35717   0.78105   0.00000  Uiso   1.00
C1123  C     0.85585   0.64265   0.71909   0.00000  Uiso   1.00
C1124  C     0.85565   0.35717   0.71895   0.00000  Uiso   1.00
C1125  C     0.81082   0.64265   0.78091   0.00000  Uiso   1.00
C1126  C     0.68890   0.50180   0.70878   0.00000  Uiso   1.00
F1127  F     0.78884   0.37944   0.81248   0.00000  Uiso   1.00
F1128  F     0.87868   0.62006   0.68822   0.00000  Uiso   1.00
F1129  F     0.87782   0.37944   0.68752   0.00000  Uiso   1.00
F1130  F     0.78799   0.62006   0.81178   0.00000  Uiso   1.00
H1131  H     0.81027   0.56881   0.53008   0.00000  Uiso   1.00
H1132  H     0.74726   0.56703   0.67358   0.00000  Uiso   1.00
H1133  H     0.73560   0.55226   0.61683   0.00000  Uiso   1.00
H1134  H     0.74367   0.48427   0.66808   0.00000  Uiso   1.00
H1135  H     0.69741   0.48593   0.63794   0.00000  Uiso   1.00
H1136  H     0.91940   0.56702   0.82642   0.00000  Uiso   1.00
H1137  H     0.93106   0.55224   0.88318   0.00000  Uiso   1.00
H1138  H     0.97177   0.57317   0.84730   0.00000  Uiso   1.00
H1139  H     0.92300   0.48426   0.83192   0.00000  Uiso   1.00
H1140  H     0.96926   0.48592   0.86206   0.00000  Uiso   1.00
H1141  H     0.97388   0.43848   0.64400   0.00000  Uiso   1.00
H1142  H     0.81003   0.43136   0.97022   0.00000  Uiso   1.00
H1143  H     0.92189   0.44222   0.66671   0.00000  Uiso   1.00
H1144  H     0.93250   0.46310   0.61153   0.00000  Uiso   1.00
H1145  H     0.92453   0.52468   0.66918   0.00000  Uiso   1.00
H1146  H     0.97142   0.52655   0.63976   0.00000  Uiso   1.00
H1147  H     0.74479   0.44222   0.83329   0.00000  Uiso   1.00
H1148  H     0.73417   0.46309   0.88847   0.00000  Uiso   1.00
H1149  H     0.69279   0.43847   0.85599   0.00000  Uiso   1.00
H1150  H     0.74214   0.52467   0.83082   0.00000  Uiso   1.00
H1151  H     0.69525   0.52655   0.86024   0.00000  Uiso   1.00
H1152  H     0.85639   0.56881   0.96992   0.00000  Uiso   1.00
H1153  H     0.85663   0.43136   0.52978   0.00000  Uiso   1.00
H1154  H     0.81246   0.56949   0.61068   0.00000  Uiso   1.00
H1155  H     0.81180   0.43070   0.88957   0.00000  Uiso   1.00
H1156  H     0.85421   0.56949   0.88932   0.00000  Uiso   1.00
H1157  H     0.85486   0.43070   0.61043   0.00000  Uiso   1.00
H1158  H     0.69489   0.57318   0.65270   0.00000  Uiso   1.00
N1159  N     0.83333   0.61907   0.75000   0.00000  Uiso   1.00
N1160  N     0.83333   0.38093   0.75000   0.00000  Uiso   1.00
O1161  O     0.77226   0.53821   0.74999   0.00000  Uiso   1.00
O1162  O     0.89441   0.46179   0.75001   0.00000  Uiso   1.00
O1163  O     0.89441   0.53821   0.75001   0.00000  Uiso   1.00
O1164  O     0.77226   0.46179   0.75000   0.00000  Uiso   1.00
O1165  O     0.83333   0.53822   0.68453   0.00000  Uiso   1.00
O1166  O     0.83334   0.46178   0.81547   0.00000  Uiso   1.00
O1167  O     0.83334   0.53822   0.81547   0.00000  Uiso   1.00
O1168  O     0.83333   0.46178   0.68453   0.00000  Uiso   1.00
Zn1169 Zn    0.83333   0.55104   0.75000   0.00000  Uiso   1.00
Zn1170 Zn    0.83333   0.44896   0.75000   0.00000  Uiso   1.00
C1171  C     0.08685   0.83343   0.75047   0.00000  Uiso   1.00
C1172  C     0.31110   0.83513   0.79122   0.00000  Uiso   1.00
C1173  C     0.31187   0.83606   0.70852   0.00000  Uiso   1.00
C1174  C     0.02147   0.83606   0.79148   0.00000  Uiso   1.00
C1175  C     0.15426   0.87218   0.54732   0.00000  Uiso   1.00
C1176  C     0.15400   0.79462   0.95284   0.00000  Uiso   1.00
C1177  C     0.17907   0.87218   0.95268   0.00000  Uiso   1.00
C1178  C     0.17932   0.79462   0.54716   0.00000  Uiso   1.00
C1179  C     0.15508   0.87243   0.59320   0.00000  Uiso   1.00
C1180  C     0.15467   0.79436   0.90694   0.00000  Uiso   1.00
C1181  C     0.17825   0.87243   0.90680   0.00000  Uiso   1.00
C1182  C     0.24648   0.83343   0.74954   0.00000  Uiso   1.00
C1183  C     0.17866   0.79436   0.59306   0.00000  Uiso   1.00
C1184  C     0.16685   0.83337   0.61610   0.00000  Uiso   1.00
C1185  C     0.16648   0.83337   0.88390   0.00000  Uiso   1.00
C1186  C     0.16672   0.83340   0.52412   0.00000  Uiso   1.00
C1187  C     0.16660   0.83340   0.97588   0.00000  Uiso   1.00
C1188  C     0.29068   0.83412   0.74973   0.00000  Uiso   1.00
C1189  C     0.04265   0.83412   0.75027   0.00000  Uiso   1.00
C1190  C     0.04728   0.83663   0.66532   0.00000  Uiso   1.00
C1191  C     0.05676   0.88525   0.65143   0.00000  Uiso   1.00
C1192  C     0.28605   0.83662   0.83468   0.00000  Uiso   1.00
C1193  C     0.16679   0.83334   0.66396   0.00000  Uiso   1.00
C1194  C     0.27657   0.88524   0.84858   0.00000  Uiso   1.00
C1195  C     0.28772   0.83949   0.66481   0.00000  Uiso   1.00
C1196  C     0.27857   0.79288   0.64563   0.00000  Uiso   1.00
C1197  C     0.04561   0.83948   0.83519   0.00000  Uiso   1.00
C1198  C     0.05476   0.79288   0.85437   0.00000  Uiso   1.00
C1199  C     0.16655   0.83334   0.83604   0.00000  Uiso   1.00
C1200  C     0.14435   0.69050   0.78105   0.00000  Uiso   1.00
C1201  C     0.18918   0.97599   0.71909   0.00000  Uiso   1.00
C1202  C     0.18898   0.69050   0.71895   0.00000  Uiso   1.00
C1203  C     0.14415   0.97599   0.78091   0.00000  Uiso   1.00
C1204  C     0.02224   0.83514   0.70878   0.00000  Uiso   1.00
F1205  F     0.12218   0.71278   0.81248   0.00000  Uiso   1.00
F1206  F     0.21201   0.95340   0.68822   0.00000  Uiso   1.00
F1207  F     0.21116   0.71278   0.68752   0.00000  Uiso   1.00
F1208  F     0.12132   0.95339   0.81178   0.00000  Uiso   1.00
H1209  H     0.14360   0.90214   0.53008   0.00000  Uiso   1.00
H1210  H     0.08059   0.90037   0.67358   0.00000  Uiso   1.00
H1211  H     0.06894   0.88559   0.61683   0.00000  Uiso   1.00
H1212  H     0.07701   0.81761   0.66808   0.00000  Uiso   1.00
H1213  H     0.03074   0.81926   0.63794   0.00000  Uiso   1.00
H1214  H     0.25274   0.90036   0.82642   0.00000  Uiso   1.00
H1215  H     0.26439   0.88557   0.88318   0.00000  Uiso   1.00
H1216  H     0.30510   0.90651   0.84730   0.00000  Uiso   1.00
H1217  H     0.25633   0.81760   0.83192   0.00000  Uiso   1.00
H1218  H     0.30260   0.81925   0.86206   0.00000  Uiso   1.00
H1219  H     0.30721   0.77182   0.64400   0.00000  Uiso   1.00
H1220  H     0.14336   0.76469   0.97022   0.00000  Uiso   1.00
H1221  H     0.25522   0.77555   0.66671   0.00000  Uiso   1.00
H1222  H     0.26583   0.79643   0.61153   0.00000  Uiso   1.00
H1223  H     0.25786   0.85801   0.66918   0.00000  Uiso   1.00
H1224  H     0.30475   0.85989   0.63976   0.00000  Uiso   1.00
H1225  H     0.07812   0.77555   0.83329   0.00000  Uiso   1.00
H1226  H     0.06750   0.79642   0.88847   0.00000  Uiso   1.00
H1227  H     0.02613   0.77181   0.85599   0.00000  Uiso   1.00
H1228  H     0.07547   0.85801   0.83082   0.00000  Uiso   1.00
H1229  H     0.02858   0.85988   0.86024   0.00000  Uiso   1.00
H1230  H     0.18972   0.90214   0.96992   0.00000  Uiso   1.00
H1231  H     0.18996   0.76469   0.52978   0.00000  Uiso   1.00
H1232  H     0.14579   0.90282   0.61068   0.00000  Uiso   1.00
H1233  H     0.14513   0.76403   0.88957   0.00000  Uiso   1.00
H1234  H     0.18754   0.90282   0.88932   0.00000  Uiso   1.00
H1235  H     0.18820   0.76403   0.61043   0.00000  Uiso   1.00
H1236  H     0.02823   0.90652   0.65270   0.00000  Uiso   1.00
N1237  N     0.16667   0.95240   0.75000   0.00000  Uiso   1.00
N1238  N     0.16667   0.71427   0.75000   0.00000  Uiso   1.00
O1239  O     0.10559   0.87154   0.74999   0.00000  Uiso   1.00
O1240  O     0.22774   0.79513   0.75001   0.00000  Uiso   1.00
O1241  O     0.22774   0.87154   0.75001   0.00000  Uiso   1.00
O1242  O     0.10559   0.79513   0.75000   0.00000  Uiso   1.00
O1243  O     0.16666   0.87155   0.68453   0.00000  Uiso   1.00
O1244  O     0.16667   0.79511   0.81547   0.00000  Uiso   1.00
O1245  O     0.16667   0.87155   0.81547   0.00000  Uiso   1.00
O1246  O     0.16666   0.79511   0.68453   0.00000  Uiso   1.00
Zn1247 Zn    0.16667   0.88437   0.75000   0.00000  Uiso   1.00
Zn1248 Zn    0.16667   0.78229   0.75000   0.00000  Uiso   1.00
C1249  C     0.42019   0.83343   0.75047   0.00000  Uiso   1.00
C1250  C     0.64443   0.83513   0.79122   0.00000  Uiso   1.00
C1251  C     0.64520   0.83606   0.70852   0.00000  Uiso   1.00
C1252  C     0.35480   0.83606   0.79148   0.00000  Uiso   1.00
C1253  C     0.48759   0.87218   0.54732   0.00000  Uiso   1.00
C1254  C     0.48734   0.79462   0.95284   0.00000  Uiso   1.00
C1255  C     0.51240   0.87218   0.95268   0.00000  Uiso   1.00
C1256  C     0.51266   0.79462   0.54716   0.00000  Uiso   1.00
C1257  C     0.48842   0.87243   0.59320   0.00000  Uiso   1.00
C1258  C     0.48801   0.79436   0.90694   0.00000  Uiso   1.00
C1259  C     0.51158   0.87243   0.90680   0.00000  Uiso   1.00
C1260  C     0.57981   0.83343   0.74954   0.00000  Uiso   1.00
C1261  C     0.51199   0.79436   0.59306   0.00000  Uiso   1.00
C1262  C     0.50018   0.83337   0.61610   0.00000  Uiso   1.00
C1263  C     0.49982   0.83337   0.88390   0.00000  Uiso   1.00
C1264  C     0.50005   0.83340   0.52412   0.00000  Uiso   1.00
C1265  C     0.49994   0.83340   0.97588   0.00000  Uiso   1.00
C1266  C     0.62401   0.83412   0.74973   0.00000  Uiso   1.00
C1267  C     0.37599   0.83412   0.75027   0.00000  Uiso   1.00
C1268  C     0.38062   0.83663   0.66532   0.00000  Uiso   1.00
C1269  C     0.39009   0.88525   0.65143   0.00000  Uiso   1.00
C1270  C     0.61938   0.83662   0.83468   0.00000  Uiso   1.00
C1271  C     0.50012   0.83334   0.66396   0.00000  Uiso   1.00
C1272  C     0.60990   0.88524   0.84858   0.00000  Uiso   1.00
C1273  C     0.62106   0.83949   0.66481   0.00000  Uiso   1.00
C1274  C     0.61191   0.79288   0.64563   0.00000  Uiso   1.00
C1275  C     0.37894   0.83948   0.83519   0.00000  Uiso   1.00
C1276  C     0.38809   0.79288   0.85437   0.00000  Uiso   1.00
C1277  C     0.49988   0.83334   0.83604   0.00000  Uiso   1.00
C1278  C     0.47768   0.69050   0.78105   0.00000  Uiso   1.00
C1279  C     0.52252   0.97599   0.71909   0.00000  Uiso   1.00
C1280  C     0.52232   0.69050   0.71895   0.00000  Uiso   1.00
C1281  C     0.47748   0.97599   0.78091   0.00000  Uiso   1.00
C1282  C     0.35557   0.83514   0.70878   0.00000  Uiso   1.00
F1283  F     0.45551   0.71278   0.81248   0.00000  Uiso   1.00
F1284  F     0.54534   0.95340   0.68822   0.00000  Uiso   1.00
F1285  F     0.54449   0.71278   0.68752   0.00000  Uiso   1.00
F1286  F     0.45466   0.95339   0.81178   0.00000  Uiso   1.00
H1287  H     0.47693   0.90214   0.53008   0.00000  Uiso   1.00
H1288  H     0.41393   0.90037   0.67358   0.00000  Uiso   1.00
H1289  H     0.40227   0.88559   0.61683   0.00000  Uiso   1.00
H1290  H     0.41034   0.81761   0.66808   0.00000  Uiso   1.00
H1291  H     0.36407   0.81926   0.63794   0.00000  Uiso   1.00
H1292  H     0.58607   0.90036   0.82642   0.00000  Uiso   1.00
H1293  H     0.59773   0.88557   0.88318   0.00000  Uiso   1.00
H1294  H     0.63843   0.90651   0.84730   0.00000  Uiso   1.00
H1295  H     0.58966   0.81760   0.83192   0.00000  Uiso   1.00
H1296  H     0.63593   0.81925   0.86206   0.00000  Uiso   1.00
H1297  H     0.64054   0.77182   0.64400   0.00000  Uiso   1.00
H1298  H     0.47670   0.76469   0.97022   0.00000  Uiso   1.00
H1299  H     0.58856   0.77555   0.66671   0.00000  Uiso   1.00
H1300  H     0.59916   0.79643   0.61153   0.00000  Uiso   1.00
H1301  H     0.59120   0.85801   0.66918   0.00000  Uiso   1.00
H1302  H     0.63808   0.85989   0.63976   0.00000  Uiso   1.00
H1303  H     0.41145   0.77555   0.83329   0.00000  Uiso   1.00
H1304  H     0.40083   0.79642   0.88847   0.00000  Uiso   1.00
H1305  H     0.35946   0.77181   0.85599   0.00000  Uiso   1.00
H1306  H     0.40880   0.85801   0.83082   0.00000  Uiso   1.00
H1307  H     0.36191   0.85988   0.86024   0.00000  Uiso   1.00
H1308  H     0.52306   0.90214   0.96992   0.00000  Uiso   1.00
H1309  H     0.52330   0.76469   0.52978   0.00000  Uiso   1.00
H1310  H     0.47912   0.90282   0.61068   0.00000  Uiso   1.00
H1311  H     0.47847   0.76403   0.88957   0.00000  Uiso   1.00
H1312  H     0.52087   0.90282   0.88932   0.00000  Uiso   1.00
H1313  H     0.52153   0.76403   0.61043   0.00000  Uiso   1.00
H1314  H     0.36156   0.90652   0.65270   0.00000  Uiso   1.00
N1315  N     0.50000   0.95240   0.75000   0.00000  Uiso   1.00
N1316  N     0.50000   0.71427   0.75000   0.00000  Uiso   1.00
O1317  O     0.43892   0.87154   0.74999   0.00000  Uiso   1.00
O1318  O     0.56108   0.79513   0.75001   0.00000  Uiso   1.00
O1319  O     0.56108   0.87154   0.75001   0.00000  Uiso   1.00
O1320  O     0.43892   0.79513   0.75000   0.00000  Uiso   1.00
O1321  O     0.50000   0.87155   0.68453   0.00000  Uiso   1.00
O1322  O     0.50000   0.79511   0.81547   0.00000  Uiso   1.00
O1323  O     0.50000   0.87155   0.81547   0.00000  Uiso   1.00
O1324  O     0.50000   0.79511   0.68453   0.00000  Uiso   1.00
Zn1325 Zn    0.50000   0.88437   0.75000   0.00000  Uiso   1.00
Zn1326 Zn    0.50000   0.78229   0.75000   0.00000  Uiso   1.00
C1327  C     0.75352   0.83343   0.75047   0.00000  Uiso   1.00
C1328  C     0.97776   0.83513   0.79122   0.00000  Uiso   1.00
C1329  C     0.97853   0.83606   0.70852   0.00000  Uiso   1.00
C1330  C     0.68813   0.83606   0.79148   0.00000  Uiso   1.00
C1331  C     0.82092   0.87218   0.54732   0.00000  Uiso   1.00
C1332  C     0.82067   0.79462   0.95284   0.00000  Uiso   1.00
C1333  C     0.84574   0.87218   0.95268   0.00000  Uiso   1.00
C1334  C     0.84599   0.79462   0.54716   0.00000  Uiso   1.00
C1335  C     0.82175   0.87243   0.59320   0.00000  Uiso   1.00
C1336  C     0.82134   0.79436   0.90694   0.00000  Uiso   1.00
C1337  C     0.84491   0.87243   0.90680   0.00000  Uiso   1.00
C1338  C     0.91315   0.83343   0.74954   0.00000  Uiso   1.00
C1339  C     0.84532   0.79436   0.59306   0.00000  Uiso   1.00
C1340  C     0.83351   0.83337   0.61610   0.00000  Uiso   1.00
C1341  C     0.83315   0.83337   0.88390   0.00000  Uiso   1.00
C1342  C     0.83339   0.83340   0.52412   0.00000  Uiso   1.00
C1343  C     0.83327   0.83340   0.97588   0.00000  Uiso   1.00
C1344  C     0.95735   0.83412   0.74973   0.00000  Uiso   1.00
C1345  C     0.70932   0.83412   0.75027   0.00000  Uiso   1.00
C1346  C     0.71395   0.83663   0.66532   0.00000  Uiso   1.00
C1347  C     0.72343   0.88525   0.65143   0.00000  Uiso   1.00
C1348  C     0.95272   0.83662   0.83468   0.00000  Uiso   1.00
C1349  C     0.83345   0.83334   0.66396   0.00000  Uiso   1.00
C1350  C     0.94324   0.88524   0.84858   0.00000  Uiso   1.00
C1351  C     0.95439   0.83949   0.66481   0.00000  Uiso   1.00
C1352  C     0.94524   0.79288   0.64563   0.00000  Uiso   1.00
C1353  C     0.71228   0.83948   0.83519   0.00000  Uiso   1.00
C1354  C     0.72143   0.79288   0.85437   0.00000  Uiso   1.00
C1355  C     0.83321   0.83334   0.83604   0.00000  Uiso   1.00
C1356  C     0.81102   0.69050   0.78105   0.00000  Uiso   1.00
C1357  C     0.85585   0.97599   0.71909   0.00000  Uiso   1.00
C1358  C     0.85565   0.69050   0.71895   0.00000  Uiso   1.00
C1359  C     0.81082   0.97599   0.78091   0.00000  Uiso   1.00
C1360  C     0.68890   0.83514   0.70878   0.00000  Uiso   1.00
F1361  F     0.78884   0.71278   0.81248   0.00000  Uiso   1.00
F1362  F     0.87868   0.95340   0.68822   0.00000  Uiso   1.00
F1363  F     0.87782   0.71278   0.68752   0.00000  Uiso   1.00
F1364  F     0.78799   0.95339   0.81178   0.00000  Uiso   1.00
H1365  H     0.81027   0.90214   0.53008   0.00000  Uiso   1.00
H1366  H     0.74726   0.90037   0.67358   0.00000  Uiso   1.00
H1367  H     0.73560   0.88559   0.61683   0.00000  Uiso   1.00
H1368  H     0.74367   0.81761   0.66808   0.00000  Uiso   1.00
H1369  H     0.69741   0.81926   0.63794   0.00000  Uiso   1.00
H1370  H     0.91940   0.90036   0.82642   0.00000  Uiso   1.00
H1371  H     0.93106   0.88557   0.88318   0.00000  Uiso   1.00
H1372  H     0.97177   0.90651   0.84730   0.00000  Uiso   1.00
H1373  H     0.92300   0.81760   0.83192   0.00000  Uiso   1.00
H1374  H     0.96926   0.81925   0.86206   0.00000  Uiso   1.00
H1375  H     0.97388   0.77182   0.64400   0.00000  Uiso   1.00
H1376  H     0.81003   0.76469   0.97022   0.00000  Uiso   1.00
H1377  H     0.92189   0.77555   0.66671   0.00000  Uiso   1.00
H1378  H     0.93250   0.79643   0.61153   0.00000  Uiso   1.00
H1379  H     0.92453   0.85801   0.66918   0.00000  Uiso   1.00
H1380  H     0.97142   0.85989   0.63976   0.00000  Uiso   1.00
H1381  H     0.74479   0.77555   0.83329   0.00000  Uiso   1.00
H1382  H     0.73417   0.79642   0.88847   0.00000  Uiso   1.00
H1383  H     0.69279   0.77181   0.85599   0.00000  Uiso   1.00
H1384  H     0.74214   0.85801   0.83082   0.00000  Uiso   1.00
H1385  H     0.69525   0.85988   0.86024   0.00000  Uiso   1.00
H1386  H     0.85639   0.90214   0.96992   0.00000  Uiso   1.00
H1387  H     0.85663   0.76469   0.52978   0.00000  Uiso   1.00
H1388  H     0.81246   0.90282   0.61068   0.00000  Uiso   1.00
H1389  H     0.81180   0.76403   0.88957   0.00000  Uiso   1.00
H1390  H     0.85421   0.90282   0.88932   0.00000  Uiso   1.00
H1391  H     0.85486   0.76403   0.61043   0.00000  Uiso   1.00
H1392  H     0.69489   0.90652   0.65270   0.00000  Uiso   1.00
N1393  N     0.83333   0.95240   0.75000   0.00000  Uiso   1.00
N1394  N     0.83333   0.71427   0.75000   0.00000  Uiso   1.00
O1395  O     0.77226   0.87154   0.74999   0.00000  Uiso   1.00
O1396  O     0.89441   0.79513   0.75001   0.00000  Uiso   1.00
O1397  O     0.89441   0.87154   0.75001   0.00000  Uiso   1.00
O1398  O     0.77226   0.79513   0.75000   0.00000  Uiso   1.00
O1399  O     0.83333   0.87155   0.68453   0.00000  Uiso   1.00
O1400  O     0.83334   0.79511   0.81547   0.00000  Uiso   1.00
O1401  O     0.83334   0.87155   0.81547   0.00000  Uiso   1.00
O1402  O     0.83333   0.79511   0.68453   0.00000  Uiso   1.00
Zn1403 Zn    0.83333   0.88437   0.75000   0.00000  Uiso   1.00
Zn1404 Zn    0.83333   0.78229   0.75000   0.00000  Uiso   1.00
loop_
_geom_bond_atom_site_label_1
_geom_bond_atom_site_label_2
_geom_bond_distance
_geom_bond_site_symmetry_2
_ccdc_geom_bond_type
C1     C19     1.415   .     S
C1     O72     1.283   .     A
C1     O69     1.278   .     A
C2     C18     1.410   .     A
C2     C22     1.531   .     S
C2     C82     1.399   .     S
C3     C18     1.411   .     A
C3     C25     1.530   .     S
C3     C112    1.399   .     S
C4     C19     1.411   .     A
C4     C27     1.530   .     S
C4     C158    1.399   1_455 S
C5     C16     1.401   .     A
C5     C9      1.379   .     A
C5     H39     1.083   .     S
C6     H50     1.083   .     S
C6     C17     1.401   .     A
C6     C10     1.380   .     A
C7     C11     1.379   .     A
C7     C17     1.401   .     A
C7     H60     1.083   .     S
C8     C13     1.380   .     A
C8     H61     1.083   .     S
C8     C16     1.401   .     A
C9     H62     1.083   .     S
C9     C14     1.398   .     A
C10    H63     1.083   .     S
C10    C15     1.398   .     A
C11    C15     1.398   .     A
C11    H64     1.083   .     S
C12    O71     1.278   .     A
C12    O70     1.283   .     A
C12    C18     1.415   .     S
C13    H65     1.083   .     S
C13    C14     1.398   .     A
C14    C23     1.438   .     S
C15    C29     1.438   .     S
C16    C719    1.450   1_554 S
C17    C718    1.450   .     S
C19    C34     1.410   .     A
C20    H43     1.107   .     S
C20    C34     1.531   .     S
C20    H42     1.109   .     S
C20    C21     1.529   .     S
C21    H66     1.110   .     S
C21    H41     1.109   .     S
C21    H40     1.109   .     S
C22    H48     1.107   .     S
C22    H47     1.109   .     S
C22    C24     1.529   .     S
C23    O76     1.290   .     A
C23    O73     1.289   .     A
C24    H45     1.109   .     S
C24    H44     1.109   .     S
C24    H46     1.110   .     S
C25    H53     1.109   .     S
C25    H54     1.107   .     S
C25    C26     1.524   .     S
C26    H49     1.109   .     S
C26    H52     1.109   .     S
C26    H51     1.104   .     S
C27    H58     1.109   .     S
C27    H59     1.107   .     S
C27    C28     1.524   .     S
C28    H56     1.109   .     S
C28    H57     1.109   .     S
C28    H55     1.104   .     S
C29    O74     1.290   .     A
C29    O75     1.289   .     A
C30    F35     1.351   .     S
C30    N68     1.368   .     A
C30    C501    1.417   1_545 S
C31    N67     1.366   .     A
C31    F36     1.355   .     S
C31    C266    1.417   .     S
C32    N68     1.368   .     A
C32    F37     1.351   .     S
C32    C499    1.417   1_545 S
C33    N67     1.366   .     A
C33    F38     1.355   .     S
C33    C264    1.417   .     S
C34    C159    1.399   1_455 S
N67    Zn77    2.014   .     S
N68    Zn78    2.014   .     S
O69    Zn77    1.991   .     S
O70    Zn78    1.991   .     S
O71    Zn77    1.991   .     S
O72    Zn78    1.991   .     S
O73    Zn77    2.004   .     S
O74    Zn78    2.004   .     S
O75    Zn77    2.004   .     S
O76    Zn78    2.004   .     S
C79    C97     1.415   .     S
C79    O150    1.283   .     A
C79    O147    1.278   .     A
C80    C96     1.410   .     A
C80    C100    1.531   .     S
C80    C160    1.399   .     S
C81    C96     1.411   .     A
C81    C103    1.530   .     S
C81    C190    1.399   .     S
C82    C97     1.411   .     A
C82    C105    1.530   .     S
C83    C94     1.401   .     A
C83    C87     1.379   .     A
C83    H117    1.083   .     S
C84    H128    1.083   .     S
C84    C95     1.401   .     A
C84    C88     1.380   .     A
C85    C89     1.379   .     A
C85    C95     1.401   .     A
C85    H138    1.083   .     S
C86    C91     1.380   .     A
C86    H139    1.083   .     S
C86    C94     1.401   .     A
C87    H140    1.083   .     S
C87    C92     1.398   .     A
C88    H141    1.083   .     S
C88    C93     1.398   .     A
C89    C93     1.398   .     A
C89    H142    1.083   .     S
C90    O149    1.278   .     A
C90    O148    1.283   .     A
C90    C96     1.415   .     S
C91    H143    1.083   .     S
C91    C92     1.398   .     A
C92    C101    1.438   .     S
C93    C107    1.438   .     S
C94    C797    1.450   1_554 S
C95    C796    1.450   .     S
C97    C112    1.410   .     A
C98    H121    1.107   .     S
C98    C112    1.531   .     S
C98    H120    1.109   .     S
C98    C99     1.529   .     S
C99    H144    1.110   .     S
C99    H119    1.109   .     S
C99    H118    1.109   .     S
C100   H126    1.107   .     S
C100   H125    1.109   .     S
C100   C102    1.529   .     S
C101   O154    1.290   .     A
C101   O151    1.289   .     A
C102   H123    1.109   .     S
C102   H122    1.109   .     S
C102   H124    1.110   .     S
C103   H131    1.109   .     S
C103   H132    1.107   .     S
C103   C104    1.524   .     S
C104   H127    1.109   .     S
C104   H130    1.109   .     S
C104   H129    1.104   .     S
C105   H136    1.109   .     S
C105   H137    1.107   .     S
C105   C106    1.524   .     S
C106   H134    1.109   .     S
C106   H135    1.109   .     S
C106   H133    1.104   .     S
C107   O152    1.290   .     A
C107   O153    1.289   .     A
C108   F113    1.351   .     S
C108   N146    1.368   .     A
C108   C579    1.417   1_545 S
C109   N145    1.366   .     A
C109   F114    1.355   .     S
C109   C344    1.417   .     S
C110   N146    1.368   .     A
C110   F115    1.351   .     S
C110   C577    1.417   1_545 S
C111   N145    1.366   .     A
C111   F116    1.355   .     S
C111   C342    1.417   .     S
N145   Zn155   2.014   .     S
N146   Zn156   2.014   .     S
O147   Zn155   1.991   .     S
O148   Zn156   1.991   .     S
O149   Zn155   1.991   .     S
O150   Zn156   1.991   .     S
O151   Zn155   2.004   .     S
O152   Zn156   2.004   .     S
O153   Zn155   2.004   .     S
O154   Zn156   2.004   .     S
C157   C175    1.415   .     S
C157   O228    1.283   .     A
C157   O225    1.278   .     A
C158   C174    1.410   .     A
C158   C178    1.531   .     S
C158   C4      1.399   1_655 S
C159   C174    1.411   .     A
C159   C181    1.530   .     S
C159   C34     1.399   1_655 S
C160   C175    1.411   .     A
C160   C183    1.530   .     S
C161   C172    1.401   .     A
C161   C165    1.379   .     A
C161   H195    1.083   .     S
C162   H206    1.083   .     S
C162   C173    1.401   .     A
C162   C166    1.380   .     A
C163   C167    1.379   .     A
C163   C173    1.401   .     A
C163   H216    1.083   .     S
C164   C169    1.380   .     A
C164   H217    1.083   .     S
C164   C172    1.401   .     A
C165   H218    1.083   .     S
C165   C170    1.398   .     A
C166   H219    1.083   .     S
C166   C171    1.398   .     A
C167   C171    1.398   .     A
C167   H220    1.083   .     S
C168   O227    1.278   .     A
C168   O226    1.283   .     A
C168   C174    1.415   .     S
C169   H221    1.083   .     S
C169   C170    1.398   .     A
C170   C179    1.438   .     S
C171   C185    1.438   .     S
C172   C875    1.450   1_554 S
C173   C874    1.450   .     S
C175   C190    1.410   .     A
C176   H199    1.107   .     S
C176   C190    1.531   .     S
C176   H198    1.109   .     S
C176   C177    1.529   .     S
C177   H222    1.110   .     S
C177   H197    1.109   .     S
C177   H196    1.109   .     S
C178   H204    1.107   .     S
C178   H203    1.109   .     S
C178   C180    1.529   .     S
C179   O232    1.290   .     A
C179   O229    1.289   .     A
C180   H201    1.109   .     S
C180   H200    1.109   .     S
C180   H202    1.110   .     S
C181   H209    1.109   .     S
C181   H210    1.107   .     S
C181   C182    1.524   .     S
C182   H205    1.109   .     S
C182   H208    1.109   .     S
C182   H207    1.104   .     S
C183   H214    1.109   .     S
C183   H215    1.107   .     S
C183   C184    1.524   .     S
C184   H212    1.109   .     S
C184   H213    1.109   .     S
C184   H211    1.104   .     S
C185   O230    1.290   .     A
C185   O231    1.289   .     A
C186   F191    1.351   .     S
C186   N224    1.368   .     A
C186   C657    1.417   1_545 S
C187   N223    1.366   .     A
C187   F192    1.355   .     S
C187   C422    1.417   .     S
C188   N224    1.368   .     A
C188   F193    1.351   .     S
C188   C655    1.417   1_545 S
C189   N223    1.366   .     A
C189   F194    1.355   .     S
C189   C420    1.417   .     S
N223   Zn233   2.014   .     S
N224   Zn234   2.014   .     S
O225   Zn233   1.991   .     S
O226   Zn234   1.991   .     S
O227   Zn233   1.991   .     S
O228   Zn234   1.991   .     S
O229   Zn233   2.004   .     S
O230   Zn234   2.004   .     S
O231   Zn233   2.004   .     S
O232   Zn234   2.004   .     S
C235   C253    1.415   .     S
C235   O306    1.283   .     A
C235   O303    1.278   .     A
C236   C252    1.410   .     A
C236   C256    1.531   .     S
C236   C316    1.399   .     S
C237   C252    1.411   .     A
C237   C259    1.530   .     S
C237   C346    1.399   .     S
C238   C253    1.411   .     A
C238   C261    1.530   .     S
C238   C392    1.399   1_455 S
C239   C250    1.401   .     A
C239   C243    1.379   .     A
C239   H273    1.083   .     S
C240   H284    1.083   .     S
C240   C251    1.401   .     A
C240   C244    1.380   .     A
C241   C245    1.379   .     A
C241   C251    1.401   .     A
C241   H294    1.083   .     S
C242   C247    1.380   .     A
C242   H295    1.083   .     S
C242   C250    1.401   .     A
C243   H296    1.083   .     S
C243   C248    1.398   .     A
C244   H297    1.083   .     S
C244   C249    1.398   .     A
C245   C249    1.398   .     A
C245   H298    1.083   .     S
C246   O305    1.278   .     A
C246   O304    1.283   .     A
C246   C252    1.415   .     S
C247   H299    1.083   .     S
C247   C248    1.398   .     A
C248   C257    1.438   .     S
C249   C263    1.438   .     S
C250   C953    1.450   1_554 S
C251   C952    1.450   .     S
C253   C268    1.410   .     A
C254   H277    1.107   .     S
C254   C268    1.531   .     S
C254   H276    1.109   .     S
C254   C255    1.529   .     S
C255   H300    1.110   .     S
C255   H275    1.109   .     S
C255   H274    1.109   .     S
C256   H282    1.107   .     S
C256   H281    1.109   .     S
C256   C258    1.529   .     S
C257   O310    1.290   .     A
C257   O307    1.289   .     A
C258   H279    1.109   .     S
C258   H278    1.109   .     S
C258   H280    1.110   .     S
C259   H287    1.109   .     S
C259   H288    1.107   .     S
C259   C260    1.524   .     S
C260   H283    1.109   .     S
C260   H286    1.109   .     S
C260   H285    1.104   .     S
C261   H292    1.109   .     S
C261   H293    1.107   .     S
C261   C262    1.524   .     S
C262   H290    1.109   .     S
C262   H291    1.109   .     S
C262   H289    1.104   .     S
C263   O308    1.290   .     A
C263   O309    1.289   .     A
C264   F269    1.351   .     S
C264   N302    1.368   .     A
C265   N301    1.366   .     A
C265   F270    1.355   .     S
C265   C500    1.417   .     S
C266   N302    1.368   .     A
C266   F271    1.351   .     S
C267   N301    1.366   .     A
C267   F272    1.355   .     S
C267   C498    1.417   .     S
C268   C393    1.399   1_455 S
N301   Zn311   2.014   .     S
N302   Zn312   2.014   .     S
O303   Zn311   1.991   .     S
O304   Zn312   1.991   .     S
O305   Zn311   1.991   .     S
O306   Zn312   1.991   .     S
O307   Zn311   2.004   .     S
O308   Zn312   2.004   .     S
O309   Zn311   2.004   .     S
O310   Zn312   2.004   .     S
C313   C331    1.415   .     S
C313   O384    1.283   .     A
C313   O381    1.278   .     A
C314   C330    1.410   .     A
C314   C334    1.531   .     S
C314   C394    1.399   .     S
C315   C330    1.411   .     A
C315   C337    1.530   .     S
C315   C424    1.399   .     S
C316   C331    1.411   .     A
C316   C339    1.530   .     S
C317   C328    1.401   .     A
C317   C321    1.379   .     A
C317   H351    1.083   .     S
C318   H362    1.083   .     S
C318   C329    1.401   .     A
C318   C322    1.380   .     A
C319   C323    1.379   .     A
C319   C329    1.401   .     A
C319   H372    1.083   .     S
C320   C325    1.380   .     A
C320   H373    1.083   .     S
C320   C328    1.401   .     A
C321   H374    1.083   .     S
C321   C326    1.398   .     A
C322   H375    1.083   .     S
C322   C327    1.398   .     A
C323   C327    1.398   .     A
C323   H376    1.083   .     S
C324   O383    1.278   .     A
C324   O382    1.283   .     A
C324   C330    1.415   .     S
C325   H377    1.083   .     S
C325   C326    1.398   .     A
C326   C335    1.438   .     S
C327   C341    1.438   .     S
C328   C1031   1.450   1_554 S
C329   C1030   1.450   .     S
C331   C346    1.410   .     A
C332   H355    1.107   .     S
C332   C346    1.531   .     S
C332   H354    1.109   .     S
C332   C333    1.529   .     S
C333   H378    1.110   .     S
C333   H353    1.109   .     S
C333   H352    1.109   .     S
C334   H360    1.107   .     S
C334   H359    1.109   .     S
C334   C336    1.529   .     S
C335   O388    1.290   .     A
C335   O385    1.289   .     A
C336   H357    1.109   .     S
C336   H356    1.109   .     S
C336   H358    1.110   .     S
C337   H365    1.109   .     S
C337   H366    1.107   .     S
C337   C338    1.524   .     S
C338   H361    1.109   .     S
C338   H364    1.109   .     S
C338   H363    1.104   .     S
C339   H370    1.109   .     S
C339   H371    1.107   .     S
C339   C340    1.524   .     S
C340   H368    1.109   .     S
C340   H369    1.109   .     S
C340   H367    1.104   .     S
C341   O386    1.290   .     A
C341   O387    1.289   .     A
C342   F347    1.351   .     S
C342   N380    1.368   .     A
C343   N379    1.366   .     A
C343   F348    1.355   .     S
C343   C578    1.417   .     S
C344   N380    1.368   .     A
C344   F349    1.351   .     S
C345   N379    1.366   .     A
C345   F350    1.355   .     S
C345   C576    1.417   .     S
N379   Zn389   2.014   .     S
N380   Zn390   2.014   .     S
O381   Zn389   1.991   .     S
O382   Zn390   1.991   .     S
O383   Zn389   1.991   .     S
O384   Zn390   1.991   .     S
O385   Zn389   2.004   .     S
O386   Zn390   2.004   .     S
O387   Zn389   2.004   .     S
O388   Zn390   2.004   .     S
C391   C409    1.415   .     S
C391   O462    1.283   .     A
C391   O459    1.278   .     A
C392   C408    1.410   .     A
C392   C412    1.531   .     S
C392   C238    1.399   1_655 S
C393   C408    1.411   .     A
C393   C415    1.530   .     S
C393   C268    1.399   1_655 S
C394   C409    1.411   .     A
C394   C417    1.530   .     S
C395   C406    1.401   .     A
C395   C399    1.379   .     A
C395   H429    1.083   .     S
C396   H440    1.083   .     S
C396   C407    1.401   .     A
C396   C400    1.380   .     A
C397   C401    1.379   .     A
C397   C407    1.401   .     A
C397   H450    1.083   .     S
C398   C403    1.380   .     A
C398   H451    1.083   .     S
C398   C406    1.401   .     A
C399   H452    1.083   .     S
C399   C404    1.398   .     A
C400   H453    1.083   .     S
C400   C405    1.398   .     A
C401   C405    1.398   .     A
C401   H454    1.083   .     S
C402   O461    1.278   .     A
C402   O460    1.283   .     A
C402   C408    1.415   .     S
C403   H455    1.083   .     S
C403   C404    1.398   .     A
C404   C413    1.438   .     S
C405   C419    1.438   .     S
C406   C1109   1.450   1_554 S
C407   C1108   1.450   .     S
C409   C424    1.410   .     A
C410   H433    1.107   .     S
C410   C424    1.531   .     S
C410   H432    1.109   .     S
C410   C411    1.529   .     S
C411   H456    1.110   .     S
C411   H431    1.109   .     S
C411   H430    1.109   .     S
C412   H438    1.107   .     S
C412   H437    1.109   .     S
C412   C414    1.529   .     S
C413   O466    1.290   .     A
C413   O463    1.289   .     A
C414   H435    1.109   .     S
C414   H434    1.109   .     S
C414   H436    1.110   .     S
C415   H443    1.109   .     S
C415   H444    1.107   .     S
C415   C416    1.524   .     S
C416   H439    1.109   .     S
C416   H442    1.109   .     S
C416   H441    1.104   .     S
C417   H448    1.109   .     S
C417   H449    1.107   .     S
C417   C418    1.524   .     S
C418   H446    1.109   .     S
C418   H447    1.109   .     S
C418   H445    1.104   .     S
C419   O464    1.290   .     A
C419   O465    1.289   .     A
C420   F425    1.351   .     S
C420   N458    1.368   .     A
C421   N457    1.366   .     A
C421   F426    1.355   .     S
C421   C656    1.417   .     S
C422   N458    1.368   .     A
C422   F427    1.351   .     S
C423   N457    1.366   .     A
C423   F428    1.355   .     S
C423   C654    1.417   .     S
N457   Zn467   2.014   .     S
N458   Zn468   2.014   .     S
O459   Zn467   1.991   .     S
O460   Zn468   1.991   .     S
O461   Zn467   1.991   .     S
O462   Zn468   1.991   .     S
O463   Zn467   2.004   .     S
O464   Zn468   2.004   .     S
O465   Zn467   2.004   .     S
O466   Zn468   2.004   .     S
C469   C487    1.415   .     S
C469   O540    1.283   .     A
C469   O537    1.278   .     A
C470   C486    1.410   .     A
C470   C490    1.531   .     S
C470   C550    1.399   .     S
C471   C486    1.411   .     A
C471   C493    1.530   .     S
C471   C580    1.399   .     S
C472   C487    1.411   .     A
C472   C495    1.530   .     S
C472   C626    1.399   1_455 S
C473   C484    1.401   .     A
C473   C477    1.379   .     A
C473   H507    1.083   .     S
C474   H518    1.083   .     S
C474   C485    1.401   .     A
C474   C478    1.380   .     A
C475   C479    1.379   .     A
C475   C485    1.401   .     A
C475   H528    1.083   .     S
C476   C481    1.380   .     A
C476   H529    1.083   .     S
C476   C484    1.401   .     A
C477   H530    1.083   .     S
C477   C482    1.398   .     A
C478   H531    1.083   .     S
C478   C483    1.398   .     A
C479   C483    1.398   .     A
C479   H532    1.083   .     S
C480   O539    1.278   .     A
C480   O538    1.283   .     A
C480   C486    1.415   .     S
C481   H533    1.083   .     S
C481   C482    1.398   .     A
C482   C491    1.438   .     S
C483   C497    1.438   .     S
C484   C1187   1.450   1_554 S
C485   C1186   1.450   .     S
C487   C502    1.410   .     A
C488   H511    1.107   .     S
C488   C502    1.531   .     S
C488   H510    1.109   .     S
C488   C489    1.529   .     S
C489   H534    1.110   .     S
C489   H509    1.109   .     S
C489   H508    1.109   .     S
C490   H516    1.107   .     S
C490   H515    1.109   .     S
C490   C492    1.529   .     S
C491   O544    1.290   .     A
C491   O541    1.289   .     A
C492   H513    1.109   .     S
C492   H512    1.109   .     S
C492   H514    1.110   .     S
C493   H521    1.109   .     S
C493   H522    1.107   .     S
C493   C494    1.524   .     S
C494   H517    1.109   .     S
C494   H520    1.109   .     S
C494   H519    1.104   .     S
C495   H526    1.109   .     S
C495   H527    1.107   .     S
C495   C496    1.524   .     S
C496   H524    1.109   .     S
C496   H525    1.109   .     S
C496   H523    1.104   .     S
C497   O542    1.290   .     A
C497   O543    1.289   .     A
C498   F503    1.351   .     S
C498   N536    1.368   .     A
C499   N535    1.366   .     A
C499   F504    1.355   .     S
C499   C32     1.417   1_565 S
C500   N536    1.368   .     A
C500   F505    1.351   .     S
C501   N535    1.366   .     A
C501   F506    1.355   .     S
C501   C30     1.417   1_565 S
C502   C627    1.399   1_455 S
N535   Zn545   2.014   .     S
N536   Zn546   2.014   .     S
O537   Zn545   1.991   .     S
O538   Zn546   1.991   .     S
O539   Zn545   1.991   .     S
O540   Zn546   1.991   .     S
O541   Zn545   2.004   .     S
O542   Zn546   2.004   .     S
O543   Zn545   2.004   .     S
O544   Zn546   2.004   .     S
C547   C565    1.415   .     S
C547   O618    1.283   .     A
C547   O615    1.278   .     A
C548   C564    1.410   .     A
C548   C568    1.531   .     S
C548   C628    1.399   .     S
C549   C564    1.411   .     A
C549   C571    1.530   .     S
C549   C658    1.399   .     S
C550   C565    1.411   .     A
C550   C573    1.530   .     S
C551   C562    1.401   .     A
C551   C555    1.379   .     A
C551   H585    1.083   .     S
C552   H596    1.083   .     S
C552   C563    1.401   .     A
C552   C556    1.380   .     A
C553   C557    1.379   .     A
C553   C563    1.401   .     A
C553   H606    1.083   .     S
C554   C559    1.380   .     A
C554   H607    1.083   .     S
C554   C562    1.401   .     A
C555   H608    1.083   .     S
C555   C560    1.398   .     A
C556   H609    1.083   .     S
C556   C561    1.398   .     A
C557   C561    1.398   .     A
C557   H610    1.083   .     S
C558   O617    1.278   .     A
C558   O616    1.283   .     A
C558   C564    1.415   .     S
C559   H611    1.083   .     S
C559   C560    1.398   .     A
C560   C569    1.438   .     S
C561   C575    1.438   .     S
C562   C1265   1.450   1_554 S
C563   C1264   1.450   .     S
C565   C580    1.410   .     A
C566   H589    1.107   .     S
C566   C580    1.531   .     S
C566   H588    1.109   .     S
C566   C567    1.529   .     S
C567   H612    1.110   .     S
C567   H587    1.109   .     S
C567   H586    1.109   .     S
C568   H594    1.107   .     S
C568   H593    1.109   .     S
C568   C570    1.529   .     S
C569   O622    1.290   .     A
C569   O619    1.289   .     A
C570   H591    1.109   .     S
C570   H590    1.109   .     S
C570   H592    1.110   .     S
C571   H599    1.109   .     S
C571   H600    1.107   .     S
C571   C572    1.524   .     S
C572   H595    1.109   .     S
C572   H598    1.109   .     S
C572   H597    1.104   .     S
C573   H604    1.109   .     S
C573   H605    1.107   .     S
C573   C574    1.524   .     S
C574   H602    1.109   .     S
C574   H603    1.109   .     S
C574   H601    1.104   .     S
C575   O620    1.290   .     A
C575   O621    1.289   .     A
C576   F581    1.351   .     S
C576   N614    1.368   .     A
C577   N613    1.366   .     A
C577   F582    1.355   .     S
C577   C110    1.417   1_565 S
C578   N614    1.368   .     A
C578   F583    1.351   .     S
C579   N613    1.366   .     A
C579   F584    1.355   .     S
C579   C108    1.417   1_565 S
N613   Zn623   2.014   .     S
N614   Zn624   2.014   .     S
O615   Zn623   1.991   .     S
O616   Zn624   1.991   .     S
O617   Zn623   1.991   .     S
O618   Zn624   1.991   .     S
O619   Zn623   2.004   .     S
O620   Zn624   2.004   .     S
O621   Zn623   2.004   .     S
O622   Zn624   2.004   .     S
C625   C643    1.415   .     S
C625   O696    1.283   .     A
C625   O693    1.278   .     A
C626   C642    1.410   .     A
C626   C646    1.531   .     S
C626   C472    1.399   1_655 S
C627   C642    1.411   .     A
C627   C649    1.530   .     S
C627   C502    1.399   1_655 S
C628   C643    1.411   .     A
C628   C651    1.530   .     S
C629   C640    1.401   .     A
C629   C633    1.379   .     A
C629   H663    1.083   .     S
C630   H674    1.083   .     S
C630   C641    1.401   .     A
C630   C634    1.380   .     A
C631   C635    1.379   .     A
C631   C641    1.401   .     A
C631   H684    1.083   .     S
C632   C637    1.380   .     A
C632   H685    1.083   .     S
C632   C640    1.401   .     A
C633   H686    1.083   .     S
C633   C638    1.398   .     A
C634   H687    1.083   .     S
C634   C639    1.398   .     A
C635   C639    1.398   .     A
C635   H688    1.083   .     S
C636   O695    1.278   .     A
C636   O694    1.283   .     A
C636   C642    1.415   .     S
C637   H689    1.083   .     S
C637   C638    1.398   .     A
C638   C647    1.438   .     S
C639   C653    1.438   .     S
C640   C1343   1.450   1_554 S
C641   C1342   1.450   .     S
C643   C658    1.410   .     A
C644   H667    1.107   .     S
C644   C658    1.531   .     S
C644   H666    1.109   .     S
C644   C645    1.529   .     S
C645   H690    1.110   .     S
C645   H665    1.109   .     S
C645   H664    1.109   .     S
C646   H672    1.107   .     S
C646   H671    1.109   .     S
C646   C648    1.529   .     S
C647   O700    1.290   .     A
C647   O697    1.289   .     A
C648   H669    1.109   .     S
C648   H668    1.109   .     S
C648   H670    1.110   .     S
C649   H677    1.109   .     S
C649   H678    1.107   .     S
C649   C650    1.524   .     S
C650   H673    1.109   .     S
C650   H676    1.109   .     S
C650   H675    1.104   .     S
C651   H682    1.109   .     S
C651   H683    1.107   .     S
C651   C652    1.524   .     S
C652   H680    1.109   .     S
C652   H681    1.109   .     S
C652   H679    1.104   .     S
C653   O698    1.290   .     A
C653   O699    1.289   .     A
C654   F659    1.351   .     S
C654   N692    1.368   .     A
C655   N691    1.366   .     A
C655   F660    1.355   .     S
C655   C188    1.417   1_565 S
C656   N692    1.368   .     A
C656   F661    1.351   .     S
C657   N691    1.366   .     A
C657   F662    1.355   .     S
C657   C186    1.417   1_565 S
N691   Zn701   2.014   .     S
N692   Zn702   2.014   .     S
O693   Zn701   1.991   .     S
O694   Zn702   1.991   .     S
O695   Zn701   1.991   .     S
O696   Zn702   1.991   .     S
O697   Zn701   2.004   .     S
O698   Zn702   2.004   .     S
O699   Zn701   2.004   .     S
O700   Zn702   2.004   .     S
C703   C721    1.415   .     S
C703   O774    1.283   .     A
C703   O771    1.278   .     A
C704   C720    1.410   .     A
C704   C724    1.531   .     S
C704   C784    1.399   .     S
C705   C720    1.411   .     A
C705   C727    1.530   .     S
C705   C814    1.399   .     S
C706   C721    1.411   .     A
C706   C729    1.530   .     S
C706   C860    1.399   1_455 S
C707   C718    1.401   .     A
C707   C711    1.379   .     A
C707   H741    1.083   .     S
C708   H752    1.083   .     S
C708   C719    1.401   .     A
C708   C712    1.380   .     A
C709   C713    1.379   .     A
C709   C719    1.401   .     A
C709   H762    1.083   .     S
C710   C715    1.380   .     A
C710   H763    1.083   .     S
C710   C718    1.401   .     A
C711   H764    1.083   .     S
C711   C716    1.398   .     A
C712   H765    1.083   .     S
C712   C717    1.398   .     A
C713   C717    1.398   .     A
C713   H766    1.083   .     S
C714   O773    1.278   .     A
C714   O772    1.283   .     A
C714   C720    1.415   .     S
C715   H767    1.083   .     S
C715   C716    1.398   .     A
C716   C725    1.438   .     S
C717   C731    1.438   .     S
C719   C16     1.450   1_556 S
C721   C736    1.410   .     A
C722   H745    1.107   .     S
C722   C736    1.531   .     S
C722   H744    1.109   .     S
C722   C723    1.529   .     S
C723   H768    1.110   .     S
C723   H743    1.109   .     S
C723   H742    1.109   .     S
C724   H750    1.107   .     S
C724   H749    1.109   .     S
C724   C726    1.529   .     S
C725   O778    1.290   .     A
C725   O775    1.289   .     A
C726   H747    1.109   .     S
C726   H746    1.109   .     S
C726   H748    1.110   .     S
C727   H755    1.109   .     S
C727   H756    1.107   .     S
C727   C728    1.524   .     S
C728   H751    1.109   .     S
C728   H754    1.109   .     S
C728   H753    1.104   .     S
C729   H760    1.109   .     S
C729   H761    1.107   .     S
C729   C730    1.524   .     S
C730   H758    1.109   .     S
C730   H759    1.109   .     S
C730   H757    1.104   .     S
C731   O776    1.290   .     A
C731   O777    1.289   .     A
C732   F737    1.351   .     S
C732   N770    1.368   .     A
C732   C1203   1.417   1_545 S
C733   N769    1.366   .     A
C733   F738    1.355   .     S
C733   C968    1.417   .     S
C734   N770    1.368   .     A
C734   F739    1.351   .     S
C734   C1201   1.417   1_545 S
C735   N769    1.366   .     A
C735   F740    1.355   .     S
C735   C966    1.417   .     S
C736   C861    1.399   1_455 S
N769   Zn779   2.014   .     S
N770   Zn780   2.014   .     S
O771   Zn779   1.991   .     S
O772   Zn780   1.991   .     S
O773   Zn779   1.991   .     S
O774   Zn780   1.991   .     S
O775   Zn779   2.004   .     S
O776   Zn780   2.004   .     S
O777   Zn779   2.004   .     S
O778   Zn780   2.004   .     S
C781   C799    1.415   .     S
C781   O852    1.283   .     A
C781   O849    1.278   .     A
C782   C798    1.410   .     A
C782   C802    1.531   .     S
C782   C862    1.399   .     S
C783   C798    1.411   .     A
C783   C805    1.530   .     S
C783   C892    1.399   .     S
C784   C799    1.411   .     A
C784   C807    1.530   .     S
C785   C796    1.401   .     A
C785   C789    1.379   .     A
C785   H819    1.083   .     S
C786   H830    1.083   .     S
C786   C797    1.401   .     A
C786   C790    1.380   .     A
C787   C791    1.379   .     A
C787   C797    1.401   .     A
C787   H840    1.083   .     S
C788   C793    1.380   .     A
C788   H841    1.083   .     S
C788   C796    1.401   .     A
C789   H842    1.083   .     S
C789   C794    1.398   .     A
C790   H843    1.083   .     S
C790   C795    1.398   .     A
C791   C795    1.398   .     A
C791   H844    1.083   .     S
C792   O851    1.278   .     A
C792   O850    1.283   .     A
C792   C798    1.415   .     S
C793   H845    1.083   .     S
C793   C794    1.398   .     A
C794   C803    1.438   .     S
C795   C809    1.438   .     S
C797   C94     1.450   1_556 S
C799   C814    1.410   .     A
C800   H823    1.107   .     S
C800   C814    1.531   .     S
C800   H822    1.109   .     S
C800   C801    1.529   .     S
C801   H846    1.110   .     S
C801   H821    1.109   .     S
C801   H820    1.109   .     S
C802   H828    1.107   .     S
C802   H827    1.109   .     S
C802   C804    1.529   .     S
C803   O856    1.290   .     A
C803   O853    1.289   .     A
C804   H825    1.109   .     S
C804   H824    1.109   .     S
C804   H826    1.110   .     S
C805   H833    1.109   .     S
C805   H834    1.107   .     S
C805   C806    1.524   .     S
C806   H829    1.109   .     S
C806   H832    1.109   .     S
C806   H831    1.104   .     S
C807   H838    1.109   .     S
C807   H839    1.107   .     S
C807   C808    1.524   .     S
C808   H836    1.109   .     S
C808   H837    1.109   .     S
C808   H835    1.104   .     S
C809   O854    1.290   .     A
C809   O855    1.289   .     A
C810   F815    1.351   .     S
C810   N848    1.368   .     A
C810   C1281   1.417   1_545 S
C811   N847    1.366   .     A
C811   F816    1.355   .     S
C811   C1046   1.417   .     S
C812   N848    1.368   .     A
C812   F817    1.351   .     S
C812   C1279   1.417   1_545 S
C813   N847    1.366   .     A
C813   F818    1.355   .     S
C813   C1044   1.417   .     S
N847   Zn857   2.014   .     S
N848   Zn858   2.014   .     S
O849   Zn857   1.991   .     S
O850   Zn858   1.991   .     S
O851   Zn857   1.991   .     S
O852   Zn858   1.991   .     S
O853   Zn857   2.004   .     S
O854   Zn858   2.004   .     S
O855   Zn857   2.004   .     S
O856   Zn858   2.004   .     S
C859   C877    1.415   .     S
C859   O930    1.283   .     A
C859   O927    1.278   .     A
C860   C876    1.410   .     A
C860   C880    1.531   .     S
C860   C706    1.399   1_655 S
C861   C876    1.411   .     A
C861   C883    1.530   .     S
C861   C736    1.399   1_655 S
C862   C877    1.411   .     A
C862   C885    1.530   .     S
C863   C874    1.401   .     A
C863   C867    1.379   .     A
C863   H897    1.083   .     S
C864   H908    1.083   .     S
C864   C875    1.401   .     A
C864   C868    1.380   .     A
C865   C869    1.379   .     A
C865   C875    1.401   .     A
C865   H918    1.083   .     S
C866   C871    1.380   .     A
C866   H919    1.083   .     S
C866   C874    1.401   .     A
C867   H920    1.083   .     S
C867   C872    1.398   .     A
C868   H921    1.083   .     S
C868   C873    1.398   .     A
C869   C873    1.398   .     A
C869   H922    1.083   .     S
C870   O929    1.278   .     A
C870   O928    1.283   .     A
C870   C876    1.415   .     S
C871   H923    1.083   .     S
C871   C872    1.398   .     A
C872   C881    1.438   .     S
C873   C887    1.438   .     S
C875   C172    1.450   1_556 S
C877   C892    1.410   .     A
C878   H901    1.107   .     S
C878   C892    1.531   .     S
C878   H900    1.109   .     S
C878   C879    1.529   .     S
C879   H924    1.110   .     S
C879   H899    1.109   .     S
C879   H898    1.109   .     S
C880   H906    1.107   .     S
C880   H905    1.109   .     S
C880   C882    1.529   .     S
C881   O934    1.290   .     A
C881   O931    1.289   .     A
C882   H903    1.109   .     S
C882   H902    1.109   .     S
C882   H904    1.110   .     S
C883   H911    1.109   .     S
C883   H912    1.107   .     S
C883   C884    1.524   .     S
C884   H907    1.109   .     S
C884   H910    1.109   .     S
C884   H909    1.104   .     S
C885   H916    1.109   .     S
C885   H917    1.107   .     S
C885   C886    1.524   .     S
C886   H914    1.109   .     S
C886   H915    1.109   .     S
C886   H913    1.104   .     S
C887   O932    1.290   .     A
C887   O933    1.289   .     A
C888   F893    1.351   .     S
C888   N926    1.368   .     A
C888   C1359   1.417   1_545 S
C889   N925    1.366   .     A
C889   F894    1.355   .     S
C889   C1124   1.417   .     S
C890   N926    1.368   .     A
C890   F895    1.351   .     S
C890   C1357   1.417   1_545 S
C891   N925    1.366   .     A
C891   F896    1.355   .     S
C891   C1122   1.417   .     S
N925   Zn935   2.014   .     S
N926   Zn936   2.014   .     S
O927   Zn935   1.991   .     S
O928   Zn936   1.991   .     S
O929   Zn935   1.991   .     S
O930   Zn936   1.991   .     S
O931   Zn935   2.004   .     S
O932   Zn936   2.004   .     S
O933   Zn935   2.004   .     S
O934   Zn936   2.004   .     S
C937   C955    1.415   .     S
C937   O1008   1.283   .     A
C937   O1005   1.278   .     A
C938   C954    1.410   .     A
C938   C958    1.531   .     S
C938   C1018   1.399   .     S
C939   C954    1.411   .     A
C939   C961    1.530   .     S
C939   C1048   1.399   .     S
C940   C955    1.411   .     A
C940   C963    1.530   .     S
C940   C1094   1.399   1_455 S
C941   C952    1.401   .     A
C941   C945    1.379   .     A
C941   H975    1.083   .     S
C942   H986    1.083   .     S
C942   C953    1.401   .     A
C942   C946    1.380   .     A
C943   C947    1.379   .     A
C943   C953    1.401   .     A
C943   H996    1.083   .     S
C944   C949    1.380   .     A
C944   H997    1.083   .     S
C944   C952    1.401   .     A
C945   H998    1.083   .     S
C945   C950    1.398   .     A
C946   H999    1.083   .     S
C946   C951    1.398   .     A
C947   C951    1.398   .     A
C947   H1000   1.083   .     S
C948   O1007   1.278   .     A
C948   O1006   1.283   .     A
C948   C954    1.415   .     S
C949   H1001   1.083   .     S
C949   C950    1.398   .     A
C950   C959    1.438   .     S
C951   C965    1.438   .     S
C953   C250    1.450   1_556 S
C955   C970    1.410   .     A
C956   H979    1.107   .     S
C956   C970    1.531   .     S
C956   H978    1.109   .     S
C956   C957    1.529   .     S
C957   H1002   1.110   .     S
C957   H977    1.109   .     S
C957   H976    1.109   .     S
C958   H984    1.107   .     S
C958   H983    1.109   .     S
C958   C960    1.529   .     S
C959   O1012   1.290   .     A
C959   O1009   1.289   .     A
C960   H981    1.109   .     S
C960   H980    1.109   .     S
C960   H982    1.110   .     S
C961   H989    1.109   .     S
C961   H990    1.107   .     S
C961   C962    1.524   .     S
C962   H985    1.109   .     S
C962   H988    1.109   .     S
C962   H987    1.104   .     S
C963   H994    1.109   .     S
C963   H995    1.107   .     S
C963   C964    1.524   .     S
C964   H992    1.109   .     S
C964   H993    1.109   .     S
C964   H991    1.104   .     S
C965   O1010   1.290   .     A
C965   O1011   1.289   .     A
C966   F971    1.351   .     S
C966   N1004   1.368   .     A
C967   N1003   1.366   .     A
C967   F972    1.355   .     S
C967   C1202   1.417   .     S
C968   N1004   1.368   .     A
C968   F973    1.351   .     S
C969   N1003   1.366   .     A
C969   F974    1.355   .     S
C969   C1200   1.417   .     S
C970   C1095   1.399   1_455 S
N1003  Zn1013  2.014   .     S
N1004  Zn1014  2.014   .     S
O1005  Zn1013  1.991   .     S
O1006  Zn1014  1.991   .     S
O1007  Zn1013  1.991   .     S
O1008  Zn1014  1.991   .     S
O1009  Zn1013  2.004   .     S
O1010  Zn1014  2.004   .     S
O1011  Zn1013  2.004   .     S
O1012  Zn1014  2.004   .     S
C1015  C1033   1.415   .     S
C1015  O1086   1.283   .     A
C1015  O1083   1.278   .     A
C1016  C1032   1.410   .     A
C1016  C1036   1.531   .     S
C1016  C1096   1.399   .     S
C1017  C1032   1.411   .     A
C1017  C1039   1.530   .     S
C1017  C1126   1.399   .     S
C1018  C1033   1.411   .     A
C1018  C1041   1.530   .     S
C1019  C1030   1.401   .     A
C1019  C1023   1.379   .     A
C1019  H1053   1.083   .     S
C1020  H1064   1.083   .     S
C1020  C1031   1.401   .     A
C1020  C1024   1.380   .     A
C1021  C1025   1.379   .     A
C1021  C1031   1.401   .     A
C1021  H1074   1.083   .     S
C1022  C1027   1.380   .     A
C1022  H1075   1.083   .     S
C1022  C1030   1.401   .     A
C1023  H1076   1.083   .     S
C1023  C1028   1.398   .     A
C1024  H1077   1.083   .     S
C1024  C1029   1.398   .     A
C1025  C1029   1.398   .     A
C1025  H1078   1.083   .     S
C1026  O1085   1.278   .     A
C1026  O1084   1.283   .     A
C1026  C1032   1.415   .     S
C1027  H1079   1.083   .     S
C1027  C1028   1.398   .     A
C1028  C1037   1.438   .     S
C1029  C1043   1.438   .     S
C1031  C328    1.450   1_556 S
C1033  C1048   1.410   .     A
C1034  H1057   1.107   .     S
C1034  C1048   1.531   .     S
C1034  H1056   1.109   .     S
C1034  C1035   1.529   .     S
C1035  H1080   1.110   .     S
C1035  H1055   1.109   .     S
C1035  H1054   1.109   .     S
C1036  H1062   1.107   .     S
C1036  H1061   1.109   .     S
C1036  C1038   1.529   .     S
C1037  O1090   1.290   .     A
C1037  O1087   1.289   .     A
C1038  H1059   1.109   .     S
C1038  H1058   1.109   .     S
C1038  H1060   1.110   .     S
C1039  H1067   1.109   .     S
C1039  H1068   1.107   .     S
C1039  C1040   1.524   .     S
C1040  H1063   1.109   .     S
C1040  H1066   1.109   .     S
C1040  H1065   1.104   .     S
C1041  H1072   1.109   .     S
C1041  H1073   1.107   .     S
C1041  C1042   1.524   .     S
C1042  H1070   1.109   .     S
C1042  H1071   1.109   .     S
C1042  H1069   1.104   .     S
C1043  O1088   1.290   .     A
C1043  O1089   1.289   .     A
C1044  F1049   1.351   .     S
C1044  N1082   1.368   .     A
C1045  N1081   1.366   .     A
C1045  F1050   1.355   .     S
C1045  C1280   1.417   .     S
C1046  N1082   1.368   .     A
C1046  F1051   1.351   .     S
C1047  N1081   1.366   .     A
C1047  F1052   1.355   .     S
C1047  C1278   1.417   .     S
N1081  Zn1091  2.014   .     S
N1082  Zn1092  2.014   .     S
O1083  Zn1091  1.991   .     S
O1084  Zn1092  1.991   .     S
O1085  Zn1091  1.991   .     S
O1086  Zn1092  1.991   .     S
O1087  Zn1091  2.004   .     S
O1088  Zn1092  2.004   .     S
O1089  Zn1091  2.004   .     S
O1090  Zn1092  2.004   .     S
C1093  C1111   1.415   .     S
C1093  O1164   1.283   .     A
C1093  O1161   1.278   .     A
C1094  C1110   1.410   .     A
C1094  C1114   1.531   .     S
C1094  C940    1.399   1_655 S
C1095  C1110   1.411   .     A
C1095  C1117   1.530   .     S
C1095  C970    1.399   1_655 S
C1096  C1111   1.411   .     A
C1096  C1119   1.530   .     S
C1097  C1108   1.401   .     A
C1097  C1101   1.379   .     A
C1097  H1131   1.083   .     S
C1098  H1142   1.083   .     S
C1098  C1109   1.401   .     A
C1098  C1102   1.380   .     A
C1099  C1103   1.379   .     A
C1099  C1109   1.401   .     A
C1099  H1152   1.083   .     S
C1100  C1105   1.380   .     A
C1100  H1153   1.083   .     S
C1100  C1108   1.401   .     A
C1101  H1154   1.083   .     S
C1101  C1106   1.398   .     A
C1102  H1155   1.083   .     S
C1102  C1107   1.398   .     A
C1103  C1107   1.398   .     A
C1103  H1156   1.083   .     S
C1104  O1163   1.278   .     A
C1104  O1162   1.283   .     A
C1104  C1110   1.415   .     S
C1105  H1157   1.083   .     S
C1105  C1106   1.398   .     A
C1106  C1115   1.438   .     S
C1107  C1121   1.438   .     S
C1109  C406    1.450   1_556 S
C1111  C1126   1.410   .     A
C1112  H1135   1.107   .     S
C1112  C1126   1.531   .     S
C1112  H1134   1.109   .     S
C1112  C1113   1.529   .     S
C1113  H1158   1.110   .     S
C1113  H1133   1.109   .     S
C1113  H1132   1.109   .     S
C1114  H1140   1.107   .     S
C1114  H1139   1.109   .     S
C1114  C1116   1.529   .     S
C1115  O1168   1.290   .     A
C1115  O1165   1.289   .     A
C1116  H1137   1.109   .     S
C1116  H1136   1.109   .     S
C1116  H1138   1.110   .     S
C1117  H1145   1.109   .     S
C1117  H1146   1.107   .     S
C1117  C1118   1.524   .     S
C1118  H1141   1.109   .     S
C1118  H1144   1.109   .     S
C1118  H1143   1.104   .     S
C1119  H1150   1.109   .     S
C1119  H1151   1.107   .     S
C1119  C1120   1.524   .     S
C1120  H1148   1.109   .     S
C1120  H1149   1.109   .     S
C1120  H1147   1.104   .     S
C1121  O1166   1.290   .     A
C1121  O1167   1.289   .     A
C1122  F1127   1.351   .     S
C1122  N1160   1.368   .     A
C1123  N1159   1.366   .     A
C1123  F1128   1.355   .     S
C1123  C1358   1.417   .     S
C1124  N1160   1.368   .     A
C1124  F1129   1.351   .     S
C1125  N1159   1.366   .     A
C1125  F1130   1.355   .     S
C1125  C1356   1.417   .     S
N1159  Zn1169  2.014   .     S
N1160  Zn1170  2.014   .     S
O1161  Zn1169  1.991   .     S
O1162  Zn1170  1.991   .     S
O1163  Zn1169  1.991   .     S
O1164  Zn1170  1.991   .     S
O1165  Zn1169  2.004   .     S
O1166  Zn1170  2.004   .     S
O1167  Zn1169  2.004   .     S
O1168  Zn1170  2.004   .     S
C1171  C1189   1.415   .     S
C1171  O1242   1.283   .     A
C1171  O1239   1.278   .     A
C1172  C1188   1.410   .     A
C1172  C1192   1.531   .     S
C1172  C1252   1.399   .     S
C1173  C1188   1.411   .     A
C1173  C1195   1.530   .     S
C1173  C1282   1.399   .     S
C1174  C1189   1.411   .     A
C1174  C1197   1.530   .     S
C1174  C1328   1.399   1_455 S
C1175  C1186   1.401   .     A
C1175  C1179   1.379   .     A
C1175  H1209   1.083   .     S
C1176  H1220   1.083   .     S
C1176  C1187   1.401   .     A
C1176  C1180   1.380   .     A
C1177  C1181   1.379   .     A
C1177  C1187   1.401   .     A
C1177  H1230   1.083   .     S
C1178  C1183   1.380   .     A
C1178  H1231   1.083   .     S
C1178  C1186   1.401   .     A
C1179  H1232   1.083   .     S
C1179  C1184   1.398   .     A
C1180  H1233   1.083   .     S
C1180  C1185   1.398   .     A
C1181  C1185   1.398   .     A
C1181  H1234   1.083   .     S
C1182  O1241   1.278   .     A
C1182  O1240   1.283   .     A
C1182  C1188   1.415   .     S
C1183  H1235   1.083   .     S
C1183  C1184   1.398   .     A
C1184  C1193   1.438   .     S
C1185  C1199   1.438   .     S
C1187  C484    1.450   1_556 S
C1189  C1204   1.410   .     A
C1190  H1213   1.107   .     S
C1190  C1204   1.531   .     S
C1190  H1212   1.109   .     S
C1190  C1191   1.529   .     S
C1191  H1236   1.110   .     S
C1191  H1211   1.109   .     S
C1191  H1210   1.109   .     S
C1192  H1218   1.107   .     S
C1192  H1217   1.109   .     S
C1192  C1194   1.529   .     S
C1193  O1246   1.290   .     A
C1193  O1243   1.289   .     A
C1194  H1215   1.109   .     S
C1194  H1214   1.109   .     S
C1194  H1216   1.110   .     S
C1195  H1223   1.109   .     S
C1195  H1224   1.107   .     S
C1195  C1196   1.524   .     S
C1196  H1219   1.109   .     S
C1196  H1222   1.109   .     S
C1196  H1221   1.104   .     S
C1197  H1228   1.109   .     S
C1197  H1229   1.107   .     S
C1197  C1198   1.524   .     S
C1198  H1226   1.109   .     S
C1198  H1227   1.109   .     S
C1198  H1225   1.104   .     S
C1199  O1244   1.290   .     A
C1199  O1245   1.289   .     A
C1200  F1205   1.351   .     S
C1200  N1238   1.368   .     A
C1201  N1237   1.366   .     A
C1201  F1206   1.355   .     S
C1201  C734    1.417   1_565 S
C1202  N1238   1.368   .     A
C1202  F1207   1.351   .     S
C1203  N1237   1.366   .     A
C1203  F1208   1.355   .     S
C1203  C732    1.417   1_565 S
C1204  C1329   1.399   1_455 S
N1237  Zn1247  2.014   .     S
N1238  Zn1248  2.014   .     S
O1239  Zn1247  1.991   .     S
O1240  Zn1248  1.991   .     S
O1241  Zn1247  1.991   .     S
O1242  Zn1248  1.991   .     S
O1243  Zn1247  2.004   .     S
O1244  Zn1248  2.004   .     S
O1245  Zn1247  2.004   .     S
O1246  Zn1248  2.004   .     S
C1249  C1267   1.415   .     S
C1249  O1320   1.283   .     A
C1249  O1317   1.278   .     A
C1250  C1266   1.410   .     A
C1250  C1270   1.531   .     S
C1250  C1330   1.399   .     S
C1251  C1266   1.411   .     A
C1251  C1273   1.530   .     S
C1251  C1360   1.399   .     S
C1252  C1267   1.411   .     A
C1252  C1275   1.530   .     S
C1253  C1264   1.401   .     A
C1253  C1257   1.379   .     A
C1253  H1287   1.083   .     S
C1254  H1298   1.083   .     S
C1254  C1265   1.401   .     A
C1254  C1258   1.380   .     A
C1255  C1259   1.379   .     A
C1255  C1265   1.401   .     A
C1255  H1308   1.083   .     S
C1256  C1261   1.380   .     A
C1256  H1309   1.083   .     S
C1256  C1264   1.401   .     A
C1257  H1310   1.083   .     S
C1257  C1262   1.398   .     A
C1258  H1311   1.083   .     S
C1258  C1263   1.398   .     A
C1259  C1263   1.398   .     A
C1259  H1312   1.083   .     S
C1260  O1319   1.278   .     A
C1260  O1318   1.283   .     A
C1260  C1266   1.415   .     S
C1261  H1313   1.083   .     S
C1261  C1262   1.398   .     A
C1262  C1271   1.438   .     S
C1263  C1277   1.438   .     S
C1265  C562    1.450   1_556 S
C1267  C1282   1.410   .     A
C1268  H1291   1.107   .     S
C1268  C1282   1.531   .     S
C1268  H1290   1.109   .     S
C1268  C1269   1.529   .     S
C1269  H1314   1.110   .     S
C1269  H1289   1.109   .     S
C1269  H1288   1.109   .     S
C1270  H1296   1.107   .     S
C1270  H1295   1.109   .     S
C1270  C1272   1.529   .     S
C1271  O1324   1.290   .     A
C1271  O1321   1.289   .     A
C1272  H1293   1.109   .     S
C1272  H1292   1.109   .     S
C1272  H1294   1.110   .     S
C1273  H1301   1.109   .     S
C1273  H1302   1.107   .     S
C1273  C1274   1.524   .     S
C1274  H1297   1.109   .     S
C1274  H1300   1.109   .     S
C1274  H1299   1.104   .     S
C1275  H1306   1.109   .     S
C1275  H1307   1.107   .     S
C1275  C1276   1.524   .     S
C1276  H1304   1.109   .     S
C1276  H1305   1.109   .     S
C1276  H1303   1.104   .     S
C1277  O1322   1.290   .     A
C1277  O1323   1.289   .     A
C1278  F1283   1.351   .     S
C1278  N1316   1.368   .     A
C1279  N1315   1.366   .     A
C1279  F1284   1.355   .     S
C1279  C812    1.417   1_565 S
C1280  N1316   1.368   .     A
C1280  F1285   1.351   .     S
C1281  N1315   1.366   .     A
C1281  F1286   1.355   .     S
C1281  C810    1.417   1_565 S
N1315  Zn1325  2.014   .     S
N1316  Zn1326  2.014   .     S
O1317  Zn1325  1.991   .     S
O1318  Zn1326  1.991   .     S
O1319  Zn1325  1.991   .     S
O1320  Zn1326  1.991   .     S
O1321  Zn1325  2.004   .     S
O1322  Zn1326  2.004   .     S
O1323  Zn1325  2.004   .     S
O1324  Zn1326  2.004   .     S
C1327  C1345   1.415   .     S
C1327  O1398   1.283   .     A
C1327  O1395   1.278   .     A
C1328  C1344   1.410   .     A
C1328  C1348   1.531   .     S
C1328  C1174   1.399   1_655 S
C1329  C1344   1.411   .     A
C1329  C1351   1.530   .     S
C1329  C1204   1.399   1_655 S
C1330  C1345   1.411   .     A
C1330  C1353   1.530   .     S
C1331  C1342   1.401   .     A
C1331  C1335   1.379   .     A
C1331  H1365   1.083   .     S
C1332  H1376   1.083   .     S
C1332  C1343   1.401   .     A
C1332  C1336   1.380   .     A
C1333  C1337   1.379   .     A
C1333  C1343   1.401   .     A
C1333  H1386   1.083   .     S
C1334  C1339   1.380   .     A
C1334  H1387   1.083   .     S
C1334  C1342   1.401   .     A
C1335  H1388   1.083   .     S
C1335  C1340   1.398   .     A
C1336  H1389   1.083   .     S
C1336  C1341   1.398   .     A
C1337  C1341   1.398   .     A
C1337  H1390   1.083   .     S
C1338  O1397   1.278   .     A
C1338  O1396   1.283   .     A
C1338  C1344   1.415   .     S
C1339  H1391   1.083   .     S
C1339  C1340   1.398   .     A
C1340  C1349   1.438   .     S
C1341  C1355   1.438   .     S
C1343  C640    1.450   1_556 S
C1345  C1360   1.410   .     A
C1346  H1369   1.107   .     S
C1346  C1360   1.531   .     S
C1346  H1368   1.109   .     S
C1346  C1347   1.529   .     S
C1347  H1392   1.110   .     S
C1347  H1367   1.109   .     S
C1347  H1366   1.109   .     S
C1348  H1374   1.107   .     S
C1348  H1373   1.109   .     S
C1348  C1350   1.529   .     S
C1349  O1402   1.290   .     A
C1349  O1399   1.289   .     A
C1350  H1371   1.109   .     S
C1350  H1370   1.109   .     S
C1350  H1372   1.110   .     S
C1351  H1379   1.109   .     S
C1351  H1380   1.107   .     S
C1351  C1352   1.524   .     S
C1352  H1375   1.109   .     S
C1352  H1378   1.109   .     S
C1352  H1377   1.104   .     S
C1353  H1384   1.109   .     S
C1353  H1385   1.107   .     S
C1353  C1354   1.524   .     S
C1354  H1382   1.109   .     S
C1354  H1383   1.109   .     S
C1354  H1381   1.104   .     S
C1355  O1400   1.290   .     A
C1355  O1401   1.289   .     A
C1356  F1361   1.351   .     S
C1356  N1394   1.368   .     A
C1357  N1393   1.366   .     A
C1357  F1362   1.355   .     S
C1357  C890    1.417   1_565 S
C1358  N1394   1.368   .     A
C1358  F1363   1.351   .     S
C1359  N1393   1.366   .     A
C1359  F1364   1.355   .     S
C1359  C888    1.417   1_565 S
N1393  Zn1403  2.014   .     S
N1394  Zn1404  2.014   .     S
O1395  Zn1403  1.991   .     S
O1396  Zn1404  1.991   .     S
O1397  Zn1403  1.991   .     S
O1398  Zn1404  1.991   .     S
O1399  Zn1403  2.004   .     S
O1400  Zn1404  2.004   .     S
O1401  Zn1403  2.004   .     S
O1402  Zn1404  2.004   .     S
