data_str_m3_o1_o10_pcu_sym.188
_audit_creation_date              2020-01-03
_audit_creation_method            'Materials Studio'
_symmetry_space_group_name_H-M    'P1'
_symmetry_Int_Tables_number       1
_symmetry_cell_setting            triclinic
loop_
_symmetry_equiv_pos_as_xyz
  x,y,z
_cell_length_a                    25.9242
_cell_length_b                    31.9211
_cell_length_c                    29.5264
_cell_angle_alpha                 90.6869
_cell_angle_beta                  98.3812
_cell_angle_gamma                 90.2624
loop_
_atom_site_label
_atom_site_type_symbol
_atom_site_fract_x
_atom_site_fract_y
_atom_site_fract_z
_atom_site_U_iso_or_equiv
_atom_site_adp_type
_atom_site_occupancy
C1     C     0.16621   0.08669   0.16642   0.00000  Uiso   1.00
C2     C     0.16755   0.24663   0.16697   0.00000  Uiso   1.00
C3     C     0.06711   0.16603   0.15478   0.00000  Uiso   1.00
C4     C     0.26610   0.16664   0.17841   0.00000  Uiso   1.00
C5     C     0.01239   0.16059   0.14880   0.00000  Uiso   1.00
C6     C     0.32048   0.17248   0.18375   0.00000  Uiso   1.00
C7     C     0.19728   0.02157   0.13877   0.00000  Uiso   1.00
C8     C     0.13725   0.31177   0.19484   0.00000  Uiso   1.00
C9     C     0.19832   0.31194   0.13914   0.00000  Uiso   1.00
C10    C     0.13616   0.02134   0.19448   0.00000  Uiso   1.00
C11    C     0.16817   0.29074   0.16725   0.00000  Uiso   1.00
C12    C     0.16615   0.04257   0.16628   0.00000  Uiso   1.00
C13    C     0.19269   0.19706   0.02791   0.00000  Uiso   1.00
C14    C     0.13967   0.13693   0.30538   0.00000  Uiso   1.00
C15    C     0.19310   0.19750   0.31261   0.00000  Uiso   1.00
C16    C     0.14044   0.13607   0.02037   0.00000  Uiso   1.00
H17    H     0.22100   0.03844   0.11759   0.00000  Uiso   1.00
H18    H     0.11337   0.29496   0.21582   0.00000  Uiso   1.00
H19    H     0.21287   0.22036   0.05065   0.00000  Uiso   1.00
H20    H     0.11751   0.11385   0.28350   0.00000  Uiso   1.00
N21    N     0.16665   0.16666   0.28573   0.00000  Uiso   1.00
N22    N     0.16668   0.16668   0.04760   0.00000  Uiso   1.00
O23    O     0.16666   0.10558   0.20487   0.00000  Uiso   1.00
O24    O     0.16667   0.22775   0.12846   0.00000  Uiso   1.00
O25    O     0.16666   0.10559   0.12843   0.00000  Uiso   1.00
O26    O     0.16667   0.22774   0.20490   0.00000  Uiso   1.00
O27    O     0.09058   0.16666   0.19595   0.00000  Uiso   1.00
O28    O     0.24275   0.16667   0.13739   0.00000  Uiso   1.00
O29    O     0.09058   0.16667   0.11950   0.00000  Uiso   1.00
O30    O     0.24275   0.16666   0.21383   0.00000  Uiso   1.00
Zn31   Zn    0.16667   0.16666   0.21771   0.00000  Uiso   1.00
Zn32   Zn    0.16667   0.16667   0.11563   0.00000  Uiso   1.00
O33    O     0.32290   0.13290   0.11468   0.00000  Uiso   1.00
C34    C     0.31745   0.15183   0.07119   0.00000  Uiso   1.00
H35    H     0.02224   0.15720   0.05943   0.00000  Uiso   1.00
H36    H     0.29660   0.18219   0.07136   0.00000  Uiso   1.00
C37    C     0.28667   0.12228   0.03636   0.00000  Uiso   1.00
H38    H     0.24889   0.11395   0.04743   0.00000  Uiso   1.00
H39    H     0.27944   0.13738   0.00236   0.00000  Uiso   1.00
H40    H     0.30901   0.09308   0.03325   0.00000  Uiso   1.00
O41    O     0.01169   0.19098   0.22414   0.00000  Uiso   1.00
C42    C     0.00610   0.23486   0.22145   0.00000  Uiso   1.00
H43    H     0.29765   0.24390   0.21867   0.00000  Uiso   1.00
H44    H     0.02287   0.24728   0.19158   0.00000  Uiso   1.00
C45    C     0.03540   0.25480   0.26485   0.00000  Uiso   1.00
H46    H     0.07733   0.24640   0.26851   0.00000  Uiso   1.00
H47    H     0.03171   0.28941   0.26328   0.00000  Uiso   1.00
H48    H     0.01906   0.24343   0.29524   0.00000  Uiso   1.00
F49    F     0.22922   0.29120   0.11306   0.00000  Uiso   1.00
F50    F     0.10516   0.04199   0.22054   0.00000  Uiso   1.00
O51    O     0.21993   0.22700   0.29015   0.00000  Uiso   1.00
C52    C     0.23880   0.26284   0.31621   0.00000  Uiso   1.00
H53    H     0.26445   0.28014   0.29579   0.00000  Uiso   1.00
H54    H     0.26459   0.25484   0.01495   0.00000  Uiso   1.00
C55    C     0.19494   0.29283   0.32412   0.00000  Uiso   1.00
H56    H     0.16752   0.27830   0.01159   0.00000  Uiso   1.00
H57    H     0.21191   0.32140   0.00911   0.00000  Uiso   1.00
H58    H     0.17284   0.30219   0.29082   0.00000  Uiso   1.00
O59    O     0.11171   0.10658   0.04035   0.00000  Uiso   1.00
C60    C     0.12342   0.06511   0.02745   0.00000  Uiso   1.00
H61    H     0.13529   0.04711   0.05907   0.00000  Uiso   1.00
H62    H     0.15634   0.06244   0.00709   0.00000  Uiso   1.00
C63    C     0.07490   0.04398   0.00156   0.00000  Uiso   1.00
H64    H     0.05953   0.06211   0.30407   0.00000  Uiso   1.00
H65    H     0.08466   0.01189   0.32406   0.00000  Uiso   1.00
H66    H     0.04428   0.04167   0.02408   0.00000  Uiso   1.00
C67    C     0.49954   0.08669   0.16642   0.00000  Uiso   1.00
C68    C     0.50088   0.24663   0.16697   0.00000  Uiso   1.00
C69    C     0.40044   0.16603   0.15478   0.00000  Uiso   1.00
C70    C     0.59943   0.16664   0.17841   0.00000  Uiso   1.00
C71    C     0.34573   0.16059   0.14880   0.00000  Uiso   1.00
C72    C     0.65382   0.17248   0.18375   0.00000  Uiso   1.00
C73    C     0.53061   0.02157   0.13877   0.00000  Uiso   1.00
C74    C     0.47058   0.31177   0.19484   0.00000  Uiso   1.00
C75    C     0.53165   0.31194   0.13914   0.00000  Uiso   1.00
C76    C     0.46950   0.02134   0.19448   0.00000  Uiso   1.00
C77    C     0.50151   0.29074   0.16725   0.00000  Uiso   1.00
C78    C     0.49949   0.04257   0.16628   0.00000  Uiso   1.00
C79    C     0.52603   0.19706   0.02791   0.00000  Uiso   1.00
C80    C     0.47300   0.13693   0.30538   0.00000  Uiso   1.00
C81    C     0.52644   0.19750   0.31261   0.00000  Uiso   1.00
C82    C     0.47377   0.13607   0.02037   0.00000  Uiso   1.00
H83    H     0.55434   0.03844   0.11759   0.00000  Uiso   1.00
H84    H     0.44670   0.29496   0.21582   0.00000  Uiso   1.00
H85    H     0.54621   0.22036   0.05065   0.00000  Uiso   1.00
H86    H     0.45084   0.11385   0.28350   0.00000  Uiso   1.00
N87    N     0.49999   0.16666   0.28573   0.00000  Uiso   1.00
N88    N     0.50001   0.16668   0.04760   0.00000  Uiso   1.00
O89    O     0.50000   0.10558   0.20487   0.00000  Uiso   1.00
O90    O     0.50000   0.22775   0.12846   0.00000  Uiso   1.00
O91    O     0.50000   0.10559   0.12843   0.00000  Uiso   1.00
O92    O     0.50000   0.22774   0.20490   0.00000  Uiso   1.00
O93    O     0.42392   0.16666   0.19595   0.00000  Uiso   1.00
O94    O     0.57608   0.16667   0.13739   0.00000  Uiso   1.00
O95    O     0.42392   0.16667   0.11950   0.00000  Uiso   1.00
O96    O     0.57608   0.16666   0.21383   0.00000  Uiso   1.00
Zn97   Zn    0.50000   0.16666   0.21771   0.00000  Uiso   1.00
Zn98   Zn    0.50000   0.16667   0.11563   0.00000  Uiso   1.00
O99    O     0.65623   0.13290   0.11468   0.00000  Uiso   1.00
C100   C     0.65079   0.15183   0.07119   0.00000  Uiso   1.00
H101   H     0.35558   0.15720   0.05943   0.00000  Uiso   1.00
H102   H     0.62993   0.18219   0.07136   0.00000  Uiso   1.00
C103   C     0.62000   0.12228   0.03636   0.00000  Uiso   1.00
H104   H     0.58222   0.11395   0.04743   0.00000  Uiso   1.00
H105   H     0.61278   0.13738   0.00236   0.00000  Uiso   1.00
H106   H     0.64234   0.09308   0.03325   0.00000  Uiso   1.00
O107   O     0.34502   0.19098   0.22414   0.00000  Uiso   1.00
C108   C     0.33943   0.23486   0.22145   0.00000  Uiso   1.00
H109   H     0.63098   0.24390   0.21867   0.00000  Uiso   1.00
H110   H     0.35621   0.24728   0.19158   0.00000  Uiso   1.00
C111   C     0.36873   0.25480   0.26485   0.00000  Uiso   1.00
H112   H     0.41066   0.24640   0.26851   0.00000  Uiso   1.00
H113   H     0.36504   0.28941   0.26328   0.00000  Uiso   1.00
H114   H     0.35240   0.24343   0.29524   0.00000  Uiso   1.00
F115   F     0.56256   0.29120   0.11306   0.00000  Uiso   1.00
F116   F     0.43849   0.04199   0.22054   0.00000  Uiso   1.00
O117   O     0.55326   0.22700   0.29015   0.00000  Uiso   1.00
C118   C     0.57214   0.26284   0.31621   0.00000  Uiso   1.00
H119   H     0.59779   0.28014   0.29579   0.00000  Uiso   1.00
H120   H     0.59792   0.25484   0.01495   0.00000  Uiso   1.00
C121   C     0.52828   0.29283   0.32412   0.00000  Uiso   1.00
H122   H     0.50086   0.27830   0.01159   0.00000  Uiso   1.00
H123   H     0.54524   0.32140   0.00911   0.00000  Uiso   1.00
H124   H     0.50617   0.30219   0.29082   0.00000  Uiso   1.00
O125   O     0.44504   0.10658   0.04035   0.00000  Uiso   1.00
C126   C     0.45675   0.06511   0.02745   0.00000  Uiso   1.00
H127   H     0.46862   0.04711   0.05907   0.00000  Uiso   1.00
H128   H     0.48967   0.06244   0.00709   0.00000  Uiso   1.00
C129   C     0.40824   0.04398   0.00156   0.00000  Uiso   1.00
H130   H     0.39286   0.06211   0.30407   0.00000  Uiso   1.00
H131   H     0.41799   0.01189   0.32406   0.00000  Uiso   1.00
H132   H     0.37762   0.04167   0.02408   0.00000  Uiso   1.00
C133   C     0.83287   0.08669   0.16642   0.00000  Uiso   1.00
C134   C     0.83421   0.24663   0.16697   0.00000  Uiso   1.00
C135   C     0.73378   0.16603   0.15478   0.00000  Uiso   1.00
C136   C     0.93277   0.16664   0.17841   0.00000  Uiso   1.00
C137   C     0.67906   0.16059   0.14880   0.00000  Uiso   1.00
C138   C     0.98715   0.17248   0.18375   0.00000  Uiso   1.00
C139   C     0.86395   0.02157   0.13877   0.00000  Uiso   1.00
C140   C     0.80391   0.31177   0.19484   0.00000  Uiso   1.00
C141   C     0.86498   0.31194   0.13914   0.00000  Uiso   1.00
C142   C     0.80283   0.02134   0.19448   0.00000  Uiso   1.00
C143   C     0.83484   0.29074   0.16725   0.00000  Uiso   1.00
C144   C     0.83282   0.04257   0.16628   0.00000  Uiso   1.00
C145   C     0.85936   0.19706   0.02791   0.00000  Uiso   1.00
C146   C     0.80634   0.13693   0.30538   0.00000  Uiso   1.00
C147   C     0.85977   0.19750   0.31261   0.00000  Uiso   1.00
C148   C     0.80711   0.13607   0.02037   0.00000  Uiso   1.00
H149   H     0.88767   0.03844   0.11759   0.00000  Uiso   1.00
H150   H     0.78004   0.29496   0.21582   0.00000  Uiso   1.00
H151   H     0.87954   0.22036   0.05065   0.00000  Uiso   1.00
H152   H     0.78417   0.11385   0.28350   0.00000  Uiso   1.00
N153   N     0.83332   0.16666   0.28573   0.00000  Uiso   1.00
N154   N     0.83335   0.16668   0.04760   0.00000  Uiso   1.00
O155   O     0.83333   0.10558   0.20487   0.00000  Uiso   1.00
O156   O     0.83334   0.22775   0.12846   0.00000  Uiso   1.00
O157   O     0.83333   0.10559   0.12843   0.00000  Uiso   1.00
O158   O     0.83334   0.22774   0.20490   0.00000  Uiso   1.00
O159   O     0.75725   0.16666   0.19595   0.00000  Uiso   1.00
O160   O     0.90942   0.16667   0.13739   0.00000  Uiso   1.00
O161   O     0.75725   0.16667   0.11950   0.00000  Uiso   1.00
O162   O     0.90942   0.16666   0.21383   0.00000  Uiso   1.00
Zn163  Zn    0.83333   0.16666   0.21771   0.00000  Uiso   1.00
Zn164  Zn    0.83333   0.16667   0.11563   0.00000  Uiso   1.00
O165   O     0.98956   0.13290   0.11468   0.00000  Uiso   1.00
C166   C     0.98412   0.15183   0.07119   0.00000  Uiso   1.00
H167   H     0.68891   0.15720   0.05943   0.00000  Uiso   1.00
H168   H     0.96326   0.18219   0.07136   0.00000  Uiso   1.00
C169   C     0.95334   0.12228   0.03636   0.00000  Uiso   1.00
H170   H     0.91555   0.11395   0.04743   0.00000  Uiso   1.00
H171   H     0.94611   0.13738   0.00236   0.00000  Uiso   1.00
H172   H     0.97567   0.09308   0.03325   0.00000  Uiso   1.00
O173   O     0.67835   0.19098   0.22414   0.00000  Uiso   1.00
C174   C     0.67277   0.23486   0.22145   0.00000  Uiso   1.00
H175   H     0.96431   0.24390   0.21867   0.00000  Uiso   1.00
H176   H     0.68954   0.24728   0.19158   0.00000  Uiso   1.00
C177   C     0.70206   0.25480   0.26485   0.00000  Uiso   1.00
H178   H     0.74400   0.24640   0.26851   0.00000  Uiso   1.00
H179   H     0.69838   0.28941   0.26328   0.00000  Uiso   1.00
H180   H     0.68573   0.24343   0.29524   0.00000  Uiso   1.00
F181   F     0.89589   0.29120   0.11306   0.00000  Uiso   1.00
F182   F     0.77182   0.04199   0.22054   0.00000  Uiso   1.00
O183   O     0.88659   0.22700   0.29015   0.00000  Uiso   1.00
C184   C     0.90547   0.26284   0.31621   0.00000  Uiso   1.00
H185   H     0.93112   0.28014   0.29579   0.00000  Uiso   1.00
H186   H     0.93126   0.25484   0.01495   0.00000  Uiso   1.00
C187   C     0.86161   0.29283   0.32412   0.00000  Uiso   1.00
H188   H     0.83419   0.27830   0.01159   0.00000  Uiso   1.00
H189   H     0.87858   0.32140   0.00911   0.00000  Uiso   1.00
H190   H     0.83950   0.30219   0.29082   0.00000  Uiso   1.00
O191   O     0.77838   0.10658   0.04035   0.00000  Uiso   1.00
C192   C     0.79008   0.06511   0.02745   0.00000  Uiso   1.00
H193   H     0.80196   0.04711   0.05907   0.00000  Uiso   1.00
H194   H     0.82300   0.06244   0.00709   0.00000  Uiso   1.00
C195   C     0.74157   0.04398   0.00156   0.00000  Uiso   1.00
H196   H     0.72620   0.06211   0.30407   0.00000  Uiso   1.00
H197   H     0.75133   0.01189   0.32406   0.00000  Uiso   1.00
H198   H     0.71095   0.04167   0.02408   0.00000  Uiso   1.00
C199   C     0.16621   0.42002   0.16642   0.00000  Uiso   1.00
C200   C     0.16755   0.57997   0.16697   0.00000  Uiso   1.00
C201   C     0.06711   0.49936   0.15478   0.00000  Uiso   1.00
C202   C     0.26610   0.49997   0.17841   0.00000  Uiso   1.00
C203   C     0.01239   0.49392   0.14880   0.00000  Uiso   1.00
C204   C     0.32048   0.50581   0.18375   0.00000  Uiso   1.00
C205   C     0.19728   0.35491   0.13877   0.00000  Uiso   1.00
C206   C     0.13725   0.64510   0.19484   0.00000  Uiso   1.00
C207   C     0.19832   0.64528   0.13914   0.00000  Uiso   1.00
C208   C     0.13616   0.35467   0.19448   0.00000  Uiso   1.00
C209   C     0.16817   0.62407   0.16725   0.00000  Uiso   1.00
C210   C     0.16615   0.37591   0.16628   0.00000  Uiso   1.00
C211   C     0.19269   0.53040   0.02791   0.00000  Uiso   1.00
C212   C     0.13967   0.47026   0.30538   0.00000  Uiso   1.00
C213   C     0.19310   0.53083   0.31261   0.00000  Uiso   1.00
C214   C     0.14044   0.46941   0.02037   0.00000  Uiso   1.00
H215   H     0.22100   0.37177   0.11759   0.00000  Uiso   1.00
H216   H     0.11337   0.62829   0.21582   0.00000  Uiso   1.00
H217   H     0.21287   0.55369   0.05065   0.00000  Uiso   1.00
H218   H     0.11751   0.44718   0.28350   0.00000  Uiso   1.00
N219   N     0.16665   0.49999   0.28573   0.00000  Uiso   1.00
N220   N     0.16668   0.50001   0.04760   0.00000  Uiso   1.00
O221   O     0.16666   0.43892   0.20487   0.00000  Uiso   1.00
O222   O     0.16667   0.56108   0.12846   0.00000  Uiso   1.00
O223   O     0.16666   0.43893   0.12843   0.00000  Uiso   1.00
O224   O     0.16667   0.56107   0.20490   0.00000  Uiso   1.00
O225   O     0.09058   0.50000   0.19595   0.00000  Uiso   1.00
O226   O     0.24275   0.50000   0.13739   0.00000  Uiso   1.00
O227   O     0.09058   0.50000   0.11950   0.00000  Uiso   1.00
O228   O     0.24275   0.50000   0.21383   0.00000  Uiso   1.00
Zn229  Zn    0.16667   0.49999   0.21771   0.00000  Uiso   1.00
Zn230  Zn    0.16667   0.50001   0.11563   0.00000  Uiso   1.00
O231   O     0.32290   0.46623   0.11468   0.00000  Uiso   1.00
C232   C     0.31745   0.48516   0.07119   0.00000  Uiso   1.00
H233   H     0.02224   0.49053   0.05943   0.00000  Uiso   1.00
H234   H     0.29660   0.51552   0.07136   0.00000  Uiso   1.00
C235   C     0.28667   0.45561   0.03636   0.00000  Uiso   1.00
H236   H     0.24889   0.44728   0.04743   0.00000  Uiso   1.00
H237   H     0.27944   0.47071   0.00236   0.00000  Uiso   1.00
H238   H     0.30901   0.42641   0.03325   0.00000  Uiso   1.00
O239   O     0.01169   0.52431   0.22414   0.00000  Uiso   1.00
C240   C     0.00610   0.56820   0.22145   0.00000  Uiso   1.00
H241   H     0.29765   0.57724   0.21867   0.00000  Uiso   1.00
H242   H     0.02287   0.58062   0.19158   0.00000  Uiso   1.00
C243   C     0.03540   0.58813   0.26485   0.00000  Uiso   1.00
H244   H     0.07733   0.57973   0.26851   0.00000  Uiso   1.00
H245   H     0.03171   0.62275   0.26328   0.00000  Uiso   1.00
H246   H     0.01906   0.57677   0.29524   0.00000  Uiso   1.00
F247   F     0.22922   0.62453   0.11306   0.00000  Uiso   1.00
F248   F     0.10516   0.37533   0.22054   0.00000  Uiso   1.00
O249   O     0.21993   0.56033   0.29015   0.00000  Uiso   1.00
C250   C     0.23880   0.59617   0.31621   0.00000  Uiso   1.00
H251   H     0.26445   0.61347   0.29579   0.00000  Uiso   1.00
H252   H     0.26459   0.58817   0.01495   0.00000  Uiso   1.00
C253   C     0.19494   0.62616   0.32412   0.00000  Uiso   1.00
H254   H     0.16752   0.61164   0.01159   0.00000  Uiso   1.00
H255   H     0.21191   0.65473   0.00911   0.00000  Uiso   1.00
H256   H     0.17284   0.63552   0.29082   0.00000  Uiso   1.00
O257   O     0.11171   0.43991   0.04035   0.00000  Uiso   1.00
C258   C     0.12342   0.39844   0.02745   0.00000  Uiso   1.00
H259   H     0.13529   0.38045   0.05907   0.00000  Uiso   1.00
H260   H     0.15634   0.39577   0.00709   0.00000  Uiso   1.00
C261   C     0.07490   0.37732   0.00156   0.00000  Uiso   1.00
H262   H     0.05953   0.39544   0.30407   0.00000  Uiso   1.00
H263   H     0.08466   0.34523   0.32406   0.00000  Uiso   1.00
H264   H     0.04428   0.37500   0.02408   0.00000  Uiso   1.00
C265   C     0.49954   0.42002   0.16642   0.00000  Uiso   1.00
C266   C     0.50088   0.57997   0.16697   0.00000  Uiso   1.00
C267   C     0.40044   0.49936   0.15478   0.00000  Uiso   1.00
C268   C     0.59943   0.49997   0.17841   0.00000  Uiso   1.00
C269   C     0.34573   0.49392   0.14880   0.00000  Uiso   1.00
C270   C     0.65382   0.50581   0.18375   0.00000  Uiso   1.00
C271   C     0.53061   0.35491   0.13877   0.00000  Uiso   1.00
C272   C     0.47058   0.64510   0.19484   0.00000  Uiso   1.00
C273   C     0.53165   0.64528   0.13914   0.00000  Uiso   1.00
C274   C     0.46950   0.35467   0.19448   0.00000  Uiso   1.00
C275   C     0.50151   0.62407   0.16725   0.00000  Uiso   1.00
C276   C     0.49949   0.37591   0.16628   0.00000  Uiso   1.00
C277   C     0.52603   0.53040   0.02791   0.00000  Uiso   1.00
C278   C     0.47300   0.47026   0.30538   0.00000  Uiso   1.00
C279   C     0.52644   0.53083   0.31261   0.00000  Uiso   1.00
C280   C     0.47377   0.46941   0.02037   0.00000  Uiso   1.00
H281   H     0.55434   0.37177   0.11759   0.00000  Uiso   1.00
H282   H     0.44670   0.62829   0.21582   0.00000  Uiso   1.00
H283   H     0.54621   0.55369   0.05065   0.00000  Uiso   1.00
H284   H     0.45084   0.44718   0.28350   0.00000  Uiso   1.00
N285   N     0.49999   0.49999   0.28573   0.00000  Uiso   1.00
N286   N     0.50001   0.50001   0.04760   0.00000  Uiso   1.00
O287   O     0.50000   0.43892   0.20487   0.00000  Uiso   1.00
O288   O     0.50000   0.56108   0.12846   0.00000  Uiso   1.00
O289   O     0.50000   0.43893   0.12843   0.00000  Uiso   1.00
O290   O     0.50000   0.56107   0.20490   0.00000  Uiso   1.00
O291   O     0.42392   0.50000   0.19595   0.00000  Uiso   1.00
O292   O     0.57608   0.50000   0.13739   0.00000  Uiso   1.00
O293   O     0.42392   0.50000   0.11950   0.00000  Uiso   1.00
O294   O     0.57608   0.50000   0.21383   0.00000  Uiso   1.00
Zn295  Zn    0.50000   0.49999   0.21771   0.00000  Uiso   1.00
Zn296  Zn    0.50000   0.50001   0.11563   0.00000  Uiso   1.00
O297   O     0.65623   0.46623   0.11468   0.00000  Uiso   1.00
C298   C     0.65079   0.48516   0.07119   0.00000  Uiso   1.00
H299   H     0.35558   0.49053   0.05943   0.00000  Uiso   1.00
H300   H     0.62993   0.51552   0.07136   0.00000  Uiso   1.00
C301   C     0.62000   0.45561   0.03636   0.00000  Uiso   1.00
H302   H     0.58222   0.44728   0.04743   0.00000  Uiso   1.00
H303   H     0.61278   0.47071   0.00236   0.00000  Uiso   1.00
H304   H     0.64234   0.42641   0.03325   0.00000  Uiso   1.00
O305   O     0.34502   0.52431   0.22414   0.00000  Uiso   1.00
C306   C     0.33943   0.56820   0.22145   0.00000  Uiso   1.00
H307   H     0.63098   0.57724   0.21867   0.00000  Uiso   1.00
H308   H     0.35621   0.58062   0.19158   0.00000  Uiso   1.00
C309   C     0.36873   0.58813   0.26485   0.00000  Uiso   1.00
H310   H     0.41066   0.57973   0.26851   0.00000  Uiso   1.00
H311   H     0.36504   0.62275   0.26328   0.00000  Uiso   1.00
H312   H     0.35240   0.57677   0.29524   0.00000  Uiso   1.00
F313   F     0.56256   0.62453   0.11306   0.00000  Uiso   1.00
F314   F     0.43849   0.37533   0.22054   0.00000  Uiso   1.00
O315   O     0.55326   0.56033   0.29015   0.00000  Uiso   1.00
C316   C     0.57214   0.59617   0.31621   0.00000  Uiso   1.00
H317   H     0.59779   0.61347   0.29579   0.00000  Uiso   1.00
H318   H     0.59792   0.58817   0.01495   0.00000  Uiso   1.00
C319   C     0.52828   0.62616   0.32412   0.00000  Uiso   1.00
H320   H     0.50086   0.61164   0.01159   0.00000  Uiso   1.00
H321   H     0.54524   0.65473   0.00911   0.00000  Uiso   1.00
H322   H     0.50617   0.63552   0.29082   0.00000  Uiso   1.00
O323   O     0.44504   0.43991   0.04035   0.00000  Uiso   1.00
C324   C     0.45675   0.39844   0.02745   0.00000  Uiso   1.00
H325   H     0.46862   0.38045   0.05907   0.00000  Uiso   1.00
H326   H     0.48967   0.39577   0.00709   0.00000  Uiso   1.00
C327   C     0.40824   0.37732   0.00156   0.00000  Uiso   1.00
H328   H     0.39286   0.39544   0.30407   0.00000  Uiso   1.00
H329   H     0.41799   0.34523   0.32406   0.00000  Uiso   1.00
H330   H     0.37762   0.37500   0.02408   0.00000  Uiso   1.00
C331   C     0.83287   0.42002   0.16642   0.00000  Uiso   1.00
C332   C     0.83421   0.57997   0.16697   0.00000  Uiso   1.00
C333   C     0.73378   0.49936   0.15478   0.00000  Uiso   1.00
C334   C     0.93277   0.49997   0.17841   0.00000  Uiso   1.00
C335   C     0.67906   0.49392   0.14880   0.00000  Uiso   1.00
C336   C     0.98715   0.50581   0.18375   0.00000  Uiso   1.00
C337   C     0.86395   0.35491   0.13877   0.00000  Uiso   1.00
C338   C     0.80391   0.64510   0.19484   0.00000  Uiso   1.00
C339   C     0.86498   0.64528   0.13914   0.00000  Uiso   1.00
C340   C     0.80283   0.35467   0.19448   0.00000  Uiso   1.00
C341   C     0.83484   0.62407   0.16725   0.00000  Uiso   1.00
C342   C     0.83282   0.37591   0.16628   0.00000  Uiso   1.00
C343   C     0.85936   0.53040   0.02791   0.00000  Uiso   1.00
C344   C     0.80634   0.47026   0.30538   0.00000  Uiso   1.00
C345   C     0.85977   0.53083   0.31261   0.00000  Uiso   1.00
C346   C     0.80711   0.46941   0.02037   0.00000  Uiso   1.00
H347   H     0.88767   0.37177   0.11759   0.00000  Uiso   1.00
H348   H     0.78004   0.62829   0.21582   0.00000  Uiso   1.00
H349   H     0.87954   0.55369   0.05065   0.00000  Uiso   1.00
H350   H     0.78417   0.44718   0.28350   0.00000  Uiso   1.00
N351   N     0.83332   0.49999   0.28573   0.00000  Uiso   1.00
N352   N     0.83335   0.50001   0.04760   0.00000  Uiso   1.00
O353   O     0.83333   0.43892   0.20487   0.00000  Uiso   1.00
O354   O     0.83334   0.56108   0.12846   0.00000  Uiso   1.00
O355   O     0.83333   0.43893   0.12843   0.00000  Uiso   1.00
O356   O     0.83334   0.56107   0.20490   0.00000  Uiso   1.00
O357   O     0.75725   0.50000   0.19595   0.00000  Uiso   1.00
O358   O     0.90942   0.50000   0.13739   0.00000  Uiso   1.00
O359   O     0.75725   0.50000   0.11950   0.00000  Uiso   1.00
O360   O     0.90942   0.50000   0.21383   0.00000  Uiso   1.00
Zn361  Zn    0.83333   0.49999   0.21771   0.00000  Uiso   1.00
Zn362  Zn    0.83333   0.50001   0.11563   0.00000  Uiso   1.00
O363   O     0.98956   0.46623   0.11468   0.00000  Uiso   1.00
C364   C     0.98412   0.48516   0.07119   0.00000  Uiso   1.00
H365   H     0.68891   0.49053   0.05943   0.00000  Uiso   1.00
H366   H     0.96326   0.51552   0.07136   0.00000  Uiso   1.00
C367   C     0.95334   0.45561   0.03636   0.00000  Uiso   1.00
H368   H     0.91555   0.44728   0.04743   0.00000  Uiso   1.00
H369   H     0.94611   0.47071   0.00236   0.00000  Uiso   1.00
H370   H     0.97567   0.42641   0.03325   0.00000  Uiso   1.00
O371   O     0.67835   0.52431   0.22414   0.00000  Uiso   1.00
C372   C     0.67277   0.56820   0.22145   0.00000  Uiso   1.00
H373   H     0.96431   0.57724   0.21867   0.00000  Uiso   1.00
H374   H     0.68954   0.58062   0.19158   0.00000  Uiso   1.00
C375   C     0.70206   0.58813   0.26485   0.00000  Uiso   1.00
H376   H     0.74400   0.57973   0.26851   0.00000  Uiso   1.00
H377   H     0.69838   0.62275   0.26328   0.00000  Uiso   1.00
H378   H     0.68573   0.57677   0.29524   0.00000  Uiso   1.00
F379   F     0.89589   0.62453   0.11306   0.00000  Uiso   1.00
F380   F     0.77182   0.37533   0.22054   0.00000  Uiso   1.00
O381   O     0.88659   0.56033   0.29015   0.00000  Uiso   1.00
C382   C     0.90547   0.59617   0.31621   0.00000  Uiso   1.00
H383   H     0.93112   0.61347   0.29579   0.00000  Uiso   1.00
H384   H     0.93126   0.58817   0.01495   0.00000  Uiso   1.00
C385   C     0.86161   0.62616   0.32412   0.00000  Uiso   1.00
H386   H     0.83419   0.61164   0.01159   0.00000  Uiso   1.00
H387   H     0.87858   0.65473   0.00911   0.00000  Uiso   1.00
H388   H     0.83950   0.63552   0.29082   0.00000  Uiso   1.00
O389   O     0.77838   0.43991   0.04035   0.00000  Uiso   1.00
C390   C     0.79008   0.39844   0.02745   0.00000  Uiso   1.00
H391   H     0.80196   0.38045   0.05907   0.00000  Uiso   1.00
H392   H     0.82300   0.39577   0.00709   0.00000  Uiso   1.00
C393   C     0.74157   0.37732   0.00156   0.00000  Uiso   1.00
H394   H     0.72620   0.39544   0.30407   0.00000  Uiso   1.00
H395   H     0.75133   0.34523   0.32406   0.00000  Uiso   1.00
H396   H     0.71095   0.37500   0.02408   0.00000  Uiso   1.00
C397   C     0.16621   0.75336   0.16642   0.00000  Uiso   1.00
C398   C     0.16755   0.91330   0.16697   0.00000  Uiso   1.00
C399   C     0.06711   0.83269   0.15478   0.00000  Uiso   1.00
C400   C     0.26610   0.83330   0.17841   0.00000  Uiso   1.00
C401   C     0.01239   0.82726   0.14880   0.00000  Uiso   1.00
C402   C     0.32048   0.83914   0.18375   0.00000  Uiso   1.00
C403   C     0.19728   0.68824   0.13877   0.00000  Uiso   1.00
C404   C     0.13725   0.97843   0.19484   0.00000  Uiso   1.00
C405   C     0.19832   0.97861   0.13914   0.00000  Uiso   1.00
C406   C     0.13616   0.68801   0.19448   0.00000  Uiso   1.00
C407   C     0.16817   0.95741   0.16725   0.00000  Uiso   1.00
C408   C     0.16615   0.70924   0.16628   0.00000  Uiso   1.00
C409   C     0.19269   0.86373   0.02791   0.00000  Uiso   1.00
C410   C     0.13967   0.80359   0.30538   0.00000  Uiso   1.00
C411   C     0.19310   0.86416   0.31261   0.00000  Uiso   1.00
C412   C     0.14044   0.80274   0.02037   0.00000  Uiso   1.00
H413   H     0.22100   0.70511   0.11759   0.00000  Uiso   1.00
H414   H     0.11337   0.96162   0.21582   0.00000  Uiso   1.00
H415   H     0.21287   0.88702   0.05065   0.00000  Uiso   1.00
H416   H     0.11751   0.78051   0.28350   0.00000  Uiso   1.00
N417   N     0.16665   0.83332   0.28573   0.00000  Uiso   1.00
N418   N     0.16668   0.83334   0.04760   0.00000  Uiso   1.00
O419   O     0.16666   0.77225   0.20487   0.00000  Uiso   1.00
O420   O     0.16667   0.89442   0.12846   0.00000  Uiso   1.00
O421   O     0.16666   0.77226   0.12843   0.00000  Uiso   1.00
O422   O     0.16667   0.89441   0.20490   0.00000  Uiso   1.00
O423   O     0.09058   0.83333   0.19595   0.00000  Uiso   1.00
O424   O     0.24275   0.83334   0.13739   0.00000  Uiso   1.00
O425   O     0.09058   0.83334   0.11950   0.00000  Uiso   1.00
O426   O     0.24275   0.83333   0.21383   0.00000  Uiso   1.00
Zn427  Zn    0.16667   0.83333   0.21771   0.00000  Uiso   1.00
Zn428  Zn    0.16667   0.83334   0.11563   0.00000  Uiso   1.00
O429   O     0.32290   0.79957   0.11468   0.00000  Uiso   1.00
C430   C     0.31745   0.81849   0.07119   0.00000  Uiso   1.00
H431   H     0.02224   0.82386   0.05943   0.00000  Uiso   1.00
H432   H     0.29660   0.84886   0.07136   0.00000  Uiso   1.00
C433   C     0.28667   0.78895   0.03636   0.00000  Uiso   1.00
H434   H     0.24889   0.78061   0.04743   0.00000  Uiso   1.00
H435   H     0.27944   0.80405   0.00236   0.00000  Uiso   1.00
H436   H     0.30901   0.75974   0.03325   0.00000  Uiso   1.00
O437   O     0.01169   0.85764   0.22414   0.00000  Uiso   1.00
C438   C     0.00610   0.90153   0.22145   0.00000  Uiso   1.00
H439   H     0.29765   0.91057   0.21867   0.00000  Uiso   1.00
H440   H     0.02287   0.91395   0.19158   0.00000  Uiso   1.00
C441   C     0.03540   0.92146   0.26485   0.00000  Uiso   1.00
H442   H     0.07733   0.91306   0.26851   0.00000  Uiso   1.00
H443   H     0.03171   0.95608   0.26328   0.00000  Uiso   1.00
H444   H     0.01906   0.91010   0.29524   0.00000  Uiso   1.00
F445   F     0.22922   0.95786   0.11306   0.00000  Uiso   1.00
F446   F     0.10516   0.70866   0.22054   0.00000  Uiso   1.00
O447   O     0.21993   0.89366   0.29015   0.00000  Uiso   1.00
C448   C     0.23880   0.92951   0.31621   0.00000  Uiso   1.00
H449   H     0.26445   0.94681   0.29579   0.00000  Uiso   1.00
H450   H     0.26459   0.92150   0.01495   0.00000  Uiso   1.00
C451   C     0.19494   0.95949   0.32412   0.00000  Uiso   1.00
H452   H     0.16752   0.94497   0.01159   0.00000  Uiso   1.00
H453   H     0.21191   0.98806   0.00911   0.00000  Uiso   1.00
H454   H     0.17284   0.96885   0.29082   0.00000  Uiso   1.00
O455   O     0.11171   0.77324   0.04035   0.00000  Uiso   1.00
C456   C     0.12342   0.73177   0.02745   0.00000  Uiso   1.00
H457   H     0.13529   0.71378   0.05907   0.00000  Uiso   1.00
H458   H     0.15634   0.72911   0.00709   0.00000  Uiso   1.00
C459   C     0.07490   0.71065   0.00156   0.00000  Uiso   1.00
H460   H     0.05953   0.72878   0.30407   0.00000  Uiso   1.00
H461   H     0.08466   0.67856   0.32406   0.00000  Uiso   1.00
H462   H     0.04428   0.70833   0.02408   0.00000  Uiso   1.00
C463   C     0.49954   0.75336   0.16642   0.00000  Uiso   1.00
C464   C     0.50088   0.91330   0.16697   0.00000  Uiso   1.00
C465   C     0.40044   0.83269   0.15478   0.00000  Uiso   1.00
C466   C     0.59943   0.83330   0.17841   0.00000  Uiso   1.00
C467   C     0.34573   0.82726   0.14880   0.00000  Uiso   1.00
C468   C     0.65382   0.83914   0.18375   0.00000  Uiso   1.00
C469   C     0.53061   0.68824   0.13877   0.00000  Uiso   1.00
C470   C     0.47058   0.97843   0.19484   0.00000  Uiso   1.00
C471   C     0.53165   0.97861   0.13914   0.00000  Uiso   1.00
C472   C     0.46950   0.68801   0.19448   0.00000  Uiso   1.00
C473   C     0.50151   0.95741   0.16725   0.00000  Uiso   1.00
C474   C     0.49949   0.70924   0.16628   0.00000  Uiso   1.00
C475   C     0.52603   0.86373   0.02791   0.00000  Uiso   1.00
C476   C     0.47300   0.80359   0.30538   0.00000  Uiso   1.00
C477   C     0.52644   0.86416   0.31261   0.00000  Uiso   1.00
C478   C     0.47377   0.80274   0.02037   0.00000  Uiso   1.00
H479   H     0.55434   0.70511   0.11759   0.00000  Uiso   1.00
H480   H     0.44670   0.96162   0.21582   0.00000  Uiso   1.00
H481   H     0.54621   0.88702   0.05065   0.00000  Uiso   1.00
H482   H     0.45084   0.78051   0.28350   0.00000  Uiso   1.00
N483   N     0.49999   0.83332   0.28573   0.00000  Uiso   1.00
N484   N     0.50001   0.83334   0.04760   0.00000  Uiso   1.00
O485   O     0.50000   0.77225   0.20487   0.00000  Uiso   1.00
O486   O     0.50000   0.89442   0.12846   0.00000  Uiso   1.00
O487   O     0.50000   0.77226   0.12843   0.00000  Uiso   1.00
O488   O     0.50000   0.89441   0.20490   0.00000  Uiso   1.00
O489   O     0.42392   0.83333   0.19595   0.00000  Uiso   1.00
O490   O     0.57608   0.83334   0.13739   0.00000  Uiso   1.00
O491   O     0.42392   0.83334   0.11950   0.00000  Uiso   1.00
O492   O     0.57608   0.83333   0.21383   0.00000  Uiso   1.00
Zn493  Zn    0.50000   0.83333   0.21771   0.00000  Uiso   1.00
Zn494  Zn    0.50000   0.83334   0.11563   0.00000  Uiso   1.00
O495   O     0.65623   0.79957   0.11468   0.00000  Uiso   1.00
C496   C     0.65079   0.81849   0.07119   0.00000  Uiso   1.00
H497   H     0.35558   0.82386   0.05943   0.00000  Uiso   1.00
H498   H     0.62993   0.84886   0.07136   0.00000  Uiso   1.00
C499   C     0.62000   0.78895   0.03636   0.00000  Uiso   1.00
H500   H     0.58222   0.78061   0.04743   0.00000  Uiso   1.00
H501   H     0.61278   0.80405   0.00236   0.00000  Uiso   1.00
H502   H     0.64234   0.75974   0.03325   0.00000  Uiso   1.00
O503   O     0.34502   0.85764   0.22414   0.00000  Uiso   1.00
C504   C     0.33943   0.90153   0.22145   0.00000  Uiso   1.00
H505   H     0.63098   0.91057   0.21867   0.00000  Uiso   1.00
H506   H     0.35621   0.91395   0.19158   0.00000  Uiso   1.00
C507   C     0.36873   0.92146   0.26485   0.00000  Uiso   1.00
H508   H     0.41066   0.91306   0.26851   0.00000  Uiso   1.00
H509   H     0.36504   0.95608   0.26328   0.00000  Uiso   1.00
H510   H     0.35240   0.91010   0.29524   0.00000  Uiso   1.00
F511   F     0.56256   0.95786   0.11306   0.00000  Uiso   1.00
F512   F     0.43849   0.70866   0.22054   0.00000  Uiso   1.00
O513   O     0.55326   0.89366   0.29015   0.00000  Uiso   1.00
C514   C     0.57214   0.92951   0.31621   0.00000  Uiso   1.00
H515   H     0.59779   0.94681   0.29579   0.00000  Uiso   1.00
H516   H     0.59792   0.92150   0.01495   0.00000  Uiso   1.00
C517   C     0.52828   0.95949   0.32412   0.00000  Uiso   1.00
H518   H     0.50086   0.94497   0.01159   0.00000  Uiso   1.00
H519   H     0.54524   0.98806   0.00911   0.00000  Uiso   1.00
H520   H     0.50617   0.96885   0.29082   0.00000  Uiso   1.00
O521   O     0.44504   0.77324   0.04035   0.00000  Uiso   1.00
C522   C     0.45675   0.73177   0.02745   0.00000  Uiso   1.00
H523   H     0.46862   0.71378   0.05907   0.00000  Uiso   1.00
H524   H     0.48967   0.72911   0.00709   0.00000  Uiso   1.00
C525   C     0.40824   0.71065   0.00156   0.00000  Uiso   1.00
H526   H     0.39286   0.72878   0.30407   0.00000  Uiso   1.00
H527   H     0.41799   0.67856   0.32406   0.00000  Uiso   1.00
H528   H     0.37762   0.70833   0.02408   0.00000  Uiso   1.00
C529   C     0.83287   0.75336   0.16642   0.00000  Uiso   1.00
C530   C     0.83421   0.91330   0.16697   0.00000  Uiso   1.00
C531   C     0.73378   0.83269   0.15478   0.00000  Uiso   1.00
C532   C     0.93277   0.83330   0.17841   0.00000  Uiso   1.00
C533   C     0.67906   0.82726   0.14880   0.00000  Uiso   1.00
C534   C     0.98715   0.83914   0.18375   0.00000  Uiso   1.00
C535   C     0.86395   0.68824   0.13877   0.00000  Uiso   1.00
C536   C     0.80391   0.97843   0.19484   0.00000  Uiso   1.00
C537   C     0.86498   0.97861   0.13914   0.00000  Uiso   1.00
C538   C     0.80283   0.68801   0.19448   0.00000  Uiso   1.00
C539   C     0.83484   0.95741   0.16725   0.00000  Uiso   1.00
C540   C     0.83282   0.70924   0.16628   0.00000  Uiso   1.00
C541   C     0.85936   0.86373   0.02791   0.00000  Uiso   1.00
C542   C     0.80634   0.80359   0.30538   0.00000  Uiso   1.00
C543   C     0.85977   0.86416   0.31261   0.00000  Uiso   1.00
C544   C     0.80711   0.80274   0.02037   0.00000  Uiso   1.00
H545   H     0.88767   0.70511   0.11759   0.00000  Uiso   1.00
H546   H     0.78004   0.96162   0.21582   0.00000  Uiso   1.00
H547   H     0.87954   0.88702   0.05065   0.00000  Uiso   1.00
H548   H     0.78417   0.78051   0.28350   0.00000  Uiso   1.00
N549   N     0.83332   0.83332   0.28573   0.00000  Uiso   1.00
N550   N     0.83335   0.83334   0.04760   0.00000  Uiso   1.00
O551   O     0.83333   0.77225   0.20487   0.00000  Uiso   1.00
O552   O     0.83334   0.89442   0.12846   0.00000  Uiso   1.00
O553   O     0.83333   0.77226   0.12843   0.00000  Uiso   1.00
O554   O     0.83334   0.89441   0.20490   0.00000  Uiso   1.00
O555   O     0.75725   0.83333   0.19595   0.00000  Uiso   1.00
O556   O     0.90942   0.83334   0.13739   0.00000  Uiso   1.00
O557   O     0.75725   0.83334   0.11950   0.00000  Uiso   1.00
O558   O     0.90942   0.83333   0.21383   0.00000  Uiso   1.00
Zn559  Zn    0.83333   0.83333   0.21771   0.00000  Uiso   1.00
Zn560  Zn    0.83333   0.83334   0.11563   0.00000  Uiso   1.00
O561   O     0.98956   0.79957   0.11468   0.00000  Uiso   1.00
C562   C     0.98412   0.81849   0.07119   0.00000  Uiso   1.00
H563   H     0.68891   0.82386   0.05943   0.00000  Uiso   1.00
H564   H     0.96326   0.84886   0.07136   0.00000  Uiso   1.00
C565   C     0.95334   0.78895   0.03636   0.00000  Uiso   1.00
H566   H     0.91555   0.78061   0.04743   0.00000  Uiso   1.00
H567   H     0.94611   0.80405   0.00236   0.00000  Uiso   1.00
H568   H     0.97567   0.75974   0.03325   0.00000  Uiso   1.00
O569   O     0.67835   0.85764   0.22414   0.00000  Uiso   1.00
C570   C     0.67277   0.90153   0.22145   0.00000  Uiso   1.00
H571   H     0.96431   0.91057   0.21867   0.00000  Uiso   1.00
H572   H     0.68954   0.91395   0.19158   0.00000  Uiso   1.00
C573   C     0.70206   0.92146   0.26485   0.00000  Uiso   1.00
H574   H     0.74400   0.91306   0.26851   0.00000  Uiso   1.00
H575   H     0.69838   0.95608   0.26328   0.00000  Uiso   1.00
H576   H     0.68573   0.91010   0.29524   0.00000  Uiso   1.00
F577   F     0.89589   0.95786   0.11306   0.00000  Uiso   1.00
F578   F     0.77182   0.70866   0.22054   0.00000  Uiso   1.00
O579   O     0.88659   0.89366   0.29015   0.00000  Uiso   1.00
C580   C     0.90547   0.92951   0.31621   0.00000  Uiso   1.00
H581   H     0.93112   0.94681   0.29579   0.00000  Uiso   1.00
H582   H     0.93126   0.92150   0.01495   0.00000  Uiso   1.00
C583   C     0.86161   0.95949   0.32412   0.00000  Uiso   1.00
H584   H     0.83419   0.94497   0.01159   0.00000  Uiso   1.00
H585   H     0.87858   0.98806   0.00911   0.00000  Uiso   1.00
H586   H     0.83950   0.96885   0.29082   0.00000  Uiso   1.00
O587   O     0.77838   0.77324   0.04035   0.00000  Uiso   1.00
C588   C     0.79008   0.73177   0.02745   0.00000  Uiso   1.00
H589   H     0.80196   0.71378   0.05907   0.00000  Uiso   1.00
H590   H     0.82300   0.72911   0.00709   0.00000  Uiso   1.00
C591   C     0.74157   0.71065   0.00156   0.00000  Uiso   1.00
H592   H     0.72620   0.72878   0.30407   0.00000  Uiso   1.00
H593   H     0.75133   0.67856   0.32406   0.00000  Uiso   1.00
H594   H     0.71095   0.70833   0.02408   0.00000  Uiso   1.00
C595   C     0.16621   0.08669   0.49975   0.00000  Uiso   1.00
C596   C     0.16755   0.24663   0.50030   0.00000  Uiso   1.00
C597   C     0.06711   0.16603   0.48811   0.00000  Uiso   1.00
C598   C     0.26610   0.16664   0.51174   0.00000  Uiso   1.00
C599   C     0.01239   0.16059   0.48214   0.00000  Uiso   1.00
C600   C     0.32048   0.17248   0.51708   0.00000  Uiso   1.00
C601   C     0.19728   0.02157   0.47210   0.00000  Uiso   1.00
C602   C     0.13725   0.31177   0.52818   0.00000  Uiso   1.00
C603   C     0.19832   0.31194   0.47248   0.00000  Uiso   1.00
C604   C     0.13616   0.02134   0.52781   0.00000  Uiso   1.00
C605   C     0.16817   0.29074   0.50059   0.00000  Uiso   1.00
C606   C     0.16615   0.04257   0.49962   0.00000  Uiso   1.00
C607   C     0.19269   0.19706   0.36125   0.00000  Uiso   1.00
C608   C     0.13967   0.13693   0.63871   0.00000  Uiso   1.00
C609   C     0.19310   0.19750   0.64594   0.00000  Uiso   1.00
C610   C     0.14044   0.13607   0.35370   0.00000  Uiso   1.00
H611   H     0.22100   0.03844   0.45093   0.00000  Uiso   1.00
H612   H     0.11337   0.29496   0.54915   0.00000  Uiso   1.00
H613   H     0.21287   0.22036   0.38399   0.00000  Uiso   1.00
H614   H     0.11751   0.11385   0.61683   0.00000  Uiso   1.00
N615   N     0.16665   0.16666   0.61907   0.00000  Uiso   1.00
N616   N     0.16668   0.16668   0.38093   0.00000  Uiso   1.00
O617   O     0.16666   0.10558   0.53821   0.00000  Uiso   1.00
O618   O     0.16667   0.22775   0.46179   0.00000  Uiso   1.00
O619   O     0.16666   0.10559   0.46176   0.00000  Uiso   1.00
O620   O     0.16667   0.22774   0.53824   0.00000  Uiso   1.00
O621   O     0.09058   0.16666   0.52928   0.00000  Uiso   1.00
O622   O     0.24275   0.16667   0.47072   0.00000  Uiso   1.00
O623   O     0.09058   0.16667   0.45284   0.00000  Uiso   1.00
O624   O     0.24275   0.16666   0.54716   0.00000  Uiso   1.00
Zn625  Zn    0.16667   0.16666   0.55104   0.00000  Uiso   1.00
Zn626  Zn    0.16667   0.16667   0.44896   0.00000  Uiso   1.00
O627   O     0.32290   0.13290   0.44801   0.00000  Uiso   1.00
C628   C     0.31745   0.15183   0.40452   0.00000  Uiso   1.00
H629   H     0.02224   0.15720   0.39276   0.00000  Uiso   1.00
H630   H     0.29660   0.18219   0.40470   0.00000  Uiso   1.00
C631   C     0.28667   0.12228   0.36969   0.00000  Uiso   1.00
H632   H     0.24889   0.11395   0.38076   0.00000  Uiso   1.00
H633   H     0.27944   0.13738   0.33569   0.00000  Uiso   1.00
H634   H     0.30901   0.09308   0.36659   0.00000  Uiso   1.00
O635   O     0.01169   0.19098   0.55748   0.00000  Uiso   1.00
C636   C     0.00610   0.23486   0.55478   0.00000  Uiso   1.00
H637   H     0.29765   0.24390   0.55201   0.00000  Uiso   1.00
H638   H     0.02287   0.24728   0.52492   0.00000  Uiso   1.00
C639   C     0.03540   0.25480   0.59818   0.00000  Uiso   1.00
H640   H     0.07733   0.24640   0.60184   0.00000  Uiso   1.00
H641   H     0.03171   0.28941   0.59662   0.00000  Uiso   1.00
H642   H     0.01906   0.24343   0.62857   0.00000  Uiso   1.00
F643   F     0.22922   0.29120   0.44639   0.00000  Uiso   1.00
F644   F     0.10516   0.04199   0.55388   0.00000  Uiso   1.00
O645   O     0.21993   0.22700   0.62349   0.00000  Uiso   1.00
C646   C     0.23880   0.26284   0.64954   0.00000  Uiso   1.00
H647   H     0.26445   0.28014   0.62912   0.00000  Uiso   1.00
H648   H     0.26459   0.25484   0.34829   0.00000  Uiso   1.00
C649   C     0.19494   0.29283   0.65746   0.00000  Uiso   1.00
H650   H     0.16752   0.27830   0.34492   0.00000  Uiso   1.00
H651   H     0.21191   0.32140   0.34245   0.00000  Uiso   1.00
H652   H     0.17284   0.30219   0.62416   0.00000  Uiso   1.00
O653   O     0.11171   0.10658   0.37368   0.00000  Uiso   1.00
C654   C     0.12342   0.06511   0.36078   0.00000  Uiso   1.00
H655   H     0.13529   0.04711   0.39241   0.00000  Uiso   1.00
H656   H     0.15634   0.06244   0.34042   0.00000  Uiso   1.00
C657   C     0.07490   0.04398   0.33489   0.00000  Uiso   1.00
H658   H     0.05953   0.06211   0.63741   0.00000  Uiso   1.00
H659   H     0.08466   0.01189   0.65739   0.00000  Uiso   1.00
H660   H     0.04428   0.04167   0.35741   0.00000  Uiso   1.00
C661   C     0.49954   0.08669   0.49975   0.00000  Uiso   1.00
C662   C     0.50088   0.24663   0.50030   0.00000  Uiso   1.00
C663   C     0.40044   0.16603   0.48811   0.00000  Uiso   1.00
C664   C     0.59943   0.16664   0.51174   0.00000  Uiso   1.00
C665   C     0.34573   0.16059   0.48214   0.00000  Uiso   1.00
C666   C     0.65382   0.17248   0.51708   0.00000  Uiso   1.00
C667   C     0.53061   0.02157   0.47210   0.00000  Uiso   1.00
C668   C     0.47058   0.31177   0.52818   0.00000  Uiso   1.00
C669   C     0.53165   0.31194   0.47248   0.00000  Uiso   1.00
C670   C     0.46950   0.02134   0.52781   0.00000  Uiso   1.00
C671   C     0.50151   0.29074   0.50059   0.00000  Uiso   1.00
C672   C     0.49949   0.04257   0.49962   0.00000  Uiso   1.00
C673   C     0.52603   0.19706   0.36125   0.00000  Uiso   1.00
C674   C     0.47300   0.13693   0.63871   0.00000  Uiso   1.00
C675   C     0.52644   0.19750   0.64594   0.00000  Uiso   1.00
C676   C     0.47377   0.13607   0.35370   0.00000  Uiso   1.00
H677   H     0.55434   0.03844   0.45093   0.00000  Uiso   1.00
H678   H     0.44670   0.29496   0.54915   0.00000  Uiso   1.00
H679   H     0.54621   0.22036   0.38399   0.00000  Uiso   1.00
H680   H     0.45084   0.11385   0.61683   0.00000  Uiso   1.00
N681   N     0.49999   0.16666   0.61907   0.00000  Uiso   1.00
N682   N     0.50001   0.16668   0.38093   0.00000  Uiso   1.00
O683   O     0.50000   0.10558   0.53821   0.00000  Uiso   1.00
O684   O     0.50000   0.22775   0.46179   0.00000  Uiso   1.00
O685   O     0.50000   0.10559   0.46176   0.00000  Uiso   1.00
O686   O     0.50000   0.22774   0.53824   0.00000  Uiso   1.00
O687   O     0.42392   0.16666   0.52928   0.00000  Uiso   1.00
O688   O     0.57608   0.16667   0.47072   0.00000  Uiso   1.00
O689   O     0.42392   0.16667   0.45284   0.00000  Uiso   1.00
O690   O     0.57608   0.16666   0.54716   0.00000  Uiso   1.00
Zn691  Zn    0.50000   0.16666   0.55104   0.00000  Uiso   1.00
Zn692  Zn    0.50000   0.16667   0.44896   0.00000  Uiso   1.00
O693   O     0.65623   0.13290   0.44801   0.00000  Uiso   1.00
C694   C     0.65079   0.15183   0.40452   0.00000  Uiso   1.00
H695   H     0.35558   0.15720   0.39276   0.00000  Uiso   1.00
H696   H     0.62993   0.18219   0.40470   0.00000  Uiso   1.00
C697   C     0.62000   0.12228   0.36969   0.00000  Uiso   1.00
H698   H     0.58222   0.11395   0.38076   0.00000  Uiso   1.00
H699   H     0.61278   0.13738   0.33569   0.00000  Uiso   1.00
H700   H     0.64234   0.09308   0.36659   0.00000  Uiso   1.00
O701   O     0.34502   0.19098   0.55748   0.00000  Uiso   1.00
C702   C     0.33943   0.23486   0.55478   0.00000  Uiso   1.00
H703   H     0.63098   0.24390   0.55201   0.00000  Uiso   1.00
H704   H     0.35621   0.24728   0.52492   0.00000  Uiso   1.00
C705   C     0.36873   0.25480   0.59818   0.00000  Uiso   1.00
H706   H     0.41066   0.24640   0.60184   0.00000  Uiso   1.00
H707   H     0.36504   0.28941   0.59662   0.00000  Uiso   1.00
H708   H     0.35240   0.24343   0.62857   0.00000  Uiso   1.00
F709   F     0.56256   0.29120   0.44639   0.00000  Uiso   1.00
F710   F     0.43849   0.04199   0.55388   0.00000  Uiso   1.00
O711   O     0.55326   0.22700   0.62349   0.00000  Uiso   1.00
C712   C     0.57214   0.26284   0.64954   0.00000  Uiso   1.00
H713   H     0.59779   0.28014   0.62912   0.00000  Uiso   1.00
H714   H     0.59792   0.25484   0.34829   0.00000  Uiso   1.00
C715   C     0.52828   0.29283   0.65746   0.00000  Uiso   1.00
H716   H     0.50086   0.27830   0.34492   0.00000  Uiso   1.00
H717   H     0.54524   0.32140   0.34245   0.00000  Uiso   1.00
H718   H     0.50617   0.30219   0.62416   0.00000  Uiso   1.00
O719   O     0.44504   0.10658   0.37368   0.00000  Uiso   1.00
C720   C     0.45675   0.06511   0.36078   0.00000  Uiso   1.00
H721   H     0.46862   0.04711   0.39241   0.00000  Uiso   1.00
H722   H     0.48967   0.06244   0.34042   0.00000  Uiso   1.00
C723   C     0.40824   0.04398   0.33489   0.00000  Uiso   1.00
H724   H     0.39286   0.06211   0.63741   0.00000  Uiso   1.00
H725   H     0.41799   0.01189   0.65739   0.00000  Uiso   1.00
H726   H     0.37762   0.04167   0.35741   0.00000  Uiso   1.00
C727   C     0.83287   0.08669   0.49975   0.00000  Uiso   1.00
C728   C     0.83421   0.24663   0.50030   0.00000  Uiso   1.00
C729   C     0.73378   0.16603   0.48811   0.00000  Uiso   1.00
C730   C     0.93277   0.16664   0.51174   0.00000  Uiso   1.00
C731   C     0.67906   0.16059   0.48214   0.00000  Uiso   1.00
C732   C     0.98715   0.17248   0.51708   0.00000  Uiso   1.00
C733   C     0.86395   0.02157   0.47210   0.00000  Uiso   1.00
C734   C     0.80391   0.31177   0.52818   0.00000  Uiso   1.00
C735   C     0.86498   0.31194   0.47248   0.00000  Uiso   1.00
C736   C     0.80283   0.02134   0.52781   0.00000  Uiso   1.00
C737   C     0.83484   0.29074   0.50059   0.00000  Uiso   1.00
C738   C     0.83282   0.04257   0.49962   0.00000  Uiso   1.00
C739   C     0.85936   0.19706   0.36125   0.00000  Uiso   1.00
C740   C     0.80634   0.13693   0.63871   0.00000  Uiso   1.00
C741   C     0.85977   0.19750   0.64594   0.00000  Uiso   1.00
C742   C     0.80711   0.13607   0.35370   0.00000  Uiso   1.00
H743   H     0.88767   0.03844   0.45093   0.00000  Uiso   1.00
H744   H     0.78004   0.29496   0.54915   0.00000  Uiso   1.00
H745   H     0.87954   0.22036   0.38399   0.00000  Uiso   1.00
H746   H     0.78417   0.11385   0.61683   0.00000  Uiso   1.00
N747   N     0.83332   0.16666   0.61907   0.00000  Uiso   1.00
N748   N     0.83335   0.16668   0.38093   0.00000  Uiso   1.00
O749   O     0.83333   0.10558   0.53821   0.00000  Uiso   1.00
O750   O     0.83334   0.22775   0.46179   0.00000  Uiso   1.00
O751   O     0.83333   0.10559   0.46176   0.00000  Uiso   1.00
O752   O     0.83334   0.22774   0.53824   0.00000  Uiso   1.00
O753   O     0.75725   0.16666   0.52928   0.00000  Uiso   1.00
O754   O     0.90942   0.16667   0.47072   0.00000  Uiso   1.00
O755   O     0.75725   0.16667   0.45284   0.00000  Uiso   1.00
O756   O     0.90942   0.16666   0.54716   0.00000  Uiso   1.00
Zn757  Zn    0.83333   0.16666   0.55104   0.00000  Uiso   1.00
Zn758  Zn    0.83333   0.16667   0.44896   0.00000  Uiso   1.00
O759   O     0.98956   0.13290   0.44801   0.00000  Uiso   1.00
C760   C     0.98412   0.15183   0.40452   0.00000  Uiso   1.00
H761   H     0.68891   0.15720   0.39276   0.00000  Uiso   1.00
H762   H     0.96326   0.18219   0.40470   0.00000  Uiso   1.00
C763   C     0.95334   0.12228   0.36969   0.00000  Uiso   1.00
H764   H     0.91555   0.11395   0.38076   0.00000  Uiso   1.00
H765   H     0.94611   0.13738   0.33569   0.00000  Uiso   1.00
H766   H     0.97567   0.09308   0.36659   0.00000  Uiso   1.00
O767   O     0.67835   0.19098   0.55748   0.00000  Uiso   1.00
C768   C     0.67277   0.23486   0.55478   0.00000  Uiso   1.00
H769   H     0.96431   0.24390   0.55201   0.00000  Uiso   1.00
H770   H     0.68954   0.24728   0.52492   0.00000  Uiso   1.00
C771   C     0.70206   0.25480   0.59818   0.00000  Uiso   1.00
H772   H     0.74400   0.24640   0.60184   0.00000  Uiso   1.00
H773   H     0.69838   0.28941   0.59662   0.00000  Uiso   1.00
H774   H     0.68573   0.24343   0.62857   0.00000  Uiso   1.00
F775   F     0.89589   0.29120   0.44639   0.00000  Uiso   1.00
F776   F     0.77182   0.04199   0.55388   0.00000  Uiso   1.00
O777   O     0.88659   0.22700   0.62349   0.00000  Uiso   1.00
C778   C     0.90547   0.26284   0.64954   0.00000  Uiso   1.00
H779   H     0.93112   0.28014   0.62912   0.00000  Uiso   1.00
H780   H     0.93126   0.25484   0.34829   0.00000  Uiso   1.00
C781   C     0.86161   0.29283   0.65746   0.00000  Uiso   1.00
H782   H     0.83419   0.27830   0.34492   0.00000  Uiso   1.00
H783   H     0.87858   0.32140   0.34245   0.00000  Uiso   1.00
H784   H     0.83950   0.30219   0.62416   0.00000  Uiso   1.00
O785   O     0.77838   0.10658   0.37368   0.00000  Uiso   1.00
C786   C     0.79008   0.06511   0.36078   0.00000  Uiso   1.00
H787   H     0.80196   0.04711   0.39241   0.00000  Uiso   1.00
H788   H     0.82300   0.06244   0.34042   0.00000  Uiso   1.00
C789   C     0.74157   0.04398   0.33489   0.00000  Uiso   1.00
H790   H     0.72620   0.06211   0.63741   0.00000  Uiso   1.00
H791   H     0.75133   0.01189   0.65739   0.00000  Uiso   1.00
H792   H     0.71095   0.04167   0.35741   0.00000  Uiso   1.00
C793   C     0.16621   0.42002   0.49975   0.00000  Uiso   1.00
C794   C     0.16755   0.57997   0.50030   0.00000  Uiso   1.00
C795   C     0.06711   0.49936   0.48811   0.00000  Uiso   1.00
C796   C     0.26610   0.49997   0.51174   0.00000  Uiso   1.00
C797   C     0.01239   0.49392   0.48214   0.00000  Uiso   1.00
C798   C     0.32048   0.50581   0.51708   0.00000  Uiso   1.00
C799   C     0.19728   0.35491   0.47210   0.00000  Uiso   1.00
C800   C     0.13725   0.64510   0.52818   0.00000  Uiso   1.00
C801   C     0.19832   0.64528   0.47248   0.00000  Uiso   1.00
C802   C     0.13616   0.35467   0.52781   0.00000  Uiso   1.00
C803   C     0.16817   0.62407   0.50059   0.00000  Uiso   1.00
C804   C     0.16615   0.37591   0.49962   0.00000  Uiso   1.00
C805   C     0.19269   0.53040   0.36125   0.00000  Uiso   1.00
C806   C     0.13967   0.47026   0.63871   0.00000  Uiso   1.00
C807   C     0.19310   0.53083   0.64594   0.00000  Uiso   1.00
C808   C     0.14044   0.46941   0.35370   0.00000  Uiso   1.00
H809   H     0.22100   0.37177   0.45093   0.00000  Uiso   1.00
H810   H     0.11337   0.62829   0.54915   0.00000  Uiso   1.00
H811   H     0.21287   0.55369   0.38399   0.00000  Uiso   1.00
H812   H     0.11751   0.44718   0.61683   0.00000  Uiso   1.00
N813   N     0.16665   0.49999   0.61907   0.00000  Uiso   1.00
N814   N     0.16668   0.50001   0.38093   0.00000  Uiso   1.00
O815   O     0.16666   0.43892   0.53821   0.00000  Uiso   1.00
O816   O     0.16667   0.56108   0.46179   0.00000  Uiso   1.00
O817   O     0.16666   0.43893   0.46176   0.00000  Uiso   1.00
O818   O     0.16667   0.56107   0.53824   0.00000  Uiso   1.00
O819   O     0.09058   0.50000   0.52928   0.00000  Uiso   1.00
O820   O     0.24275   0.50000   0.47072   0.00000  Uiso   1.00
O821   O     0.09058   0.50000   0.45284   0.00000  Uiso   1.00
O822   O     0.24275   0.50000   0.54716   0.00000  Uiso   1.00
Zn823  Zn    0.16667   0.49999   0.55104   0.00000  Uiso   1.00
Zn824  Zn    0.16667   0.50001   0.44896   0.00000  Uiso   1.00
O825   O     0.32290   0.46623   0.44801   0.00000  Uiso   1.00
C826   C     0.31745   0.48516   0.40452   0.00000  Uiso   1.00
H827   H     0.02224   0.49053   0.39276   0.00000  Uiso   1.00
H828   H     0.29660   0.51552   0.40470   0.00000  Uiso   1.00
C829   C     0.28667   0.45561   0.36969   0.00000  Uiso   1.00
H830   H     0.24889   0.44728   0.38076   0.00000  Uiso   1.00
H831   H     0.27944   0.47071   0.33569   0.00000  Uiso   1.00
H832   H     0.30901   0.42641   0.36659   0.00000  Uiso   1.00
O833   O     0.01169   0.52431   0.55748   0.00000  Uiso   1.00
C834   C     0.00610   0.56820   0.55478   0.00000  Uiso   1.00
H835   H     0.29765   0.57724   0.55201   0.00000  Uiso   1.00
H836   H     0.02287   0.58062   0.52492   0.00000  Uiso   1.00
C837   C     0.03540   0.58813   0.59818   0.00000  Uiso   1.00
H838   H     0.07733   0.57973   0.60184   0.00000  Uiso   1.00
H839   H     0.03171   0.62275   0.59662   0.00000  Uiso   1.00
H840   H     0.01906   0.57677   0.62857   0.00000  Uiso   1.00
F841   F     0.22922   0.62453   0.44639   0.00000  Uiso   1.00
F842   F     0.10516   0.37533   0.55388   0.00000  Uiso   1.00
O843   O     0.21993   0.56033   0.62349   0.00000  Uiso   1.00
C844   C     0.23880   0.59617   0.64954   0.00000  Uiso   1.00
H845   H     0.26445   0.61347   0.62912   0.00000  Uiso   1.00
H846   H     0.26459   0.58817   0.34829   0.00000  Uiso   1.00
C847   C     0.19494   0.62616   0.65746   0.00000  Uiso   1.00
H848   H     0.16752   0.61164   0.34492   0.00000  Uiso   1.00
H849   H     0.21191   0.65473   0.34245   0.00000  Uiso   1.00
H850   H     0.17284   0.63552   0.62416   0.00000  Uiso   1.00
O851   O     0.11171   0.43991   0.37368   0.00000  Uiso   1.00
C852   C     0.12342   0.39844   0.36078   0.00000  Uiso   1.00
H853   H     0.13529   0.38045   0.39241   0.00000  Uiso   1.00
H854   H     0.15634   0.39577   0.34042   0.00000  Uiso   1.00
C855   C     0.07490   0.37732   0.33489   0.00000  Uiso   1.00
H856   H     0.05953   0.39544   0.63741   0.00000  Uiso   1.00
H857   H     0.08466   0.34523   0.65739   0.00000  Uiso   1.00
H858   H     0.04428   0.37500   0.35741   0.00000  Uiso   1.00
C859   C     0.49954   0.42002   0.49975   0.00000  Uiso   1.00
C860   C     0.50088   0.57997   0.50030   0.00000  Uiso   1.00
C861   C     0.40044   0.49936   0.48811   0.00000  Uiso   1.00
C862   C     0.59943   0.49997   0.51174   0.00000  Uiso   1.00
C863   C     0.34573   0.49392   0.48214   0.00000  Uiso   1.00
C864   C     0.65382   0.50581   0.51708   0.00000  Uiso   1.00
C865   C     0.53061   0.35491   0.47210   0.00000  Uiso   1.00
C866   C     0.47058   0.64510   0.52818   0.00000  Uiso   1.00
C867   C     0.53165   0.64528   0.47248   0.00000  Uiso   1.00
C868   C     0.46950   0.35467   0.52781   0.00000  Uiso   1.00
C869   C     0.50151   0.62407   0.50059   0.00000  Uiso   1.00
C870   C     0.49949   0.37591   0.49962   0.00000  Uiso   1.00
C871   C     0.52603   0.53040   0.36125   0.00000  Uiso   1.00
C872   C     0.47300   0.47026   0.63871   0.00000  Uiso   1.00
C873   C     0.52644   0.53083   0.64594   0.00000  Uiso   1.00
C874   C     0.47377   0.46941   0.35370   0.00000  Uiso   1.00
H875   H     0.55434   0.37177   0.45093   0.00000  Uiso   1.00
H876   H     0.44670   0.62829   0.54915   0.00000  Uiso   1.00
H877   H     0.54621   0.55369   0.38399   0.00000  Uiso   1.00
H878   H     0.45084   0.44718   0.61683   0.00000  Uiso   1.00
N879   N     0.49999   0.49999   0.61907   0.00000  Uiso   1.00
N880   N     0.50001   0.50001   0.38093   0.00000  Uiso   1.00
O881   O     0.50000   0.43892   0.53821   0.00000  Uiso   1.00
O882   O     0.50000   0.56108   0.46179   0.00000  Uiso   1.00
O883   O     0.50000   0.43893   0.46176   0.00000  Uiso   1.00
O884   O     0.50000   0.56107   0.53824   0.00000  Uiso   1.00
O885   O     0.42392   0.50000   0.52928   0.00000  Uiso   1.00
O886   O     0.57608   0.50000   0.47072   0.00000  Uiso   1.00
O887   O     0.42392   0.50000   0.45284   0.00000  Uiso   1.00
O888   O     0.57608   0.50000   0.54716   0.00000  Uiso   1.00
Zn889  Zn    0.50000   0.49999   0.55104   0.00000  Uiso   1.00
Zn890  Zn    0.50000   0.50001   0.44896   0.00000  Uiso   1.00
O891   O     0.65623   0.46623   0.44801   0.00000  Uiso   1.00
C892   C     0.65079   0.48516   0.40452   0.00000  Uiso   1.00
H893   H     0.35558   0.49053   0.39276   0.00000  Uiso   1.00
H894   H     0.62993   0.51552   0.40470   0.00000  Uiso   1.00
C895   C     0.62000   0.45561   0.36969   0.00000  Uiso   1.00
H896   H     0.58222   0.44728   0.38076   0.00000  Uiso   1.00
H897   H     0.61278   0.47071   0.33569   0.00000  Uiso   1.00
H898   H     0.64234   0.42641   0.36659   0.00000  Uiso   1.00
O899   O     0.34502   0.52431   0.55748   0.00000  Uiso   1.00
C900   C     0.33943   0.56820   0.55478   0.00000  Uiso   1.00
H901   H     0.63098   0.57724   0.55201   0.00000  Uiso   1.00
H902   H     0.35621   0.58062   0.52492   0.00000  Uiso   1.00
C903   C     0.36873   0.58813   0.59818   0.00000  Uiso   1.00
H904   H     0.41066   0.57973   0.60184   0.00000  Uiso   1.00
H905   H     0.36504   0.62275   0.59662   0.00000  Uiso   1.00
H906   H     0.35240   0.57677   0.62857   0.00000  Uiso   1.00
F907   F     0.56256   0.62453   0.44639   0.00000  Uiso   1.00
F908   F     0.43849   0.37533   0.55388   0.00000  Uiso   1.00
O909   O     0.55326   0.56033   0.62349   0.00000  Uiso   1.00
C910   C     0.57214   0.59617   0.64954   0.00000  Uiso   1.00
H911   H     0.59779   0.61347   0.62912   0.00000  Uiso   1.00
H912   H     0.59792   0.58817   0.34829   0.00000  Uiso   1.00
C913   C     0.52828   0.62616   0.65746   0.00000  Uiso   1.00
H914   H     0.50086   0.61164   0.34492   0.00000  Uiso   1.00
H915   H     0.54524   0.65473   0.34245   0.00000  Uiso   1.00
H916   H     0.50617   0.63552   0.62416   0.00000  Uiso   1.00
O917   O     0.44504   0.43991   0.37368   0.00000  Uiso   1.00
C918   C     0.45675   0.39844   0.36078   0.00000  Uiso   1.00
H919   H     0.46862   0.38045   0.39241   0.00000  Uiso   1.00
H920   H     0.48967   0.39577   0.34042   0.00000  Uiso   1.00
C921   C     0.40824   0.37732   0.33489   0.00000  Uiso   1.00
H922   H     0.39286   0.39544   0.63741   0.00000  Uiso   1.00
H923   H     0.41799   0.34523   0.65739   0.00000  Uiso   1.00
H924   H     0.37762   0.37500   0.35741   0.00000  Uiso   1.00
C925   C     0.83287   0.42002   0.49975   0.00000  Uiso   1.00
C926   C     0.83421   0.57997   0.50030   0.00000  Uiso   1.00
C927   C     0.73378   0.49936   0.48811   0.00000  Uiso   1.00
C928   C     0.93277   0.49997   0.51174   0.00000  Uiso   1.00
C929   C     0.67906   0.49392   0.48214   0.00000  Uiso   1.00
C930   C     0.98715   0.50581   0.51708   0.00000  Uiso   1.00
C931   C     0.86395   0.35491   0.47210   0.00000  Uiso   1.00
C932   C     0.80391   0.64510   0.52818   0.00000  Uiso   1.00
C933   C     0.86498   0.64528   0.47248   0.00000  Uiso   1.00
C934   C     0.80283   0.35467   0.52781   0.00000  Uiso   1.00
C935   C     0.83484   0.62407   0.50059   0.00000  Uiso   1.00
C936   C     0.83282   0.37591   0.49962   0.00000  Uiso   1.00
C937   C     0.85936   0.53040   0.36125   0.00000  Uiso   1.00
C938   C     0.80634   0.47026   0.63871   0.00000  Uiso   1.00
C939   C     0.85977   0.53083   0.64594   0.00000  Uiso   1.00
C940   C     0.80711   0.46941   0.35370   0.00000  Uiso   1.00
H941   H     0.88767   0.37177   0.45093   0.00000  Uiso   1.00
H942   H     0.78004   0.62829   0.54915   0.00000  Uiso   1.00
H943   H     0.87954   0.55369   0.38399   0.00000  Uiso   1.00
H944   H     0.78417   0.44718   0.61683   0.00000  Uiso   1.00
N945   N     0.83332   0.49999   0.61907   0.00000  Uiso   1.00
N946   N     0.83335   0.50001   0.38093   0.00000  Uiso   1.00
O947   O     0.83333   0.43892   0.53821   0.00000  Uiso   1.00
O948   O     0.83334   0.56108   0.46179   0.00000  Uiso   1.00
O949   O     0.83333   0.43893   0.46176   0.00000  Uiso   1.00
O950   O     0.83334   0.56107   0.53824   0.00000  Uiso   1.00
O951   O     0.75725   0.50000   0.52928   0.00000  Uiso   1.00
O952   O     0.90942   0.50000   0.47072   0.00000  Uiso   1.00
O953   O     0.75725   0.50000   0.45284   0.00000  Uiso   1.00
O954   O     0.90942   0.50000   0.54716   0.00000  Uiso   1.00
Zn955  Zn    0.83333   0.49999   0.55104   0.00000  Uiso   1.00
Zn956  Zn    0.83333   0.50001   0.44896   0.00000  Uiso   1.00
O957   O     0.98956   0.46623   0.44801   0.00000  Uiso   1.00
C958   C     0.98412   0.48516   0.40452   0.00000  Uiso   1.00
H959   H     0.68891   0.49053   0.39276   0.00000  Uiso   1.00
H960   H     0.96326   0.51552   0.40470   0.00000  Uiso   1.00
C961   C     0.95334   0.45561   0.36969   0.00000  Uiso   1.00
H962   H     0.91555   0.44728   0.38076   0.00000  Uiso   1.00
H963   H     0.94611   0.47071   0.33569   0.00000  Uiso   1.00
H964   H     0.97567   0.42641   0.36659   0.00000  Uiso   1.00
O965   O     0.67835   0.52431   0.55748   0.00000  Uiso   1.00
C966   C     0.67277   0.56820   0.55478   0.00000  Uiso   1.00
H967   H     0.96431   0.57724   0.55201   0.00000  Uiso   1.00
H968   H     0.68954   0.58062   0.52492   0.00000  Uiso   1.00
C969   C     0.70206   0.58813   0.59818   0.00000  Uiso   1.00
H970   H     0.74400   0.57973   0.60184   0.00000  Uiso   1.00
H971   H     0.69838   0.62275   0.59662   0.00000  Uiso   1.00
H972   H     0.68573   0.57677   0.62857   0.00000  Uiso   1.00
F973   F     0.89589   0.62453   0.44639   0.00000  Uiso   1.00
F974   F     0.77182   0.37533   0.55388   0.00000  Uiso   1.00
O975   O     0.88659   0.56033   0.62349   0.00000  Uiso   1.00
C976   C     0.90547   0.59617   0.64954   0.00000  Uiso   1.00
H977   H     0.93112   0.61347   0.62912   0.00000  Uiso   1.00
H978   H     0.93126   0.58817   0.34829   0.00000  Uiso   1.00
C979   C     0.86161   0.62616   0.65746   0.00000  Uiso   1.00
H980   H     0.83419   0.61164   0.34492   0.00000  Uiso   1.00
H981   H     0.87858   0.65473   0.34245   0.00000  Uiso   1.00
H982   H     0.83950   0.63552   0.62416   0.00000  Uiso   1.00
O983   O     0.77838   0.43991   0.37368   0.00000  Uiso   1.00
C984   C     0.79008   0.39844   0.36078   0.00000  Uiso   1.00
H985   H     0.80196   0.38045   0.39241   0.00000  Uiso   1.00
H986   H     0.82300   0.39577   0.34042   0.00000  Uiso   1.00
C987   C     0.74157   0.37732   0.33489   0.00000  Uiso   1.00
H988   H     0.72620   0.39544   0.63741   0.00000  Uiso   1.00
H989   H     0.75133   0.34523   0.65739   0.00000  Uiso   1.00
H990   H     0.71095   0.37500   0.35741   0.00000  Uiso   1.00
C991   C     0.16621   0.75336   0.49975   0.00000  Uiso   1.00
C992   C     0.16755   0.91330   0.50030   0.00000  Uiso   1.00
C993   C     0.06711   0.83269   0.48811   0.00000  Uiso   1.00
C994   C     0.26610   0.83330   0.51174   0.00000  Uiso   1.00
C995   C     0.01239   0.82726   0.48214   0.00000  Uiso   1.00
C996   C     0.32048   0.83914   0.51708   0.00000  Uiso   1.00
C997   C     0.19728   0.68824   0.47210   0.00000  Uiso   1.00
C998   C     0.13725   0.97843   0.52818   0.00000  Uiso   1.00
C999   C     0.19832   0.97861   0.47248   0.00000  Uiso   1.00
C1000  C     0.13616   0.68801   0.52781   0.00000  Uiso   1.00
C1001  C     0.16817   0.95741   0.50059   0.00000  Uiso   1.00
C1002  C     0.16615   0.70924   0.49962   0.00000  Uiso   1.00
C1003  C     0.19269   0.86373   0.36125   0.00000  Uiso   1.00
C1004  C     0.13967   0.80359   0.63871   0.00000  Uiso   1.00
C1005  C     0.19310   0.86416   0.64594   0.00000  Uiso   1.00
C1006  C     0.14044   0.80274   0.35370   0.00000  Uiso   1.00
H1007  H     0.22100   0.70511   0.45093   0.00000  Uiso   1.00
H1008  H     0.11337   0.96162   0.54915   0.00000  Uiso   1.00
H1009  H     0.21287   0.88702   0.38399   0.00000  Uiso   1.00
H1010  H     0.11751   0.78051   0.61683   0.00000  Uiso   1.00
N1011  N     0.16665   0.83332   0.61907   0.00000  Uiso   1.00
N1012  N     0.16668   0.83334   0.38093   0.00000  Uiso   1.00
O1013  O     0.16666   0.77225   0.53821   0.00000  Uiso   1.00
O1014  O     0.16667   0.89442   0.46179   0.00000  Uiso   1.00
O1015  O     0.16666   0.77226   0.46176   0.00000  Uiso   1.00
O1016  O     0.16667   0.89441   0.53824   0.00000  Uiso   1.00
O1017  O     0.09058   0.83333   0.52928   0.00000  Uiso   1.00
O1018  O     0.24275   0.83334   0.47072   0.00000  Uiso   1.00
O1019  O     0.09058   0.83334   0.45284   0.00000  Uiso   1.00
O1020  O     0.24275   0.83333   0.54716   0.00000  Uiso   1.00
Zn1021 Zn    0.16667   0.83333   0.55104   0.00000  Uiso   1.00
Zn1022 Zn    0.16667   0.83334   0.44896   0.00000  Uiso   1.00
O1023  O     0.32290   0.79957   0.44801   0.00000  Uiso   1.00
C1024  C     0.31745   0.81849   0.40452   0.00000  Uiso   1.00
H1025  H     0.02224   0.82386   0.39276   0.00000  Uiso   1.00
H1026  H     0.29660   0.84886   0.40470   0.00000  Uiso   1.00
C1027  C     0.28667   0.78895   0.36969   0.00000  Uiso   1.00
H1028  H     0.24889   0.78061   0.38076   0.00000  Uiso   1.00
H1029  H     0.27944   0.80405   0.33569   0.00000  Uiso   1.00
H1030  H     0.30901   0.75974   0.36659   0.00000  Uiso   1.00
O1031  O     0.01169   0.85764   0.55748   0.00000  Uiso   1.00
C1032  C     0.00610   0.90153   0.55478   0.00000  Uiso   1.00
H1033  H     0.29765   0.91057   0.55201   0.00000  Uiso   1.00
H1034  H     0.02287   0.91395   0.52492   0.00000  Uiso   1.00
C1035  C     0.03540   0.92146   0.59818   0.00000  Uiso   1.00
H1036  H     0.07733   0.91306   0.60184   0.00000  Uiso   1.00
H1037  H     0.03171   0.95608   0.59662   0.00000  Uiso   1.00
H1038  H     0.01906   0.91010   0.62857   0.00000  Uiso   1.00
F1039  F     0.22922   0.95786   0.44639   0.00000  Uiso   1.00
F1040  F     0.10516   0.70866   0.55388   0.00000  Uiso   1.00
O1041  O     0.21993   0.89366   0.62349   0.00000  Uiso   1.00
C1042  C     0.23880   0.92951   0.64954   0.00000  Uiso   1.00
H1043  H     0.26445   0.94681   0.62912   0.00000  Uiso   1.00
H1044  H     0.26459   0.92150   0.34829   0.00000  Uiso   1.00
C1045  C     0.19494   0.95949   0.65746   0.00000  Uiso   1.00
H1046  H     0.16752   0.94497   0.34492   0.00000  Uiso   1.00
H1047  H     0.21191   0.98806   0.34245   0.00000  Uiso   1.00
H1048  H     0.17284   0.96885   0.62416   0.00000  Uiso   1.00
O1049  O     0.11171   0.77324   0.37368   0.00000  Uiso   1.00
C1050  C     0.12342   0.73177   0.36078   0.00000  Uiso   1.00
H1051  H     0.13529   0.71378   0.39241   0.00000  Uiso   1.00
H1052  H     0.15634   0.72911   0.34042   0.00000  Uiso   1.00
C1053  C     0.07490   0.71065   0.33489   0.00000  Uiso   1.00
H1054  H     0.05953   0.72878   0.63741   0.00000  Uiso   1.00
H1055  H     0.08466   0.67856   0.65739   0.00000  Uiso   1.00
H1056  H     0.04428   0.70833   0.35741   0.00000  Uiso   1.00
C1057  C     0.49954   0.75336   0.49975   0.00000  Uiso   1.00
C1058  C     0.50088   0.91330   0.50030   0.00000  Uiso   1.00
C1059  C     0.40044   0.83269   0.48811   0.00000  Uiso   1.00
C1060  C     0.59943   0.83330   0.51174   0.00000  Uiso   1.00
C1061  C     0.34573   0.82726   0.48214   0.00000  Uiso   1.00
C1062  C     0.65382   0.83914   0.51708   0.00000  Uiso   1.00
C1063  C     0.53061   0.68824   0.47210   0.00000  Uiso   1.00
C1064  C     0.47058   0.97843   0.52818   0.00000  Uiso   1.00
C1065  C     0.53165   0.97861   0.47248   0.00000  Uiso   1.00
C1066  C     0.46950   0.68801   0.52781   0.00000  Uiso   1.00
C1067  C     0.50151   0.95741   0.50059   0.00000  Uiso   1.00
C1068  C     0.49949   0.70924   0.49962   0.00000  Uiso   1.00
C1069  C     0.52603   0.86373   0.36125   0.00000  Uiso   1.00
C1070  C     0.47300   0.80359   0.63871   0.00000  Uiso   1.00
C1071  C     0.52644   0.86416   0.64594   0.00000  Uiso   1.00
C1072  C     0.47377   0.80274   0.35370   0.00000  Uiso   1.00
H1073  H     0.55434   0.70511   0.45093   0.00000  Uiso   1.00
H1074  H     0.44670   0.96162   0.54915   0.00000  Uiso   1.00
H1075  H     0.54621   0.88702   0.38399   0.00000  Uiso   1.00
H1076  H     0.45084   0.78051   0.61683   0.00000  Uiso   1.00
N1077  N     0.49999   0.83332   0.61907   0.00000  Uiso   1.00
N1078  N     0.50001   0.83334   0.38093   0.00000  Uiso   1.00
O1079  O     0.50000   0.77225   0.53821   0.00000  Uiso   1.00
O1080  O     0.50000   0.89442   0.46179   0.00000  Uiso   1.00
O1081  O     0.50000   0.77226   0.46176   0.00000  Uiso   1.00
O1082  O     0.50000   0.89441   0.53824   0.00000  Uiso   1.00
O1083  O     0.42392   0.83333   0.52928   0.00000  Uiso   1.00
O1084  O     0.57608   0.83334   0.47072   0.00000  Uiso   1.00
O1085  O     0.42392   0.83334   0.45284   0.00000  Uiso   1.00
O1086  O     0.57608   0.83333   0.54716   0.00000  Uiso   1.00
Zn1087 Zn    0.50000   0.83333   0.55104   0.00000  Uiso   1.00
Zn1088 Zn    0.50000   0.83334   0.44896   0.00000  Uiso   1.00
O1089  O     0.65623   0.79957   0.44801   0.00000  Uiso   1.00
C1090  C     0.65079   0.81849   0.40452   0.00000  Uiso   1.00
H1091  H     0.35558   0.82386   0.39276   0.00000  Uiso   1.00
H1092  H     0.62993   0.84886   0.40470   0.00000  Uiso   1.00
C1093  C     0.62000   0.78895   0.36969   0.00000  Uiso   1.00
H1094  H     0.58222   0.78061   0.38076   0.00000  Uiso   1.00
H1095  H     0.61278   0.80405   0.33569   0.00000  Uiso   1.00
H1096  H     0.64234   0.75974   0.36659   0.00000  Uiso   1.00
O1097  O     0.34502   0.85764   0.55748   0.00000  Uiso   1.00
C1098  C     0.33943   0.90153   0.55478   0.00000  Uiso   1.00
H1099  H     0.63098   0.91057   0.55201   0.00000  Uiso   1.00
H1100  H     0.35621   0.91395   0.52492   0.00000  Uiso   1.00
C1101  C     0.36873   0.92146   0.59818   0.00000  Uiso   1.00
H1102  H     0.41066   0.91306   0.60184   0.00000  Uiso   1.00
H1103  H     0.36504   0.95608   0.59662   0.00000  Uiso   1.00
H1104  H     0.35240   0.91010   0.62857   0.00000  Uiso   1.00
F1105  F     0.56256   0.95786   0.44639   0.00000  Uiso   1.00
F1106  F     0.43849   0.70866   0.55388   0.00000  Uiso   1.00
O1107  O     0.55326   0.89366   0.62349   0.00000  Uiso   1.00
C1108  C     0.57214   0.92951   0.64954   0.00000  Uiso   1.00
H1109  H     0.59779   0.94681   0.62912   0.00000  Uiso   1.00
H1110  H     0.59792   0.92150   0.34829   0.00000  Uiso   1.00
C1111  C     0.52828   0.95949   0.65746   0.00000  Uiso   1.00
H1112  H     0.50086   0.94497   0.34492   0.00000  Uiso   1.00
H1113  H     0.54524   0.98806   0.34245   0.00000  Uiso   1.00
H1114  H     0.50617   0.96885   0.62416   0.00000  Uiso   1.00
O1115  O     0.44504   0.77324   0.37368   0.00000  Uiso   1.00
C1116  C     0.45675   0.73177   0.36078   0.00000  Uiso   1.00
H1117  H     0.46862   0.71378   0.39241   0.00000  Uiso   1.00
H1118  H     0.48967   0.72911   0.34042   0.00000  Uiso   1.00
C1119  C     0.40824   0.71065   0.33489   0.00000  Uiso   1.00
H1120  H     0.39286   0.72878   0.63741   0.00000  Uiso   1.00
H1121  H     0.41799   0.67856   0.65739   0.00000  Uiso   1.00
H1122  H     0.37762   0.70833   0.35741   0.00000  Uiso   1.00
C1123  C     0.83287   0.75336   0.49975   0.00000  Uiso   1.00
C1124  C     0.83421   0.91330   0.50030   0.00000  Uiso   1.00
C1125  C     0.73378   0.83269   0.48811   0.00000  Uiso   1.00
C1126  C     0.93277   0.83330   0.51174   0.00000  Uiso   1.00
C1127  C     0.67906   0.82726   0.48214   0.00000  Uiso   1.00
C1128  C     0.98715   0.83914   0.51708   0.00000  Uiso   1.00
C1129  C     0.86395   0.68824   0.47210   0.00000  Uiso   1.00
C1130  C     0.80391   0.97843   0.52818   0.00000  Uiso   1.00
C1131  C     0.86498   0.97861   0.47248   0.00000  Uiso   1.00
C1132  C     0.80283   0.68801   0.52781   0.00000  Uiso   1.00
C1133  C     0.83484   0.95741   0.50059   0.00000  Uiso   1.00
C1134  C     0.83282   0.70924   0.49962   0.00000  Uiso   1.00
C1135  C     0.85936   0.86373   0.36125   0.00000  Uiso   1.00
C1136  C     0.80634   0.80359   0.63871   0.00000  Uiso   1.00
C1137  C     0.85977   0.86416   0.64594   0.00000  Uiso   1.00
C1138  C     0.80711   0.80274   0.35370   0.00000  Uiso   1.00
H1139  H     0.88767   0.70511   0.45093   0.00000  Uiso   1.00
H1140  H     0.78004   0.96162   0.54915   0.00000  Uiso   1.00
H1141  H     0.87954   0.88702   0.38399   0.00000  Uiso   1.00
H1142  H     0.78417   0.78051   0.61683   0.00000  Uiso   1.00
N1143  N     0.83332   0.83332   0.61907   0.00000  Uiso   1.00
N1144  N     0.83335   0.83334   0.38093   0.00000  Uiso   1.00
O1145  O     0.83333   0.77225   0.53821   0.00000  Uiso   1.00
O1146  O     0.83334   0.89442   0.46179   0.00000  Uiso   1.00
O1147  O     0.83333   0.77226   0.46176   0.00000  Uiso   1.00
O1148  O     0.83334   0.89441   0.53824   0.00000  Uiso   1.00
O1149  O     0.75725   0.83333   0.52928   0.00000  Uiso   1.00
O1150  O     0.90942   0.83334   0.47072   0.00000  Uiso   1.00
O1151  O     0.75725   0.83334   0.45284   0.00000  Uiso   1.00
O1152  O     0.90942   0.83333   0.54716   0.00000  Uiso   1.00
Zn1153 Zn    0.83333   0.83333   0.55104   0.00000  Uiso   1.00
Zn1154 Zn    0.83333   0.83334   0.44896   0.00000  Uiso   1.00
O1155  O     0.98956   0.79957   0.44801   0.00000  Uiso   1.00
C1156  C     0.98412   0.81849   0.40452   0.00000  Uiso   1.00
H1157  H     0.68891   0.82386   0.39276   0.00000  Uiso   1.00
H1158  H     0.96326   0.84886   0.40470   0.00000  Uiso   1.00
C1159  C     0.95334   0.78895   0.36969   0.00000  Uiso   1.00
H1160  H     0.91555   0.78061   0.38076   0.00000  Uiso   1.00
H1161  H     0.94611   0.80405   0.33569   0.00000  Uiso   1.00
H1162  H     0.97567   0.75974   0.36659   0.00000  Uiso   1.00
O1163  O     0.67835   0.85764   0.55748   0.00000  Uiso   1.00
C1164  C     0.67277   0.90153   0.55478   0.00000  Uiso   1.00
H1165  H     0.96431   0.91057   0.55201   0.00000  Uiso   1.00
H1166  H     0.68954   0.91395   0.52492   0.00000  Uiso   1.00
C1167  C     0.70206   0.92146   0.59818   0.00000  Uiso   1.00
H1168  H     0.74400   0.91306   0.60184   0.00000  Uiso   1.00
H1169  H     0.69838   0.95608   0.59662   0.00000  Uiso   1.00
H1170  H     0.68573   0.91010   0.62857   0.00000  Uiso   1.00
F1171  F     0.89589   0.95786   0.44639   0.00000  Uiso   1.00
F1172  F     0.77182   0.70866   0.55388   0.00000  Uiso   1.00
O1173  O     0.88659   0.89366   0.62349   0.00000  Uiso   1.00
C1174  C     0.90547   0.92951   0.64954   0.00000  Uiso   1.00
H1175  H     0.93112   0.94681   0.62912   0.00000  Uiso   1.00
H1176  H     0.93126   0.92150   0.34829   0.00000  Uiso   1.00
C1177  C     0.86161   0.95949   0.65746   0.00000  Uiso   1.00
H1178  H     0.83419   0.94497   0.34492   0.00000  Uiso   1.00
H1179  H     0.87858   0.98806   0.34245   0.00000  Uiso   1.00
H1180  H     0.83950   0.96885   0.62416   0.00000  Uiso   1.00
O1181  O     0.77838   0.77324   0.37368   0.00000  Uiso   1.00
C1182  C     0.79008   0.73177   0.36078   0.00000  Uiso   1.00
H1183  H     0.80196   0.71378   0.39241   0.00000  Uiso   1.00
H1184  H     0.82300   0.72911   0.34042   0.00000  Uiso   1.00
C1185  C     0.74157   0.71065   0.33489   0.00000  Uiso   1.00
H1186  H     0.72620   0.72878   0.63741   0.00000  Uiso   1.00
H1187  H     0.75133   0.67856   0.65739   0.00000  Uiso   1.00
H1188  H     0.71095   0.70833   0.35741   0.00000  Uiso   1.00
C1189  C     0.16621   0.08669   0.83308   0.00000  Uiso   1.00
C1190  C     0.16755   0.24663   0.83364   0.00000  Uiso   1.00
C1191  C     0.06711   0.16603   0.82145   0.00000  Uiso   1.00
C1192  C     0.26610   0.16664   0.84507   0.00000  Uiso   1.00
C1193  C     0.01239   0.16059   0.81547   0.00000  Uiso   1.00
C1194  C     0.32048   0.17248   0.85041   0.00000  Uiso   1.00
C1195  C     0.19728   0.02157   0.80544   0.00000  Uiso   1.00
C1196  C     0.13725   0.31177   0.86151   0.00000  Uiso   1.00
C1197  C     0.19832   0.31194   0.80581   0.00000  Uiso   1.00
C1198  C     0.13616   0.02134   0.86114   0.00000  Uiso   1.00
C1199  C     0.16817   0.29074   0.83392   0.00000  Uiso   1.00
C1200  C     0.16615   0.04257   0.83295   0.00000  Uiso   1.00
C1201  C     0.19269   0.19706   0.69458   0.00000  Uiso   1.00
C1202  C     0.13967   0.13693   0.97204   0.00000  Uiso   1.00
C1203  C     0.19310   0.19750   0.97928   0.00000  Uiso   1.00
C1204  C     0.14044   0.13607   0.68703   0.00000  Uiso   1.00
H1205  H     0.22100   0.03844   0.78426   0.00000  Uiso   1.00
H1206  H     0.11337   0.29496   0.88248   0.00000  Uiso   1.00
H1207  H     0.21287   0.22036   0.71732   0.00000  Uiso   1.00
H1208  H     0.11751   0.11385   0.95016   0.00000  Uiso   1.00
N1209  N     0.16665   0.16666   0.95240   0.00000  Uiso   1.00
N1210  N     0.16668   0.16668   0.71427   0.00000  Uiso   1.00
O1211  O     0.16666   0.10558   0.87154   0.00000  Uiso   1.00
O1212  O     0.16667   0.22775   0.79513   0.00000  Uiso   1.00
O1213  O     0.16666   0.10559   0.79510   0.00000  Uiso   1.00
O1214  O     0.16667   0.22774   0.87157   0.00000  Uiso   1.00
O1215  O     0.09058   0.16666   0.86261   0.00000  Uiso   1.00
O1216  O     0.24275   0.16667   0.80405   0.00000  Uiso   1.00
O1217  O     0.09058   0.16667   0.78617   0.00000  Uiso   1.00
O1218  O     0.24275   0.16666   0.88050   0.00000  Uiso   1.00
Zn1219 Zn    0.16667   0.16666   0.88437   0.00000  Uiso   1.00
Zn1220 Zn    0.16667   0.16667   0.78229   0.00000  Uiso   1.00
O1221  O     0.32290   0.13290   0.78134   0.00000  Uiso   1.00
C1222  C     0.31745   0.15183   0.73785   0.00000  Uiso   1.00
H1223  H     0.02224   0.15720   0.72609   0.00000  Uiso   1.00
H1224  H     0.29660   0.18219   0.73803   0.00000  Uiso   1.00
C1225  C     0.28667   0.12228   0.70302   0.00000  Uiso   1.00
H1226  H     0.24889   0.11395   0.71409   0.00000  Uiso   1.00
H1227  H     0.27944   0.13738   0.66902   0.00000  Uiso   1.00
H1228  H     0.30901   0.09308   0.69992   0.00000  Uiso   1.00
O1229  O     0.01169   0.19098   0.89081   0.00000  Uiso   1.00
C1230  C     0.00610   0.23486   0.88812   0.00000  Uiso   1.00
H1231  H     0.29765   0.24390   0.88534   0.00000  Uiso   1.00
H1232  H     0.02287   0.24728   0.85825   0.00000  Uiso   1.00
C1233  C     0.03540   0.25480   0.93151   0.00000  Uiso   1.00
H1234  H     0.07733   0.24640   0.93517   0.00000  Uiso   1.00
H1235  H     0.03171   0.28941   0.92995   0.00000  Uiso   1.00
H1236  H     0.01906   0.24343   0.96190   0.00000  Uiso   1.00
F1237  F     0.22922   0.29120   0.77973   0.00000  Uiso   1.00
F1238  F     0.10516   0.04199   0.88721   0.00000  Uiso   1.00
O1239  O     0.21993   0.22700   0.95682   0.00000  Uiso   1.00
C1240  C     0.23880   0.26284   0.98288   0.00000  Uiso   1.00
H1241  H     0.26445   0.28014   0.96245   0.00000  Uiso   1.00
H1242  H     0.26459   0.25484   0.68162   0.00000  Uiso   1.00
C1243  C     0.19494   0.29283   0.99079   0.00000  Uiso   1.00
H1244  H     0.16752   0.27830   0.67826   0.00000  Uiso   1.00
H1245  H     0.21191   0.32140   0.67578   0.00000  Uiso   1.00
H1246  H     0.17284   0.30219   0.95749   0.00000  Uiso   1.00
O1247  O     0.11171   0.10658   0.70701   0.00000  Uiso   1.00
C1248  C     0.12342   0.06511   0.69412   0.00000  Uiso   1.00
H1249  H     0.13529   0.04711   0.72574   0.00000  Uiso   1.00
H1250  H     0.15634   0.06244   0.67375   0.00000  Uiso   1.00
C1251  C     0.07490   0.04398   0.66823   0.00000  Uiso   1.00
H1252  H     0.05953   0.06211   0.97074   0.00000  Uiso   1.00
H1253  H     0.08466   0.01189   0.99072   0.00000  Uiso   1.00
H1254  H     0.04428   0.04167   0.69075   0.00000  Uiso   1.00
C1255  C     0.49954   0.08669   0.83308   0.00000  Uiso   1.00
C1256  C     0.50088   0.24663   0.83364   0.00000  Uiso   1.00
C1257  C     0.40044   0.16603   0.82145   0.00000  Uiso   1.00
C1258  C     0.59943   0.16664   0.84507   0.00000  Uiso   1.00
C1259  C     0.34573   0.16059   0.81547   0.00000  Uiso   1.00
C1260  C     0.65382   0.17248   0.85041   0.00000  Uiso   1.00
C1261  C     0.53061   0.02157   0.80544   0.00000  Uiso   1.00
C1262  C     0.47058   0.31177   0.86151   0.00000  Uiso   1.00
C1263  C     0.53165   0.31194   0.80581   0.00000  Uiso   1.00
C1264  C     0.46950   0.02134   0.86114   0.00000  Uiso   1.00
C1265  C     0.50151   0.29074   0.83392   0.00000  Uiso   1.00
C1266  C     0.49949   0.04257   0.83295   0.00000  Uiso   1.00
C1267  C     0.52603   0.19706   0.69458   0.00000  Uiso   1.00
C1268  C     0.47300   0.13693   0.97204   0.00000  Uiso   1.00
C1269  C     0.52644   0.19750   0.97928   0.00000  Uiso   1.00
C1270  C     0.47377   0.13607   0.68703   0.00000  Uiso   1.00
H1271  H     0.55434   0.03844   0.78426   0.00000  Uiso   1.00
H1272  H     0.44670   0.29496   0.88248   0.00000  Uiso   1.00
H1273  H     0.54621   0.22036   0.71732   0.00000  Uiso   1.00
H1274  H     0.45084   0.11385   0.95016   0.00000  Uiso   1.00
N1275  N     0.49999   0.16666   0.95240   0.00000  Uiso   1.00
N1276  N     0.50001   0.16668   0.71427   0.00000  Uiso   1.00
O1277  O     0.50000   0.10558   0.87154   0.00000  Uiso   1.00
O1278  O     0.50000   0.22775   0.79513   0.00000  Uiso   1.00
O1279  O     0.50000   0.10559   0.79510   0.00000  Uiso   1.00
O1280  O     0.50000   0.22774   0.87157   0.00000  Uiso   1.00
O1281  O     0.42392   0.16666   0.86261   0.00000  Uiso   1.00
O1282  O     0.57608   0.16667   0.80405   0.00000  Uiso   1.00
O1283  O     0.42392   0.16667   0.78617   0.00000  Uiso   1.00
O1284  O     0.57608   0.16666   0.88050   0.00000  Uiso   1.00
Zn1285 Zn    0.50000   0.16666   0.88437   0.00000  Uiso   1.00
Zn1286 Zn    0.50000   0.16667   0.78229   0.00000  Uiso   1.00
O1287  O     0.65623   0.13290   0.78134   0.00000  Uiso   1.00
C1288  C     0.65079   0.15183   0.73785   0.00000  Uiso   1.00
H1289  H     0.35558   0.15720   0.72609   0.00000  Uiso   1.00
H1290  H     0.62993   0.18219   0.73803   0.00000  Uiso   1.00
C1291  C     0.62000   0.12228   0.70302   0.00000  Uiso   1.00
H1292  H     0.58222   0.11395   0.71409   0.00000  Uiso   1.00
H1293  H     0.61278   0.13738   0.66902   0.00000  Uiso   1.00
H1294  H     0.64234   0.09308   0.69992   0.00000  Uiso   1.00
O1295  O     0.34502   0.19098   0.89081   0.00000  Uiso   1.00
C1296  C     0.33943   0.23486   0.88812   0.00000  Uiso   1.00
H1297  H     0.63098   0.24390   0.88534   0.00000  Uiso   1.00
H1298  H     0.35621   0.24728   0.85825   0.00000  Uiso   1.00
C1299  C     0.36873   0.25480   0.93151   0.00000  Uiso   1.00
H1300  H     0.41066   0.24640   0.93517   0.00000  Uiso   1.00
H1301  H     0.36504   0.28941   0.92995   0.00000  Uiso   1.00
H1302  H     0.35240   0.24343   0.96190   0.00000  Uiso   1.00
F1303  F     0.56256   0.29120   0.77973   0.00000  Uiso   1.00
F1304  F     0.43849   0.04199   0.88721   0.00000  Uiso   1.00
O1305  O     0.55326   0.22700   0.95682   0.00000  Uiso   1.00
C1306  C     0.57214   0.26284   0.98288   0.00000  Uiso   1.00
H1307  H     0.59779   0.28014   0.96245   0.00000  Uiso   1.00
H1308  H     0.59792   0.25484   0.68162   0.00000  Uiso   1.00
C1309  C     0.52828   0.29283   0.99079   0.00000  Uiso   1.00
H1310  H     0.50086   0.27830   0.67826   0.00000  Uiso   1.00
H1311  H     0.54524   0.32140   0.67578   0.00000  Uiso   1.00
H1312  H     0.50617   0.30219   0.95749   0.00000  Uiso   1.00
O1313  O     0.44504   0.10658   0.70701   0.00000  Uiso   1.00
C1314  C     0.45675   0.06511   0.69412   0.00000  Uiso   1.00
H1315  H     0.46862   0.04711   0.72574   0.00000  Uiso   1.00
H1316  H     0.48967   0.06244   0.67375   0.00000  Uiso   1.00
C1317  C     0.40824   0.04398   0.66823   0.00000  Uiso   1.00
H1318  H     0.39286   0.06211   0.97074   0.00000  Uiso   1.00
H1319  H     0.41799   0.01189   0.99072   0.00000  Uiso   1.00
H1320  H     0.37762   0.04167   0.69075   0.00000  Uiso   1.00
C1321  C     0.83287   0.08669   0.83308   0.00000  Uiso   1.00
C1322  C     0.83421   0.24663   0.83364   0.00000  Uiso   1.00
C1323  C     0.73378   0.16603   0.82145   0.00000  Uiso   1.00
C1324  C     0.93277   0.16664   0.84507   0.00000  Uiso   1.00
C1325  C     0.67906   0.16059   0.81547   0.00000  Uiso   1.00
C1326  C     0.98715   0.17248   0.85041   0.00000  Uiso   1.00
C1327  C     0.86395   0.02157   0.80544   0.00000  Uiso   1.00
C1328  C     0.80391   0.31177   0.86151   0.00000  Uiso   1.00
C1329  C     0.86498   0.31194   0.80581   0.00000  Uiso   1.00
C1330  C     0.80283   0.02134   0.86114   0.00000  Uiso   1.00
C1331  C     0.83484   0.29074   0.83392   0.00000  Uiso   1.00
C1332  C     0.83282   0.04257   0.83295   0.00000  Uiso   1.00
C1333  C     0.85936   0.19706   0.69458   0.00000  Uiso   1.00
C1334  C     0.80634   0.13693   0.97204   0.00000  Uiso   1.00
C1335  C     0.85977   0.19750   0.97928   0.00000  Uiso   1.00
C1336  C     0.80711   0.13607   0.68703   0.00000  Uiso   1.00
H1337  H     0.88767   0.03844   0.78426   0.00000  Uiso   1.00
H1338  H     0.78004   0.29496   0.88248   0.00000  Uiso   1.00
H1339  H     0.87954   0.22036   0.71732   0.00000  Uiso   1.00
H1340  H     0.78417   0.11385   0.95016   0.00000  Uiso   1.00
N1341  N     0.83332   0.16666   0.95240   0.00000  Uiso   1.00
N1342  N     0.83335   0.16668   0.71427   0.00000  Uiso   1.00
O1343  O     0.83333   0.10558   0.87154   0.00000  Uiso   1.00
O1344  O     0.83334   0.22775   0.79513   0.00000  Uiso   1.00
O1345  O     0.83333   0.10559   0.79510   0.00000  Uiso   1.00
O1346  O     0.83334   0.22774   0.87157   0.00000  Uiso   1.00
O1347  O     0.75725   0.16666   0.86261   0.00000  Uiso   1.00
O1348  O     0.90942   0.16667   0.80405   0.00000  Uiso   1.00
O1349  O     0.75725   0.16667   0.78617   0.00000  Uiso   1.00
O1350  O     0.90942   0.16666   0.88050   0.00000  Uiso   1.00
Zn1351 Zn    0.83333   0.16666   0.88437   0.00000  Uiso   1.00
Zn1352 Zn    0.83333   0.16667   0.78229   0.00000  Uiso   1.00
O1353  O     0.98956   0.13290   0.78134   0.00000  Uiso   1.00
C1354  C     0.98412   0.15183   0.73785   0.00000  Uiso   1.00
H1355  H     0.68891   0.15720   0.72609   0.00000  Uiso   1.00
H1356  H     0.96326   0.18219   0.73803   0.00000  Uiso   1.00
C1357  C     0.95334   0.12228   0.70302   0.00000  Uiso   1.00
H1358  H     0.91555   0.11395   0.71409   0.00000  Uiso   1.00
H1359  H     0.94611   0.13738   0.66902   0.00000  Uiso   1.00
H1360  H     0.97567   0.09308   0.69992   0.00000  Uiso   1.00
O1361  O     0.67835   0.19098   0.89081   0.00000  Uiso   1.00
C1362  C     0.67277   0.23486   0.88812   0.00000  Uiso   1.00
H1363  H     0.96431   0.24390   0.88534   0.00000  Uiso   1.00
H1364  H     0.68954   0.24728   0.85825   0.00000  Uiso   1.00
C1365  C     0.70206   0.25480   0.93151   0.00000  Uiso   1.00
H1366  H     0.74400   0.24640   0.93517   0.00000  Uiso   1.00
H1367  H     0.69838   0.28941   0.92995   0.00000  Uiso   1.00
H1368  H     0.68573   0.24343   0.96190   0.00000  Uiso   1.00
F1369  F     0.89589   0.29120   0.77973   0.00000  Uiso   1.00
F1370  F     0.77182   0.04199   0.88721   0.00000  Uiso   1.00
O1371  O     0.88659   0.22700   0.95682   0.00000  Uiso   1.00
C1372  C     0.90547   0.26284   0.98288   0.00000  Uiso   1.00
H1373  H     0.93112   0.28014   0.96245   0.00000  Uiso   1.00
H1374  H     0.93126   0.25484   0.68162   0.00000  Uiso   1.00
C1375  C     0.86161   0.29283   0.99079   0.00000  Uiso   1.00
H1376  H     0.83419   0.27830   0.67826   0.00000  Uiso   1.00
H1377  H     0.87858   0.32140   0.67578   0.00000  Uiso   1.00
H1378  H     0.83950   0.30219   0.95749   0.00000  Uiso   1.00
O1379  O     0.77838   0.10658   0.70701   0.00000  Uiso   1.00
C1380  C     0.79008   0.06511   0.69412   0.00000  Uiso   1.00
H1381  H     0.80196   0.04711   0.72574   0.00000  Uiso   1.00
H1382  H     0.82300   0.06244   0.67375   0.00000  Uiso   1.00
C1383  C     0.74157   0.04398   0.66823   0.00000  Uiso   1.00
H1384  H     0.72620   0.06211   0.97074   0.00000  Uiso   1.00
H1385  H     0.75133   0.01189   0.99072   0.00000  Uiso   1.00
H1386  H     0.71095   0.04167   0.69075   0.00000  Uiso   1.00
C1387  C     0.16621   0.42002   0.83308   0.00000  Uiso   1.00
C1388  C     0.16755   0.57997   0.83364   0.00000  Uiso   1.00
C1389  C     0.06711   0.49936   0.82145   0.00000  Uiso   1.00
C1390  C     0.26610   0.49997   0.84507   0.00000  Uiso   1.00
C1391  C     0.01239   0.49392   0.81547   0.00000  Uiso   1.00
C1392  C     0.32048   0.50581   0.85041   0.00000  Uiso   1.00
C1393  C     0.19728   0.35491   0.80544   0.00000  Uiso   1.00
C1394  C     0.13725   0.64510   0.86151   0.00000  Uiso   1.00
C1395  C     0.19832   0.64528   0.80581   0.00000  Uiso   1.00
C1396  C     0.13616   0.35467   0.86114   0.00000  Uiso   1.00
C1397  C     0.16817   0.62407   0.83392   0.00000  Uiso   1.00
C1398  C     0.16615   0.37591   0.83295   0.00000  Uiso   1.00
C1399  C     0.19269   0.53040   0.69458   0.00000  Uiso   1.00
C1400  C     0.13967   0.47026   0.97204   0.00000  Uiso   1.00
C1401  C     0.19310   0.53083   0.97928   0.00000  Uiso   1.00
C1402  C     0.14044   0.46941   0.68703   0.00000  Uiso   1.00
H1403  H     0.22100   0.37177   0.78426   0.00000  Uiso   1.00
H1404  H     0.11337   0.62829   0.88248   0.00000  Uiso   1.00
H1405  H     0.21287   0.55369   0.71732   0.00000  Uiso   1.00
H1406  H     0.11751   0.44718   0.95016   0.00000  Uiso   1.00
N1407  N     0.16665   0.49999   0.95240   0.00000  Uiso   1.00
N1408  N     0.16668   0.50001   0.71427   0.00000  Uiso   1.00
O1409  O     0.16666   0.43892   0.87154   0.00000  Uiso   1.00
O1410  O     0.16667   0.56108   0.79513   0.00000  Uiso   1.00
O1411  O     0.16666   0.43893   0.79510   0.00000  Uiso   1.00
O1412  O     0.16667   0.56107   0.87157   0.00000  Uiso   1.00
O1413  O     0.09058   0.50000   0.86261   0.00000  Uiso   1.00
O1414  O     0.24275   0.50000   0.80405   0.00000  Uiso   1.00
O1415  O     0.09058   0.50000   0.78617   0.00000  Uiso   1.00
O1416  O     0.24275   0.50000   0.88050   0.00000  Uiso   1.00
Zn1417 Zn    0.16667   0.49999   0.88437   0.00000  Uiso   1.00
Zn1418 Zn    0.16667   0.50001   0.78229   0.00000  Uiso   1.00
O1419  O     0.32290   0.46623   0.78134   0.00000  Uiso   1.00
C1420  C     0.31745   0.48516   0.73785   0.00000  Uiso   1.00
H1421  H     0.02224   0.49053   0.72609   0.00000  Uiso   1.00
H1422  H     0.29660   0.51552   0.73803   0.00000  Uiso   1.00
C1423  C     0.28667   0.45561   0.70302   0.00000  Uiso   1.00
H1424  H     0.24889   0.44728   0.71409   0.00000  Uiso   1.00
H1425  H     0.27944   0.47071   0.66902   0.00000  Uiso   1.00
H1426  H     0.30901   0.42641   0.69992   0.00000  Uiso   1.00
O1427  O     0.01169   0.52431   0.89081   0.00000  Uiso   1.00
C1428  C     0.00610   0.56820   0.88812   0.00000  Uiso   1.00
H1429  H     0.29765   0.57724   0.88534   0.00000  Uiso   1.00
H1430  H     0.02287   0.58062   0.85825   0.00000  Uiso   1.00
C1431  C     0.03540   0.58813   0.93151   0.00000  Uiso   1.00
H1432  H     0.07733   0.57973   0.93517   0.00000  Uiso   1.00
H1433  H     0.03171   0.62275   0.92995   0.00000  Uiso   1.00
H1434  H     0.01906   0.57677   0.96190   0.00000  Uiso   1.00
F1435  F     0.22922   0.62453   0.77973   0.00000  Uiso   1.00
F1436  F     0.10516   0.37533   0.88721   0.00000  Uiso   1.00
O1437  O     0.21993   0.56033   0.95682   0.00000  Uiso   1.00
C1438  C     0.23880   0.59617   0.98288   0.00000  Uiso   1.00
H1439  H     0.26445   0.61347   0.96245   0.00000  Uiso   1.00
H1440  H     0.26459   0.58817   0.68162   0.00000  Uiso   1.00
C1441  C     0.19494   0.62616   0.99079   0.00000  Uiso   1.00
H1442  H     0.16752   0.61164   0.67826   0.00000  Uiso   1.00
H1443  H     0.21191   0.65473   0.67578   0.00000  Uiso   1.00
H1444  H     0.17284   0.63552   0.95749   0.00000  Uiso   1.00
O1445  O     0.11171   0.43991   0.70701   0.00000  Uiso   1.00
C1446  C     0.12342   0.39844   0.69412   0.00000  Uiso   1.00
H1447  H     0.13529   0.38045   0.72574   0.00000  Uiso   1.00
H1448  H     0.15634   0.39577   0.67375   0.00000  Uiso   1.00
C1449  C     0.07490   0.37732   0.66823   0.00000  Uiso   1.00
H1450  H     0.05953   0.39544   0.97074   0.00000  Uiso   1.00
H1451  H     0.08466   0.34523   0.99072   0.00000  Uiso   1.00
H1452  H     0.04428   0.37500   0.69075   0.00000  Uiso   1.00
C1453  C     0.49954   0.42002   0.83308   0.00000  Uiso   1.00
C1454  C     0.50088   0.57997   0.83364   0.00000  Uiso   1.00
C1455  C     0.40044   0.49936   0.82145   0.00000  Uiso   1.00
C1456  C     0.59943   0.49997   0.84507   0.00000  Uiso   1.00
C1457  C     0.34573   0.49392   0.81547   0.00000  Uiso   1.00
C1458  C     0.65382   0.50581   0.85041   0.00000  Uiso   1.00
C1459  C     0.53061   0.35491   0.80544   0.00000  Uiso   1.00
C1460  C     0.47058   0.64510   0.86151   0.00000  Uiso   1.00
C1461  C     0.53165   0.64528   0.80581   0.00000  Uiso   1.00
C1462  C     0.46950   0.35467   0.86114   0.00000  Uiso   1.00
C1463  C     0.50151   0.62407   0.83392   0.00000  Uiso   1.00
C1464  C     0.49949   0.37591   0.83295   0.00000  Uiso   1.00
C1465  C     0.52603   0.53040   0.69458   0.00000  Uiso   1.00
C1466  C     0.47300   0.47026   0.97204   0.00000  Uiso   1.00
C1467  C     0.52644   0.53083   0.97928   0.00000  Uiso   1.00
C1468  C     0.47377   0.46941   0.68703   0.00000  Uiso   1.00
H1469  H     0.55434   0.37177   0.78426   0.00000  Uiso   1.00
H1470  H     0.44670   0.62829   0.88248   0.00000  Uiso   1.00
H1471  H     0.54621   0.55369   0.71732   0.00000  Uiso   1.00
H1472  H     0.45084   0.44718   0.95016   0.00000  Uiso   1.00
N1473  N     0.49999   0.49999   0.95240   0.00000  Uiso   1.00
N1474  N     0.50001   0.50001   0.71427   0.00000  Uiso   1.00
O1475  O     0.50000   0.43892   0.87154   0.00000  Uiso   1.00
O1476  O     0.50000   0.56108   0.79513   0.00000  Uiso   1.00
O1477  O     0.50000   0.43893   0.79510   0.00000  Uiso   1.00
O1478  O     0.50000   0.56107   0.87157   0.00000  Uiso   1.00
O1479  O     0.42392   0.50000   0.86261   0.00000  Uiso   1.00
O1480  O     0.57608   0.50000   0.80405   0.00000  Uiso   1.00
O1481  O     0.42392   0.50000   0.78617   0.00000  Uiso   1.00
O1482  O     0.57608   0.50000   0.88050   0.00000  Uiso   1.00
Zn1483 Zn    0.50000   0.49999   0.88437   0.00000  Uiso   1.00
Zn1484 Zn    0.50000   0.50001   0.78229   0.00000  Uiso   1.00
O1485  O     0.65623   0.46623   0.78134   0.00000  Uiso   1.00
C1486  C     0.65079   0.48516   0.73785   0.00000  Uiso   1.00
H1487  H     0.35558   0.49053   0.72609   0.00000  Uiso   1.00
H1488  H     0.62993   0.51552   0.73803   0.00000  Uiso   1.00
C1489  C     0.62000   0.45561   0.70302   0.00000  Uiso   1.00
H1490  H     0.58222   0.44728   0.71409   0.00000  Uiso   1.00
H1491  H     0.61278   0.47071   0.66902   0.00000  Uiso   1.00
H1492  H     0.64234   0.42641   0.69992   0.00000  Uiso   1.00
O1493  O     0.34502   0.52431   0.89081   0.00000  Uiso   1.00
C1494  C     0.33943   0.56820   0.88812   0.00000  Uiso   1.00
H1495  H     0.63098   0.57724   0.88534   0.00000  Uiso   1.00
H1496  H     0.35621   0.58062   0.85825   0.00000  Uiso   1.00
C1497  C     0.36873   0.58813   0.93151   0.00000  Uiso   1.00
H1498  H     0.41066   0.57973   0.93517   0.00000  Uiso   1.00
H1499  H     0.36504   0.62275   0.92995   0.00000  Uiso   1.00
H1500  H     0.35240   0.57677   0.96190   0.00000  Uiso   1.00
F1501  F     0.56256   0.62453   0.77973   0.00000  Uiso   1.00
F1502  F     0.43849   0.37533   0.88721   0.00000  Uiso   1.00
O1503  O     0.55326   0.56033   0.95682   0.00000  Uiso   1.00
C1504  C     0.57214   0.59617   0.98288   0.00000  Uiso   1.00
H1505  H     0.59779   0.61347   0.96245   0.00000  Uiso   1.00
H1506  H     0.59792   0.58817   0.68162   0.00000  Uiso   1.00
C1507  C     0.52828   0.62616   0.99079   0.00000  Uiso   1.00
H1508  H     0.50086   0.61164   0.67826   0.00000  Uiso   1.00
H1509  H     0.54524   0.65473   0.67578   0.00000  Uiso   1.00
H1510  H     0.50617   0.63552   0.95749   0.00000  Uiso   1.00
O1511  O     0.44504   0.43991   0.70701   0.00000  Uiso   1.00
C1512  C     0.45675   0.39844   0.69412   0.00000  Uiso   1.00
H1513  H     0.46862   0.38045   0.72574   0.00000  Uiso   1.00
H1514  H     0.48967   0.39577   0.67375   0.00000  Uiso   1.00
C1515  C     0.40824   0.37732   0.66823   0.00000  Uiso   1.00
H1516  H     0.39286   0.39544   0.97074   0.00000  Uiso   1.00
H1517  H     0.41799   0.34523   0.99072   0.00000  Uiso   1.00
H1518  H     0.37762   0.37500   0.69075   0.00000  Uiso   1.00
C1519  C     0.83287   0.42002   0.83308   0.00000  Uiso   1.00
C1520  C     0.83421   0.57997   0.83364   0.00000  Uiso   1.00
C1521  C     0.73378   0.49936   0.82145   0.00000  Uiso   1.00
C1522  C     0.93277   0.49997   0.84507   0.00000  Uiso   1.00
C1523  C     0.67906   0.49392   0.81547   0.00000  Uiso   1.00
C1524  C     0.98715   0.50581   0.85041   0.00000  Uiso   1.00
C1525  C     0.86395   0.35491   0.80544   0.00000  Uiso   1.00
C1526  C     0.80391   0.64510   0.86151   0.00000  Uiso   1.00
C1527  C     0.86498   0.64528   0.80581   0.00000  Uiso   1.00
C1528  C     0.80283   0.35467   0.86114   0.00000  Uiso   1.00
C1529  C     0.83484   0.62407   0.83392   0.00000  Uiso   1.00
C1530  C     0.83282   0.37591   0.83295   0.00000  Uiso   1.00
C1531  C     0.85936   0.53040   0.69458   0.00000  Uiso   1.00
C1532  C     0.80634   0.47026   0.97204   0.00000  Uiso   1.00
C1533  C     0.85977   0.53083   0.97928   0.00000  Uiso   1.00
C1534  C     0.80711   0.46941   0.68703   0.00000  Uiso   1.00
H1535  H     0.88767   0.37177   0.78426   0.00000  Uiso   1.00
H1536  H     0.78004   0.62829   0.88248   0.00000  Uiso   1.00
H1537  H     0.87954   0.55369   0.71732   0.00000  Uiso   1.00
H1538  H     0.78417   0.44718   0.95016   0.00000  Uiso   1.00
N1539  N     0.83332   0.49999   0.95240   0.00000  Uiso   1.00
N1540  N     0.83335   0.50001   0.71427   0.00000  Uiso   1.00
O1541  O     0.83333   0.43892   0.87154   0.00000  Uiso   1.00
O1542  O     0.83334   0.56108   0.79513   0.00000  Uiso   1.00
O1543  O     0.83333   0.43893   0.79510   0.00000  Uiso   1.00
O1544  O     0.83334   0.56107   0.87157   0.00000  Uiso   1.00
O1545  O     0.75725   0.50000   0.86261   0.00000  Uiso   1.00
O1546  O     0.90942   0.50000   0.80405   0.00000  Uiso   1.00
O1547  O     0.75725   0.50000   0.78617   0.00000  Uiso   1.00
O1548  O     0.90942   0.50000   0.88050   0.00000  Uiso   1.00
Zn1549 Zn    0.83333   0.49999   0.88437   0.00000  Uiso   1.00
Zn1550 Zn    0.83333   0.50001   0.78229   0.00000  Uiso   1.00
O1551  O     0.98956   0.46623   0.78134   0.00000  Uiso   1.00
C1552  C     0.98412   0.48516   0.73785   0.00000  Uiso   1.00
H1553  H     0.68891   0.49053   0.72609   0.00000  Uiso   1.00
H1554  H     0.96326   0.51552   0.73803   0.00000  Uiso   1.00
C1555  C     0.95334   0.45561   0.70302   0.00000  Uiso   1.00
H1556  H     0.91555   0.44728   0.71409   0.00000  Uiso   1.00
H1557  H     0.94611   0.47071   0.66902   0.00000  Uiso   1.00
H1558  H     0.97567   0.42641   0.69992   0.00000  Uiso   1.00
O1559  O     0.67835   0.52431   0.89081   0.00000  Uiso   1.00
C1560  C     0.67277   0.56820   0.88812   0.00000  Uiso   1.00
H1561  H     0.96431   0.57724   0.88534   0.00000  Uiso   1.00
H1562  H     0.68954   0.58062   0.85825   0.00000  Uiso   1.00
C1563  C     0.70206   0.58813   0.93151   0.00000  Uiso   1.00
H1564  H     0.74400   0.57973   0.93517   0.00000  Uiso   1.00
H1565  H     0.69838   0.62275   0.92995   0.00000  Uiso   1.00
H1566  H     0.68573   0.57677   0.96190   0.00000  Uiso   1.00
F1567  F     0.89589   0.62453   0.77973   0.00000  Uiso   1.00
F1568  F     0.77182   0.37533   0.88721   0.00000  Uiso   1.00
O1569  O     0.88659   0.56033   0.95682   0.00000  Uiso   1.00
C1570  C     0.90547   0.59617   0.98288   0.00000  Uiso   1.00
H1571  H     0.93112   0.61347   0.96245   0.00000  Uiso   1.00
H1572  H     0.93126   0.58817   0.68162   0.00000  Uiso   1.00
C1573  C     0.86161   0.62616   0.99079   0.00000  Uiso   1.00
H1574  H     0.83419   0.61164   0.67826   0.00000  Uiso   1.00
H1575  H     0.87858   0.65473   0.67578   0.00000  Uiso   1.00
H1576  H     0.83950   0.63552   0.95749   0.00000  Uiso   1.00
O1577  O     0.77838   0.43991   0.70701   0.00000  Uiso   1.00
C1578  C     0.79008   0.39844   0.69412   0.00000  Uiso   1.00
H1579  H     0.80196   0.38045   0.72574   0.00000  Uiso   1.00
H1580  H     0.82300   0.39577   0.67375   0.00000  Uiso   1.00
C1581  C     0.74157   0.37732   0.66823   0.00000  Uiso   1.00
H1582  H     0.72620   0.39544   0.97074   0.00000  Uiso   1.00
H1583  H     0.75133   0.34523   0.99072   0.00000  Uiso   1.00
H1584  H     0.71095   0.37500   0.69075   0.00000  Uiso   1.00
C1585  C     0.16621   0.75336   0.83308   0.00000  Uiso   1.00
C1586  C     0.16755   0.91330   0.83364   0.00000  Uiso   1.00
C1587  C     0.06711   0.83269   0.82145   0.00000  Uiso   1.00
C1588  C     0.26610   0.83330   0.84507   0.00000  Uiso   1.00
C1589  C     0.01239   0.82726   0.81547   0.00000  Uiso   1.00
C1590  C     0.32048   0.83914   0.85041   0.00000  Uiso   1.00
C1591  C     0.19728   0.68824   0.80544   0.00000  Uiso   1.00
C1592  C     0.13725   0.97843   0.86151   0.00000  Uiso   1.00
C1593  C     0.19832   0.97861   0.80581   0.00000  Uiso   1.00
C1594  C     0.13616   0.68801   0.86114   0.00000  Uiso   1.00
C1595  C     0.16817   0.95741   0.83392   0.00000  Uiso   1.00
C1596  C     0.16615   0.70924   0.83295   0.00000  Uiso   1.00
C1597  C     0.19269   0.86373   0.69458   0.00000  Uiso   1.00
C1598  C     0.13967   0.80359   0.97204   0.00000  Uiso   1.00
C1599  C     0.19310   0.86416   0.97928   0.00000  Uiso   1.00
C1600  C     0.14044   0.80274   0.68703   0.00000  Uiso   1.00
H1601  H     0.22100   0.70511   0.78426   0.00000  Uiso   1.00
H1602  H     0.11337   0.96162   0.88248   0.00000  Uiso   1.00
H1603  H     0.21287   0.88702   0.71732   0.00000  Uiso   1.00
H1604  H     0.11751   0.78051   0.95016   0.00000  Uiso   1.00
N1605  N     0.16665   0.83332   0.95240   0.00000  Uiso   1.00
N1606  N     0.16668   0.83334   0.71427   0.00000  Uiso   1.00
O1607  O     0.16666   0.77225   0.87154   0.00000  Uiso   1.00
O1608  O     0.16667   0.89442   0.79513   0.00000  Uiso   1.00
O1609  O     0.16666   0.77226   0.79510   0.00000  Uiso   1.00
O1610  O     0.16667   0.89441   0.87157   0.00000  Uiso   1.00
O1611  O     0.09058   0.83333   0.86261   0.00000  Uiso   1.00
O1612  O     0.24275   0.83334   0.80405   0.00000  Uiso   1.00
O1613  O     0.09058   0.83334   0.78617   0.00000  Uiso   1.00
O1614  O     0.24275   0.83333   0.88050   0.00000  Uiso   1.00
Zn1615 Zn    0.16667   0.83333   0.88437   0.00000  Uiso   1.00
Zn1616 Zn    0.16667   0.83334   0.78229   0.00000  Uiso   1.00
O1617  O     0.32290   0.79957   0.78134   0.00000  Uiso   1.00
C1618  C     0.31745   0.81849   0.73785   0.00000  Uiso   1.00
H1619  H     0.02224   0.82386   0.72609   0.00000  Uiso   1.00
H1620  H     0.29660   0.84886   0.73803   0.00000  Uiso   1.00
C1621  C     0.28667   0.78895   0.70302   0.00000  Uiso   1.00
H1622  H     0.24889   0.78061   0.71409   0.00000  Uiso   1.00
H1623  H     0.27944   0.80405   0.66902   0.00000  Uiso   1.00
H1624  H     0.30901   0.75974   0.69992   0.00000  Uiso   1.00
O1625  O     0.01169   0.85764   0.89081   0.00000  Uiso   1.00
C1626  C     0.00610   0.90153   0.88812   0.00000  Uiso   1.00
H1627  H     0.29765   0.91057   0.88534   0.00000  Uiso   1.00
H1628  H     0.02287   0.91395   0.85825   0.00000  Uiso   1.00
C1629  C     0.03540   0.92146   0.93151   0.00000  Uiso   1.00
H1630  H     0.07733   0.91306   0.93517   0.00000  Uiso   1.00
H1631  H     0.03171   0.95608   0.92995   0.00000  Uiso   1.00
H1632  H     0.01906   0.91010   0.96190   0.00000  Uiso   1.00
F1633  F     0.22922   0.95786   0.77973   0.00000  Uiso   1.00
F1634  F     0.10516   0.70866   0.88721   0.00000  Uiso   1.00
O1635  O     0.21993   0.89366   0.95682   0.00000  Uiso   1.00
C1636  C     0.23880   0.92951   0.98288   0.00000  Uiso   1.00
H1637  H     0.26445   0.94681   0.96245   0.00000  Uiso   1.00
H1638  H     0.26459   0.92150   0.68162   0.00000  Uiso   1.00
C1639  C     0.19494   0.95949   0.99079   0.00000  Uiso   1.00
H1640  H     0.16752   0.94497   0.67826   0.00000  Uiso   1.00
H1641  H     0.21191   0.98806   0.67578   0.00000  Uiso   1.00
H1642  H     0.17284   0.96885   0.95749   0.00000  Uiso   1.00
O1643  O     0.11171   0.77324   0.70701   0.00000  Uiso   1.00
C1644  C     0.12342   0.73177   0.69412   0.00000  Uiso   1.00
H1645  H     0.13529   0.71378   0.72574   0.00000  Uiso   1.00
H1646  H     0.15634   0.72911   0.67375   0.00000  Uiso   1.00
C1647  C     0.07490   0.71065   0.66823   0.00000  Uiso   1.00
H1648  H     0.05953   0.72878   0.97074   0.00000  Uiso   1.00
H1649  H     0.08466   0.67856   0.99072   0.00000  Uiso   1.00
H1650  H     0.04428   0.70833   0.69075   0.00000  Uiso   1.00
C1651  C     0.49954   0.75336   0.83308   0.00000  Uiso   1.00
C1652  C     0.50088   0.91330   0.83364   0.00000  Uiso   1.00
C1653  C     0.40044   0.83269   0.82145   0.00000  Uiso   1.00
C1654  C     0.59943   0.83330   0.84507   0.00000  Uiso   1.00
C1655  C     0.34573   0.82726   0.81547   0.00000  Uiso   1.00
C1656  C     0.65382   0.83914   0.85041   0.00000  Uiso   1.00
C1657  C     0.53061   0.68824   0.80544   0.00000  Uiso   1.00
C1658  C     0.47058   0.97843   0.86151   0.00000  Uiso   1.00
C1659  C     0.53165   0.97861   0.80581   0.00000  Uiso   1.00
C1660  C     0.46950   0.68801   0.86114   0.00000  Uiso   1.00
C1661  C     0.50151   0.95741   0.83392   0.00000  Uiso   1.00
C1662  C     0.49949   0.70924   0.83295   0.00000  Uiso   1.00
C1663  C     0.52603   0.86373   0.69458   0.00000  Uiso   1.00
C1664  C     0.47300   0.80359   0.97204   0.00000  Uiso   1.00
C1665  C     0.52644   0.86416   0.97928   0.00000  Uiso   1.00
C1666  C     0.47377   0.80274   0.68703   0.00000  Uiso   1.00
H1667  H     0.55434   0.70511   0.78426   0.00000  Uiso   1.00
H1668  H     0.44670   0.96162   0.88248   0.00000  Uiso   1.00
H1669  H     0.54621   0.88702   0.71732   0.00000  Uiso   1.00
H1670  H     0.45084   0.78051   0.95016   0.00000  Uiso   1.00
N1671  N     0.49999   0.83332   0.95240   0.00000  Uiso   1.00
N1672  N     0.50001   0.83334   0.71427   0.00000  Uiso   1.00
O1673  O     0.50000   0.77225   0.87154   0.00000  Uiso   1.00
O1674  O     0.50000   0.89442   0.79513   0.00000  Uiso   1.00
O1675  O     0.50000   0.77226   0.79510   0.00000  Uiso   1.00
O1676  O     0.50000   0.89441   0.87157   0.00000  Uiso   1.00
O1677  O     0.42392   0.83333   0.86261   0.00000  Uiso   1.00
O1678  O     0.57608   0.83334   0.80405   0.00000  Uiso   1.00
O1679  O     0.42392   0.83334   0.78617   0.00000  Uiso   1.00
O1680  O     0.57608   0.83333   0.88050   0.00000  Uiso   1.00
Zn1681 Zn    0.50000   0.83333   0.88437   0.00000  Uiso   1.00
Zn1682 Zn    0.50000   0.83334   0.78229   0.00000  Uiso   1.00
O1683  O     0.65623   0.79957   0.78134   0.00000  Uiso   1.00
C1684  C     0.65079   0.81849   0.73785   0.00000  Uiso   1.00
H1685  H     0.35558   0.82386   0.72609   0.00000  Uiso   1.00
H1686  H     0.62993   0.84886   0.73803   0.00000  Uiso   1.00
C1687  C     0.62000   0.78895   0.70302   0.00000  Uiso   1.00
H1688  H     0.58222   0.78061   0.71409   0.00000  Uiso   1.00
H1689  H     0.61278   0.80405   0.66902   0.00000  Uiso   1.00
H1690  H     0.64234   0.75974   0.69992   0.00000  Uiso   1.00
O1691  O     0.34502   0.85764   0.89081   0.00000  Uiso   1.00
C1692  C     0.33943   0.90153   0.88812   0.00000  Uiso   1.00
H1693  H     0.63098   0.91057   0.88534   0.00000  Uiso   1.00
H1694  H     0.35621   0.91395   0.85825   0.00000  Uiso   1.00
C1695  C     0.36873   0.92146   0.93151   0.00000  Uiso   1.00
H1696  H     0.41066   0.91306   0.93517   0.00000  Uiso   1.00
H1697  H     0.36504   0.95608   0.92995   0.00000  Uiso   1.00
H1698  H     0.35240   0.91010   0.96190   0.00000  Uiso   1.00
F1699  F     0.56256   0.95786   0.77973   0.00000  Uiso   1.00
F1700  F     0.43849   0.70866   0.88721   0.00000  Uiso   1.00
O1701  O     0.55326   0.89366   0.95682   0.00000  Uiso   1.00
C1702  C     0.57214   0.92951   0.98288   0.00000  Uiso   1.00
H1703  H     0.59779   0.94681   0.96245   0.00000  Uiso   1.00
H1704  H     0.59792   0.92150   0.68162   0.00000  Uiso   1.00
C1705  C     0.52828   0.95949   0.99079   0.00000  Uiso   1.00
H1706  H     0.50086   0.94497   0.67826   0.00000  Uiso   1.00
H1707  H     0.54524   0.98806   0.67578   0.00000  Uiso   1.00
H1708  H     0.50617   0.96885   0.95749   0.00000  Uiso   1.00
O1709  O     0.44504   0.77324   0.70701   0.00000  Uiso   1.00
C1710  C     0.45675   0.73177   0.69412   0.00000  Uiso   1.00
H1711  H     0.46862   0.71378   0.72574   0.00000  Uiso   1.00
H1712  H     0.48967   0.72911   0.67375   0.00000  Uiso   1.00
C1713  C     0.40824   0.71065   0.66823   0.00000  Uiso   1.00
H1714  H     0.39286   0.72878   0.97074   0.00000  Uiso   1.00
H1715  H     0.41799   0.67856   0.99072   0.00000  Uiso   1.00
H1716  H     0.37762   0.70833   0.69075   0.00000  Uiso   1.00
C1717  C     0.83287   0.75336   0.83308   0.00000  Uiso   1.00
C1718  C     0.83421   0.91330   0.83364   0.00000  Uiso   1.00
C1719  C     0.73378   0.83269   0.82145   0.00000  Uiso   1.00
C1720  C     0.93277   0.83330   0.84507   0.00000  Uiso   1.00
C1721  C     0.67906   0.82726   0.81547   0.00000  Uiso   1.00
C1722  C     0.98715   0.83914   0.85041   0.00000  Uiso   1.00
C1723  C     0.86395   0.68824   0.80544   0.00000  Uiso   1.00
C1724  C     0.80391   0.97843   0.86151   0.00000  Uiso   1.00
C1725  C     0.86498   0.97861   0.80581   0.00000  Uiso   1.00
C1726  C     0.80283   0.68801   0.86114   0.00000  Uiso   1.00
C1727  C     0.83484   0.95741   0.83392   0.00000  Uiso   1.00
C1728  C     0.83282   0.70924   0.83295   0.00000  Uiso   1.00
C1729  C     0.85936   0.86373   0.69458   0.00000  Uiso   1.00
C1730  C     0.80634   0.80359   0.97204   0.00000  Uiso   1.00
C1731  C     0.85977   0.86416   0.97928   0.00000  Uiso   1.00
C1732  C     0.80711   0.80274   0.68703   0.00000  Uiso   1.00
H1733  H     0.88767   0.70511   0.78426   0.00000  Uiso   1.00
H1734  H     0.78004   0.96162   0.88248   0.00000  Uiso   1.00
H1735  H     0.87954   0.88702   0.71732   0.00000  Uiso   1.00
H1736  H     0.78417   0.78051   0.95016   0.00000  Uiso   1.00
N1737  N     0.83332   0.83332   0.95240   0.00000  Uiso   1.00
N1738  N     0.83335   0.83334   0.71427   0.00000  Uiso   1.00
O1739  O     0.83333   0.77225   0.87154   0.00000  Uiso   1.00
O1740  O     0.83334   0.89442   0.79513   0.00000  Uiso   1.00
O1741  O     0.83333   0.77226   0.79510   0.00000  Uiso   1.00
O1742  O     0.83334   0.89441   0.87157   0.00000  Uiso   1.00
O1743  O     0.75725   0.83333   0.86261   0.00000  Uiso   1.00
O1744  O     0.90942   0.83334   0.80405   0.00000  Uiso   1.00
O1745  O     0.75725   0.83334   0.78617   0.00000  Uiso   1.00
O1746  O     0.90942   0.83333   0.88050   0.00000  Uiso   1.00
Zn1747 Zn    0.83333   0.83333   0.88437   0.00000  Uiso   1.00
Zn1748 Zn    0.83333   0.83334   0.78229   0.00000  Uiso   1.00
O1749  O     0.98956   0.79957   0.78134   0.00000  Uiso   1.00
C1750  C     0.98412   0.81849   0.73785   0.00000  Uiso   1.00
H1751  H     0.68891   0.82386   0.72609   0.00000  Uiso   1.00
H1752  H     0.96326   0.84886   0.73803   0.00000  Uiso   1.00
C1753  C     0.95334   0.78895   0.70302   0.00000  Uiso   1.00
H1754  H     0.91555   0.78061   0.71409   0.00000  Uiso   1.00
H1755  H     0.94611   0.80405   0.66902   0.00000  Uiso   1.00
H1756  H     0.97567   0.75974   0.69992   0.00000  Uiso   1.00
O1757  O     0.67835   0.85764   0.89081   0.00000  Uiso   1.00
C1758  C     0.67277   0.90153   0.88812   0.00000  Uiso   1.00
H1759  H     0.96431   0.91057   0.88534   0.00000  Uiso   1.00
H1760  H     0.68954   0.91395   0.85825   0.00000  Uiso   1.00
C1761  C     0.70206   0.92146   0.93151   0.00000  Uiso   1.00
H1762  H     0.74400   0.91306   0.93517   0.00000  Uiso   1.00
H1763  H     0.69838   0.95608   0.92995   0.00000  Uiso   1.00
H1764  H     0.68573   0.91010   0.96190   0.00000  Uiso   1.00
F1765  F     0.89589   0.95786   0.77973   0.00000  Uiso   1.00
F1766  F     0.77182   0.70866   0.88721   0.00000  Uiso   1.00
O1767  O     0.88659   0.89366   0.95682   0.00000  Uiso   1.00
C1768  C     0.90547   0.92951   0.98288   0.00000  Uiso   1.00
H1769  H     0.93112   0.94681   0.96245   0.00000  Uiso   1.00
H1770  H     0.93126   0.92150   0.68162   0.00000  Uiso   1.00
C1771  C     0.86161   0.95949   0.99079   0.00000  Uiso   1.00
H1772  H     0.83419   0.94497   0.67826   0.00000  Uiso   1.00
H1773  H     0.87858   0.98806   0.67578   0.00000  Uiso   1.00
H1774  H     0.83950   0.96885   0.95749   0.00000  Uiso   1.00
O1775  O     0.77838   0.77324   0.70701   0.00000  Uiso   1.00
C1776  C     0.79008   0.73177   0.69412   0.00000  Uiso   1.00
H1777  H     0.80196   0.71378   0.72574   0.00000  Uiso   1.00
H1778  H     0.82300   0.72911   0.67375   0.00000  Uiso   1.00
C1779  C     0.74157   0.71065   0.66823   0.00000  Uiso   1.00
H1780  H     0.72620   0.72878   0.97074   0.00000  Uiso   1.00
H1781  H     0.75133   0.67856   0.99072   0.00000  Uiso   1.00
H1782  H     0.71095   0.70833   0.69075   0.00000  Uiso   1.00
loop_
_geom_bond_atom_site_label_1
_geom_bond_atom_site_label_2
_geom_bond_distance
_geom_bond_site_symmetry_2
_ccdc_geom_bond_type
C1     O25     1.282   .     A
C1     C12     1.408   .     S
C1     O23     1.278   .     A
C2     O26     1.281   .     A
C2     C11     1.408   .     S
C2     O24     1.278   .     A
C3     O29     1.281   .     A
C3     O27     1.277   .     A
C3     C5      1.413   .     S
C4     O30     1.283   .     A
C4     O28     1.273   .     A
C4     C6      1.407   .     S
C5     C138    1.351   1_455 S
C5     O165    1.395   1_455 S
C6     C71     1.351   .     S
C6     O107    1.391   .     S
C7     C12     1.394   .     A
C7     H17     1.084   .     S
C7     C405    1.372   1_545 S
C8     C11     1.392   .     A
C8     H18     1.082   .     S
C8     C208    1.370   .     S
C9     C11     1.398   .     A
C9     F49     1.359   .     S
C9     C205    1.372   .     S
C10    C12     1.398   .     A
C10    F50     1.359   .     S
C10    C404    1.370   1_545 S
C13    N22     1.362   .     A
C13    H19     1.077   .     S
C13    C1203   1.438   1_554 S
C14    N21     1.361   .     A
C14    H20     1.080   .     S
C14    C610    1.425   .     S
C15    O51     1.398   .     S
C15    N21     1.373   .     A
C15    C607    1.438   .     S
C16    N22     1.371   .     A
C16    O59     1.387   .     S
C16    C1202   1.425   1_554 S
N21    Zn31    2.009   .     S
N22    Zn32    2.009   .     S
O23    Zn31    1.982   .     S
O24    Zn32    1.982   .     S
O25    Zn32    1.990   .     S
O26    Zn31    1.990   .     S
O27    Zn31    1.983   .     S
O28    Zn32    1.983   .     S
O29    Zn32    1.992   .     S
O30    Zn31    1.992   .     S
O33    C34     1.414   .     S
O33    C71     1.395   .     S
C34    C37     1.521   .     S
C34    H36     1.112   .     S
C34    H101    1.108   .     S
H35    C166    1.108   1_455 S
C37    H38     1.109   .     S
C37    H40     1.110   .     S
C37    H39     1.110   .     S
O41    C42     1.411   .     S
O41    C138    1.391   1_455 S
C42    H44     1.115   .     S
C42    C45     1.522   .     S
C42    H175    1.114   1_455 S
H43    C108    1.114   .     S
C45    H46     1.111   .     S
C45    H48     1.111   .     S
C45    H47     1.110   .     S
O51    C52     1.416   .     S
C52    C55     1.532   .     S
C52    H53     1.110   .     S
C52    H648    1.110   .     S
H54    C1240   1.110   1_554 S
C55    H58     1.109   .     S
C55    H650    1.108   .     S
C55    H651    1.110   .     S
H56    C1243   1.108   1_554 S
H57    C1243   1.110   1_554 S
O59    C60     1.419   .     S
C60    C63     1.523   .     S
C60    H62     1.116   .     S
C60    H61     1.108   .     S
C63    H66     1.110   .     S
C63    H1252   1.109   1_554 S
C63    H1253   1.111   1_554 S
H64    C657    1.109   .     S
H65    C657    1.111   .     S
C67    O91     1.282   .     A
C67    C78     1.408   .     S
C67    O89     1.278   .     A
C68    O92     1.281   .     A
C68    C77     1.408   .     S
C68    O90     1.278   .     A
C69    O95     1.281   .     A
C69    O93     1.277   .     A
C69    C71     1.413   .     S
C70    O96     1.283   .     A
C70    O94     1.273   .     A
C70    C72     1.407   .     S
C72    C137    1.351   .     S
C72    O173    1.391   .     S
C73    C78     1.394   .     A
C73    H83     1.084   .     S
C73    C471    1.372   1_545 S
C74    C77     1.392   .     A
C74    H84     1.082   .     S
C74    C274    1.370   .     S
C75    C77     1.398   .     A
C75    F115    1.359   .     S
C75    C271    1.372   .     S
C76    C78     1.398   .     A
C76    F116    1.359   .     S
C76    C470    1.370   1_545 S
C79    N88     1.362   .     A
C79    H85     1.077   .     S
C79    C1269   1.438   1_554 S
C80    N87     1.361   .     A
C80    H86     1.080   .     S
C80    C676    1.425   .     S
C81    O117    1.398   .     S
C81    N87     1.373   .     A
C81    C673    1.438   .     S
C82    N88     1.371   .     A
C82    O125    1.387   .     S
C82    C1268   1.425   1_554 S
N87    Zn97    2.009   .     S
N88    Zn98    2.009   .     S
O89    Zn97    1.982   .     S
O90    Zn98    1.982   .     S
O91    Zn98    1.990   .     S
O92    Zn97    1.990   .     S
O93    Zn97    1.983   .     S
O94    Zn98    1.983   .     S
O95    Zn98    1.992   .     S
O96    Zn97    1.992   .     S
O99    C100    1.414   .     S
O99    C137    1.395   .     S
C100   C103    1.521   .     S
C100   H102    1.112   .     S
C100   H167    1.108   .     S
C103   H104    1.109   .     S
C103   H106    1.110   .     S
C103   H105    1.110   .     S
O107   C108    1.411   .     S
C108   H110    1.115   .     S
C108   C111    1.522   .     S
H109   C174    1.114   .     S
C111   H112    1.111   .     S
C111   H114    1.111   .     S
C111   H113    1.110   .     S
O117   C118    1.416   .     S
C118   C121    1.532   .     S
C118   H119    1.110   .     S
C118   H714    1.110   .     S
H120   C1306   1.110   1_554 S
C121   H124    1.109   .     S
C121   H716    1.108   .     S
C121   H717    1.110   .     S
H122   C1309   1.108   1_554 S
H123   C1309   1.110   1_554 S
O125   C126    1.419   .     S
C126   C129    1.523   .     S
C126   H128    1.116   .     S
C126   H127    1.108   .     S
C129   H132    1.110   .     S
C129   H1318   1.109   1_554 S
C129   H1319   1.111   1_554 S
H130   C723    1.109   .     S
H131   C723    1.111   .     S
C133   O157    1.282   .     A
C133   C144    1.408   .     S
C133   O155    1.278   .     A
C134   O158    1.281   .     A
C134   C143    1.408   .     S
C134   O156    1.278   .     A
C135   O161    1.281   .     A
C135   O159    1.277   .     A
C135   C137    1.413   .     S
C136   O162    1.283   .     A
C136   O160    1.273   .     A
C136   C138    1.407   .     S
C138   C5      1.351   1_655 S
C138   O41     1.391   1_655 S
C139   C144    1.394   .     A
C139   H149    1.084   .     S
C139   C537    1.372   1_545 S
C140   C143    1.392   .     A
C140   H150    1.082   .     S
C140   C340    1.370   .     S
C141   C143    1.398   .     A
C141   F181    1.359   .     S
C141   C337    1.372   .     S
C142   C144    1.398   .     A
C142   F182    1.359   .     S
C142   C536    1.370   1_545 S
C145   N154    1.362   .     A
C145   H151    1.077   .     S
C145   C1335   1.438   1_554 S
C146   N153    1.361   .     A
C146   H152    1.080   .     S
C146   C742    1.425   .     S
C147   O183    1.398   .     S
C147   N153    1.373   .     A
C147   C739    1.438   .     S
C148   N154    1.371   .     A
C148   O191    1.387   .     S
C148   C1334   1.425   1_554 S
N153   Zn163   2.009   .     S
N154   Zn164   2.009   .     S
O155   Zn163   1.982   .     S
O156   Zn164   1.982   .     S
O157   Zn164   1.990   .     S
O158   Zn163   1.990   .     S
O159   Zn163   1.983   .     S
O160   Zn164   1.983   .     S
O161   Zn164   1.992   .     S
O162   Zn163   1.992   .     S
O165   C166    1.414   .     S
O165   C5      1.395   1_655 S
C166   C169    1.521   .     S
C166   H168    1.112   .     S
C166   H35     1.108   1_655 S
C169   H170    1.109   .     S
C169   H172    1.110   .     S
C169   H171    1.110   .     S
O173   C174    1.411   .     S
C174   H176    1.115   .     S
C174   C177    1.522   .     S
H175   C42     1.114   1_655 S
C177   H178    1.111   .     S
C177   H180    1.111   .     S
C177   H179    1.110   .     S
O183   C184    1.416   .     S
C184   C187    1.532   .     S
C184   H185    1.110   .     S
C184   H780    1.110   .     S
H186   C1372   1.110   1_554 S
C187   H190    1.109   .     S
C187   H782    1.108   .     S
C187   H783    1.110   .     S
H188   C1375   1.108   1_554 S
H189   C1375   1.110   1_554 S
O191   C192    1.419   .     S
C192   C195    1.523   .     S
C192   H194    1.116   .     S
C192   H193    1.108   .     S
C195   H198    1.110   .     S
C195   H1384   1.109   1_554 S
C195   H1385   1.111   1_554 S
H196   C789    1.109   .     S
H197   C789    1.111   .     S
C199   O223    1.282   .     A
C199   C210    1.408   .     S
C199   O221    1.278   .     A
C200   O224    1.281   .     A
C200   C209    1.408   .     S
C200   O222    1.278   .     A
C201   O227    1.281   .     A
C201   O225    1.277   .     A
C201   C203    1.413   .     S
C202   O228    1.283   .     A
C202   O226    1.273   .     A
C202   C204    1.407   .     S
C203   C336    1.351   1_455 S
C203   O363    1.395   1_455 S
C204   C269    1.351   .     S
C204   O305    1.391   .     S
C205   C210    1.394   .     A
C205   H215    1.084   .     S
C206   C209    1.392   .     A
C206   H216    1.082   .     S
C206   C406    1.370   .     S
C207   C209    1.398   .     A
C207   F247    1.359   .     S
C207   C403    1.372   .     S
C208   C210    1.398   .     A
C208   F248    1.359   .     S
C211   N220    1.362   .     A
C211   H217    1.077   .     S
C211   C1401   1.438   1_554 S
C212   N219    1.361   .     A
C212   H218    1.080   .     S
C212   C808    1.425   .     S
C213   O249    1.398   .     S
C213   N219    1.373   .     A
C213   C805    1.438   .     S
C214   N220    1.371   .     A
C214   O257    1.387   .     S
C214   C1400   1.425   1_554 S
N219   Zn229   2.009   .     S
N220   Zn230   2.009   .     S
O221   Zn229   1.982   .     S
O222   Zn230   1.982   .     S
O223   Zn230   1.990   .     S
O224   Zn229   1.990   .     S
O225   Zn229   1.983   .     S
O226   Zn230   1.983   .     S
O227   Zn230   1.992   .     S
O228   Zn229   1.992   .     S
O231   C232    1.414   .     S
O231   C269    1.395   .     S
C232   C235    1.521   .     S
C232   H234    1.112   .     S
C232   H299    1.108   .     S
H233   C364    1.108   1_455 S
C235   H236    1.109   .     S
C235   H238    1.110   .     S
C235   H237    1.110   .     S
O239   C240    1.411   .     S
O239   C336    1.391   1_455 S
C240   H242    1.115   .     S
C240   C243    1.522   .     S
C240   H373    1.114   1_455 S
H241   C306    1.114   .     S
C243   H244    1.111   .     S
C243   H246    1.111   .     S
C243   H245    1.110   .     S
O249   C250    1.416   .     S
C250   C253    1.532   .     S
C250   H251    1.110   .     S
C250   H846    1.110   .     S
H252   C1438   1.110   1_554 S
C253   H256    1.109   .     S
C253   H848    1.108   .     S
C253   H849    1.110   .     S
H254   C1441   1.108   1_554 S
H255   C1441   1.110   1_554 S
O257   C258    1.419   .     S
C258   C261    1.523   .     S
C258   H260    1.116   .     S
C258   H259    1.108   .     S
C261   H264    1.110   .     S
C261   H1450   1.109   1_554 S
C261   H1451   1.111   1_554 S
H262   C855    1.109   .     S
H263   C855    1.111   .     S
C265   O289    1.282   .     A
C265   C276    1.408   .     S
C265   O287    1.278   .     A
C266   O290    1.281   .     A
C266   C275    1.408   .     S
C266   O288    1.278   .     A
C267   O293    1.281   .     A
C267   O291    1.277   .     A
C267   C269    1.413   .     S
C268   O294    1.283   .     A
C268   O292    1.273   .     A
C268   C270    1.407   .     S
C270   C335    1.351   .     S
C270   O371    1.391   .     S
C271   C276    1.394   .     A
C271   H281    1.084   .     S
C272   C275    1.392   .     A
C272   H282    1.082   .     S
C272   C472    1.370   .     S
C273   C275    1.398   .     A
C273   F313    1.359   .     S
C273   C469    1.372   .     S
C274   C276    1.398   .     A
C274   F314    1.359   .     S
C277   N286    1.362   .     A
C277   H283    1.077   .     S
C277   C1467   1.438   1_554 S
C278   N285    1.361   .     A
C278   H284    1.080   .     S
C278   C874    1.425   .     S
C279   O315    1.398   .     S
C279   N285    1.373   .     A
C279   C871    1.438   .     S
C280   N286    1.371   .     A
C280   O323    1.387   .     S
C280   C1466   1.425   1_554 S
N285   Zn295   2.009   .     S
N286   Zn296   2.009   .     S
O287   Zn295   1.982   .     S
O288   Zn296   1.982   .     S
O289   Zn296   1.990   .     S
O290   Zn295   1.990   .     S
O291   Zn295   1.983   .     S
O292   Zn296   1.983   .     S
O293   Zn296   1.992   .     S
O294   Zn295   1.992   .     S
O297   C298    1.414   .     S
O297   C335    1.395   .     S
C298   C301    1.521   .     S
C298   H300    1.112   .     S
C298   H365    1.108   .     S
C301   H302    1.109   .     S
C301   H304    1.110   .     S
C301   H303    1.110   .     S
O305   C306    1.411   .     S
C306   H308    1.115   .     S
C306   C309    1.522   .     S
H307   C372    1.114   .     S
C309   H310    1.111   .     S
C309   H312    1.111   .     S
C309   H311    1.110   .     S
O315   C316    1.416   .     S
C316   C319    1.532   .     S
C316   H317    1.110   .     S
C316   H912    1.110   .     S
H318   C1504   1.110   1_554 S
C319   H322    1.109   .     S
C319   H914    1.108   .     S
C319   H915    1.110   .     S
H320   C1507   1.108   1_554 S
H321   C1507   1.110   1_554 S
O323   C324    1.419   .     S
C324   C327    1.523   .     S
C324   H326    1.116   .     S
C324   H325    1.108   .     S
C327   H330    1.110   .     S
C327   H1516   1.109   1_554 S
C327   H1517   1.111   1_554 S
H328   C921    1.109   .     S
H329   C921    1.111   .     S
C331   O355    1.282   .     A
C331   C342    1.408   .     S
C331   O353    1.278   .     A
C332   O356    1.281   .     A
C332   C341    1.408   .     S
C332   O354    1.278   .     A
C333   O359    1.281   .     A
C333   O357    1.277   .     A
C333   C335    1.413   .     S
C334   O360    1.283   .     A
C334   O358    1.273   .     A
C334   C336    1.407   .     S
C336   C203    1.351   1_655 S
C336   O239    1.391   1_655 S
C337   C342    1.394   .     A
C337   H347    1.084   .     S
C338   C341    1.392   .     A
C338   H348    1.082   .     S
C338   C538    1.370   .     S
C339   C341    1.398   .     A
C339   F379    1.359   .     S
C339   C535    1.372   .     S
C340   C342    1.398   .     A
C340   F380    1.359   .     S
C343   N352    1.362   .     A
C343   H349    1.077   .     S
C343   C1533   1.438   1_554 S
C344   N351    1.361   .     A
C344   H350    1.080   .     S
C344   C940    1.425   .     S
C345   O381    1.398   .     S
C345   N351    1.373   .     A
C345   C937    1.438   .     S
C346   N352    1.371   .     A
C346   O389    1.387   .     S
C346   C1532   1.425   1_554 S
N351   Zn361   2.009   .     S
N352   Zn362   2.009   .     S
O353   Zn361   1.982   .     S
O354   Zn362   1.982   .     S
O355   Zn362   1.990   .     S
O356   Zn361   1.990   .     S
O357   Zn361   1.983   .     S
O358   Zn362   1.983   .     S
O359   Zn362   1.992   .     S
O360   Zn361   1.992   .     S
O363   C364    1.414   .     S
O363   C203    1.395   1_655 S
C364   C367    1.521   .     S
C364   H366    1.112   .     S
C364   H233    1.108   1_655 S
C367   H368    1.109   .     S
C367   H370    1.110   .     S
C367   H369    1.110   .     S
O371   C372    1.411   .     S
C372   H374    1.115   .     S
C372   C375    1.522   .     S
H373   C240    1.114   1_655 S
C375   H376    1.111   .     S
C375   H378    1.111   .     S
C375   H377    1.110   .     S
O381   C382    1.416   .     S
C382   C385    1.532   .     S
C382   H383    1.110   .     S
C382   H978    1.110   .     S
H384   C1570   1.110   1_554 S
C385   H388    1.109   .     S
C385   H980    1.108   .     S
C385   H981    1.110   .     S
H386   C1573   1.108   1_554 S
H387   C1573   1.110   1_554 S
O389   C390    1.419   .     S
C390   C393    1.523   .     S
C390   H392    1.116   .     S
C390   H391    1.108   .     S
C393   H396    1.110   .     S
C393   H1582   1.109   1_554 S
C393   H1583   1.111   1_554 S
H394   C987    1.109   .     S
H395   C987    1.111   .     S
C397   O421    1.282   .     A
C397   C408    1.408   .     S
C397   O419    1.278   .     A
C398   O422    1.281   .     A
C398   C407    1.408   .     S
C398   O420    1.278   .     A
C399   O425    1.281   .     A
C399   O423    1.277   .     A
C399   C401    1.413   .     S
C400   O426    1.283   .     A
C400   O424    1.273   .     A
C400   C402    1.407   .     S
C401   C534    1.351   1_455 S
C401   O561    1.395   1_455 S
C402   C467    1.351   .     S
C402   O503    1.391   .     S
C403   C408    1.394   .     A
C403   H413    1.084   .     S
C404   C407    1.392   .     A
C404   H414    1.082   .     S
C404   C10     1.370   1_565 S
C405   C407    1.398   .     A
C405   F445    1.359   .     S
C405   C7      1.372   1_565 S
C406   C408    1.398   .     A
C406   F446    1.359   .     S
C409   N418    1.362   .     A
C409   H415    1.077   .     S
C409   C1599   1.438   1_554 S
C410   N417    1.361   .     A
C410   H416    1.080   .     S
C410   C1006   1.425   .     S
C411   O447    1.398   .     S
C411   N417    1.373   .     A
C411   C1003   1.438   .     S
C412   N418    1.371   .     A
C412   O455    1.387   .     S
C412   C1598   1.425   1_554 S
N417   Zn427   2.009   .     S
N418   Zn428   2.009   .     S
O419   Zn427   1.982   .     S
O420   Zn428   1.982   .     S
O421   Zn428   1.990   .     S
O422   Zn427   1.990   .     S
O423   Zn427   1.983   .     S
O424   Zn428   1.983   .     S
O425   Zn428   1.992   .     S
O426   Zn427   1.992   .     S
O429   C430    1.414   .     S
O429   C467    1.395   .     S
C430   C433    1.521   .     S
C430   H432    1.112   .     S
C430   H497    1.108   .     S
H431   C562    1.108   1_455 S
C433   H434    1.109   .     S
C433   H436    1.110   .     S
C433   H435    1.110   .     S
O437   C438    1.411   .     S
O437   C534    1.391   1_455 S
C438   H440    1.115   .     S
C438   C441    1.522   .     S
C438   H571    1.114   1_455 S
H439   C504    1.114   .     S
C441   H442    1.111   .     S
C441   H444    1.111   .     S
C441   H443    1.110   .     S
O447   C448    1.416   .     S
C448   C451    1.532   .     S
C448   H449    1.110   .     S
C448   H1044   1.110   .     S
H450   C1636   1.110   1_554 S
C451   H454    1.109   .     S
C451   H1046   1.108   .     S
C451   H1047   1.110   .     S
H452   C1639   1.108   1_554 S
H453   C1639   1.110   1_554 S
O455   C456    1.419   .     S
C456   C459    1.523   .     S
C456   H458    1.116   .     S
C456   H457    1.108   .     S
C459   H462    1.110   .     S
C459   H1648   1.109   1_554 S
C459   H1649   1.111   1_554 S
H460   C1053   1.109   .     S
H461   C1053   1.111   .     S
C463   O487    1.282   .     A
C463   C474    1.408   .     S
C463   O485    1.278   .     A
C464   O488    1.281   .     A
C464   C473    1.408   .     S
C464   O486    1.278   .     A
C465   O491    1.281   .     A
C465   O489    1.277   .     A
C465   C467    1.413   .     S
C466   O492    1.283   .     A
C466   O490    1.273   .     A
C466   C468    1.407   .     S
C468   C533    1.351   .     S
C468   O569    1.391   .     S
C469   C474    1.394   .     A
C469   H479    1.084   .     S
C470   C473    1.392   .     A
C470   H480    1.082   .     S
C470   C76     1.370   1_565 S
C471   C473    1.398   .     A
C471   F511    1.359   .     S
C471   C73     1.372   1_565 S
C472   C474    1.398   .     A
C472   F512    1.359   .     S
C475   N484    1.362   .     A
C475   H481    1.077   .     S
C475   C1665   1.438   1_554 S
C476   N483    1.361   .     A
C476   H482    1.080   .     S
C476   C1072   1.425   .     S
C477   O513    1.398   .     S
C477   N483    1.373   .     A
C477   C1069   1.438   .     S
C478   N484    1.371   .     A
C478   O521    1.387   .     S
C478   C1664   1.425   1_554 S
N483   Zn493   2.009   .     S
N484   Zn494   2.009   .     S
O485   Zn493   1.982   .     S
O486   Zn494   1.982   .     S
O487   Zn494   1.990   .     S
O488   Zn493   1.990   .     S
O489   Zn493   1.983   .     S
O490   Zn494   1.983   .     S
O491   Zn494   1.992   .     S
O492   Zn493   1.992   .     S
O495   C496    1.414   .     S
O495   C533    1.395   .     S
C496   C499    1.521   .     S
C496   H498    1.112   .     S
C496   H563    1.108   .     S
C499   H500    1.109   .     S
C499   H502    1.110   .     S
C499   H501    1.110   .     S
O503   C504    1.411   .     S
C504   H506    1.115   .     S
C504   C507    1.522   .     S
H505   C570    1.114   .     S
C507   H508    1.111   .     S
C507   H510    1.111   .     S
C507   H509    1.110   .     S
O513   C514    1.416   .     S
C514   C517    1.532   .     S
C514   H515    1.110   .     S
C514   H1110   1.110   .     S
H516   C1702   1.110   1_554 S
C517   H520    1.109   .     S
C517   H1112   1.108   .     S
C517   H1113   1.110   .     S
H518   C1705   1.108   1_554 S
H519   C1705   1.110   1_554 S
O521   C522    1.419   .     S
C522   C525    1.523   .     S
C522   H524    1.116   .     S
C522   H523    1.108   .     S
C525   H528    1.110   .     S
C525   H1714   1.109   1_554 S
C525   H1715   1.111   1_554 S
H526   C1119   1.109   .     S
H527   C1119   1.111   .     S
C529   O553    1.282   .     A
C529   C540    1.408   .     S
C529   O551    1.278   .     A
C530   O554    1.281   .     A
C530   C539    1.408   .     S
C530   O552    1.278   .     A
C531   O557    1.281   .     A
C531   O555    1.277   .     A
C531   C533    1.413   .     S
C532   O558    1.283   .     A
C532   O556    1.273   .     A
C532   C534    1.407   .     S
C534   C401    1.351   1_655 S
C534   O437    1.391   1_655 S
C535   C540    1.394   .     A
C535   H545    1.084   .     S
C536   C539    1.392   .     A
C536   H546    1.082   .     S
C536   C142    1.370   1_565 S
C537   C539    1.398   .     A
C537   F577    1.359   .     S
C537   C139    1.372   1_565 S
C538   C540    1.398   .     A
C538   F578    1.359   .     S
C541   N550    1.362   .     A
C541   H547    1.077   .     S
C541   C1731   1.438   1_554 S
C542   N549    1.361   .     A
C542   H548    1.080   .     S
C542   C1138   1.425   .     S
C543   O579    1.398   .     S
C543   N549    1.373   .     A
C543   C1135   1.438   .     S
C544   N550    1.371   .     A
C544   O587    1.387   .     S
C544   C1730   1.425   1_554 S
N549   Zn559   2.009   .     S
N550   Zn560   2.009   .     S
O551   Zn559   1.982   .     S
O552   Zn560   1.982   .     S
O553   Zn560   1.990   .     S
O554   Zn559   1.990   .     S
O555   Zn559   1.983   .     S
O556   Zn560   1.983   .     S
O557   Zn560   1.992   .     S
O558   Zn559   1.992   .     S
O561   C562    1.414   .     S
O561   C401    1.395   1_655 S
C562   C565    1.521   .     S
C562   H564    1.112   .     S
C562   H431    1.108   1_655 S
C565   H566    1.109   .     S
C565   H568    1.110   .     S
C565   H567    1.110   .     S
O569   C570    1.411   .     S
C570   H572    1.115   .     S
C570   C573    1.522   .     S
H571   C438    1.114   1_655 S
C573   H574    1.111   .     S
C573   H576    1.111   .     S
C573   H575    1.110   .     S
O579   C580    1.416   .     S
C580   C583    1.532   .     S
C580   H581    1.110   .     S
C580   H1176   1.110   .     S
H582   C1768   1.110   1_554 S
C583   H586    1.109   .     S
C583   H1178   1.108   .     S
C583   H1179   1.110   .     S
H584   C1771   1.108   1_554 S
H585   C1771   1.110   1_554 S
O587   C588    1.419   .     S
C588   C591    1.523   .     S
C588   H590    1.116   .     S
C588   H589    1.108   .     S
C591   H594    1.110   .     S
C591   H1780   1.109   1_554 S
C591   H1781   1.111   1_554 S
H592   C1185   1.109   .     S
H593   C1185   1.111   .     S
C595   O619    1.282   .     A
C595   C606    1.408   .     S
C595   O617    1.278   .     A
C596   O620    1.281   .     A
C596   C605    1.408   .     S
C596   O618    1.278   .     A
C597   O623    1.281   .     A
C597   O621    1.277   .     A
C597   C599    1.413   .     S
C598   O624    1.283   .     A
C598   O622    1.273   .     A
C598   C600    1.407   .     S
C599   C732    1.351   1_455 S
C599   O759    1.395   1_455 S
C600   C665    1.351   .     S
C600   O701    1.391   .     S
C601   C606    1.394   .     A
C601   H611    1.084   .     S
C601   C999    1.372   1_545 S
C602   C605    1.392   .     A
C602   H612    1.082   .     S
C602   C802    1.370   .     S
C603   C605    1.398   .     A
C603   F643    1.359   .     S
C603   C799    1.372   .     S
C604   C606    1.398   .     A
C604   F644    1.359   .     S
C604   C998    1.370   1_545 S
C607   N616    1.362   .     A
C607   H613    1.077   .     S
C608   N615    1.361   .     A
C608   H614    1.080   .     S
C608   C1204   1.425   .     S
C609   O645    1.398   .     S
C609   N615    1.373   .     A
C609   C1201   1.438   .     S
C610   N616    1.371   .     A
C610   O653    1.387   .     S
N615   Zn625   2.009   .     S
N616   Zn626   2.009   .     S
O617   Zn625   1.982   .     S
O618   Zn626   1.982   .     S
O619   Zn626   1.990   .     S
O620   Zn625   1.990   .     S
O621   Zn625   1.983   .     S
O622   Zn626   1.983   .     S
O623   Zn626   1.992   .     S
O624   Zn625   1.992   .     S
O627   C628    1.414   .     S
O627   C665    1.395   .     S
C628   C631    1.521   .     S
C628   H630    1.112   .     S
C628   H695    1.108   .     S
H629   C760    1.108   1_455 S
C631   H632    1.109   .     S
C631   H634    1.110   .     S
C631   H633    1.110   .     S
O635   C636    1.411   .     S
O635   C732    1.391   1_455 S
C636   H638    1.115   .     S
C636   C639    1.522   .     S
C636   H769    1.114   1_455 S
H637   C702    1.114   .     S
C639   H640    1.111   .     S
C639   H642    1.111   .     S
C639   H641    1.110   .     S
O645   C646    1.416   .     S
C646   C649    1.532   .     S
C646   H647    1.110   .     S
C646   H1242   1.110   .     S
C649   H652    1.109   .     S
C649   H1244   1.108   .     S
C649   H1245   1.110   .     S
O653   C654    1.419   .     S
C654   C657    1.523   .     S
C654   H656    1.116   .     S
C654   H655    1.108   .     S
C657   H660    1.110   .     S
H658   C1251   1.109   .     S
H659   C1251   1.111   .     S
C661   O685    1.282   .     A
C661   C672    1.408   .     S
C661   O683    1.278   .     A
C662   O686    1.281   .     A
C662   C671    1.408   .     S
C662   O684    1.278   .     A
C663   O689    1.281   .     A
C663   O687    1.277   .     A
C663   C665    1.413   .     S
C664   O690    1.283   .     A
C664   O688    1.273   .     A
C664   C666    1.407   .     S
C666   C731    1.351   .     S
C666   O767    1.391   .     S
C667   C672    1.394   .     A
C667   H677    1.084   .     S
C667   C1065   1.372   1_545 S
C668   C671    1.392   .     A
C668   H678    1.082   .     S
C668   C868    1.370   .     S
C669   C671    1.398   .     A
C669   F709    1.359   .     S
C669   C865    1.372   .     S
C670   C672    1.398   .     A
C670   F710    1.359   .     S
C670   C1064   1.370   1_545 S
C673   N682    1.362   .     A
C673   H679    1.077   .     S
C674   N681    1.361   .     A
C674   H680    1.080   .     S
C674   C1270   1.425   .     S
C675   O711    1.398   .     S
C675   N681    1.373   .     A
C675   C1267   1.438   .     S
C676   N682    1.371   .     A
C676   O719    1.387   .     S
N681   Zn691   2.009   .     S
N682   Zn692   2.009   .     S
O683   Zn691   1.982   .     S
O684   Zn692   1.982   .     S
O685   Zn692   1.990   .     S
O686   Zn691   1.990   .     S
O687   Zn691   1.983   .     S
O688   Zn692   1.983   .     S
O689   Zn692   1.992   .     S
O690   Zn691   1.992   .     S
O693   C694    1.414   .     S
O693   C731    1.395   .     S
C694   C697    1.521   .     S
C694   H696    1.112   .     S
C694   H761    1.108   .     S
C697   H698    1.109   .     S
C697   H700    1.110   .     S
C697   H699    1.110   .     S
O701   C702    1.411   .     S
C702   H704    1.115   .     S
C702   C705    1.522   .     S
H703   C768    1.114   .     S
C705   H706    1.111   .     S
C705   H708    1.111   .     S
C705   H707    1.110   .     S
O711   C712    1.416   .     S
C712   C715    1.532   .     S
C712   H713    1.110   .     S
C712   H1308   1.110   .     S
C715   H718    1.109   .     S
C715   H1310   1.108   .     S
C715   H1311   1.110   .     S
O719   C720    1.419   .     S
C720   C723    1.523   .     S
C720   H722    1.116   .     S
C720   H721    1.108   .     S
C723   H726    1.110   .     S
H724   C1317   1.109   .     S
H725   C1317   1.111   .     S
C727   O751    1.282   .     A
C727   C738    1.408   .     S
C727   O749    1.278   .     A
C728   O752    1.281   .     A
C728   C737    1.408   .     S
C728   O750    1.278   .     A
C729   O755    1.281   .     A
C729   O753    1.277   .     A
C729   C731    1.413   .     S
C730   O756    1.283   .     A
C730   O754    1.273   .     A
C730   C732    1.407   .     S
C732   C599    1.351   1_655 S
C732   O635    1.391   1_655 S
C733   C738    1.394   .     A
C733   H743    1.084   .     S
C733   C1131   1.372   1_545 S
C734   C737    1.392   .     A
C734   H744    1.082   .     S
C734   C934    1.370   .     S
C735   C737    1.398   .     A
C735   F775    1.359   .     S
C735   C931    1.372   .     S
C736   C738    1.398   .     A
C736   F776    1.359   .     S
C736   C1130   1.370   1_545 S
C739   N748    1.362   .     A
C739   H745    1.077   .     S
C740   N747    1.361   .     A
C740   H746    1.080   .     S
C740   C1336   1.425   .     S
C741   O777    1.398   .     S
C741   N747    1.373   .     A
C741   C1333   1.438   .     S
C742   N748    1.371   .     A
C742   O785    1.387   .     S
N747   Zn757   2.009   .     S
N748   Zn758   2.009   .     S
O749   Zn757   1.982   .     S
O750   Zn758   1.982   .     S
O751   Zn758   1.990   .     S
O752   Zn757   1.990   .     S
O753   Zn757   1.983   .     S
O754   Zn758   1.983   .     S
O755   Zn758   1.992   .     S
O756   Zn757   1.992   .     S
O759   C760    1.414   .     S
O759   C599    1.395   1_655 S
C760   C763    1.521   .     S
C760   H762    1.112   .     S
C760   H629    1.108   1_655 S
C763   H764    1.109   .     S
C763   H766    1.110   .     S
C763   H765    1.110   .     S
O767   C768    1.411   .     S
C768   H770    1.115   .     S
C768   C771    1.522   .     S
H769   C636    1.114   1_655 S
C771   H772    1.111   .     S
C771   H774    1.111   .     S
C771   H773    1.110   .     S
O777   C778    1.416   .     S
C778   C781    1.532   .     S
C778   H779    1.110   .     S
C778   H1374   1.110   .     S
C781   H784    1.109   .     S
C781   H1376   1.108   .     S
C781   H1377   1.110   .     S
O785   C786    1.419   .     S
C786   C789    1.523   .     S
C786   H788    1.116   .     S
C786   H787    1.108   .     S
C789   H792    1.110   .     S
H790   C1383   1.109   .     S
H791   C1383   1.111   .     S
C793   O817    1.282   .     A
C793   C804    1.408   .     S
C793   O815    1.278   .     A
C794   O818    1.281   .     A
C794   C803    1.408   .     S
C794   O816    1.278   .     A
C795   O821    1.281   .     A
C795   O819    1.277   .     A
C795   C797    1.413   .     S
C796   O822    1.283   .     A
C796   O820    1.273   .     A
C796   C798    1.407   .     S
C797   C930    1.351   1_455 S
C797   O957    1.395   1_455 S
C798   C863    1.351   .     S
C798   O899    1.391   .     S
C799   C804    1.394   .     A
C799   H809    1.084   .     S
C800   C803    1.392   .     A
C800   H810    1.082   .     S
C800   C1000   1.370   .     S
C801   C803    1.398   .     A
C801   F841    1.359   .     S
C801   C997    1.372   .     S
C802   C804    1.398   .     A
C802   F842    1.359   .     S
C805   N814    1.362   .     A
C805   H811    1.077   .     S
C806   N813    1.361   .     A
C806   H812    1.080   .     S
C806   C1402   1.425   .     S
C807   O843    1.398   .     S
C807   N813    1.373   .     A
C807   C1399   1.438   .     S
C808   N814    1.371   .     A
C808   O851    1.387   .     S
N813   Zn823   2.009   .     S
N814   Zn824   2.009   .     S
O815   Zn823   1.982   .     S
O816   Zn824   1.982   .     S
O817   Zn824   1.990   .     S
O818   Zn823   1.990   .     S
O819   Zn823   1.983   .     S
O820   Zn824   1.983   .     S
O821   Zn824   1.992   .     S
O822   Zn823   1.992   .     S
O825   C826    1.414   .     S
O825   C863    1.395   .     S
C826   C829    1.521   .     S
C826   H828    1.112   .     S
C826   H893    1.108   .     S
H827   C958    1.108   1_455 S
C829   H830    1.109   .     S
C829   H832    1.110   .     S
C829   H831    1.110   .     S
O833   C834    1.411   .     S
O833   C930    1.391   1_455 S
C834   H836    1.115   .     S
C834   C837    1.522   .     S
C834   H967    1.114   1_455 S
H835   C900    1.114   .     S
C837   H838    1.111   .     S
C837   H840    1.111   .     S
C837   H839    1.110   .     S
O843   C844    1.416   .     S
C844   C847    1.532   .     S
C844   H845    1.110   .     S
C844   H1440   1.110   .     S
C847   H850    1.109   .     S
C847   H1442   1.108   .     S
C847   H1443   1.110   .     S
O851   C852    1.419   .     S
C852   C855    1.523   .     S
C852   H854    1.116   .     S
C852   H853    1.108   .     S
C855   H858    1.110   .     S
H856   C1449   1.109   .     S
H857   C1449   1.111   .     S
C859   O883    1.282   .     A
C859   C870    1.408   .     S
C859   O881    1.278   .     A
C860   O884    1.281   .     A
C860   C869    1.408   .     S
C860   O882    1.278   .     A
C861   O887    1.281   .     A
C861   O885    1.277   .     A
C861   C863    1.413   .     S
C862   O888    1.283   .     A
C862   O886    1.273   .     A
C862   C864    1.407   .     S
C864   C929    1.351   .     S
C864   O965    1.391   .     S
C865   C870    1.394   .     A
C865   H875    1.084   .     S
C866   C869    1.392   .     A
C866   H876    1.082   .     S
C866   C1066   1.370   .     S
C867   C869    1.398   .     A
C867   F907    1.359   .     S
C867   C1063   1.372   .     S
C868   C870    1.398   .     A
C868   F908    1.359   .     S
C871   N880    1.362   .     A
C871   H877    1.077   .     S
C872   N879    1.361   .     A
C872   H878    1.080   .     S
C872   C1468   1.425   .     S
C873   O909    1.398   .     S
C873   N879    1.373   .     A
C873   C1465   1.438   .     S
C874   N880    1.371   .     A
C874   O917    1.387   .     S
N879   Zn889   2.009   .     S
N880   Zn890   2.009   .     S
O881   Zn889   1.982   .     S
O882   Zn890   1.982   .     S
O883   Zn890   1.990   .     S
O884   Zn889   1.990   .     S
O885   Zn889   1.983   .     S
O886   Zn890   1.983   .     S
O887   Zn890   1.992   .     S
O888   Zn889   1.992   .     S
O891   C892    1.414   .     S
O891   C929    1.395   .     S
C892   C895    1.521   .     S
C892   H894    1.112   .     S
C892   H959    1.108   .     S
C895   H896    1.109   .     S
C895   H898    1.110   .     S
C895   H897    1.110   .     S
O899   C900    1.411   .     S
C900   H902    1.115   .     S
C900   C903    1.522   .     S
H901   C966    1.114   .     S
C903   H904    1.111   .     S
C903   H906    1.111   .     S
C903   H905    1.110   .     S
O909   C910    1.416   .     S
C910   C913    1.532   .     S
C910   H911    1.110   .     S
C910   H1506   1.110   .     S
C913   H916    1.109   .     S
C913   H1508   1.108   .     S
C913   H1509   1.110   .     S
O917   C918    1.419   .     S
C918   C921    1.523   .     S
C918   H920    1.116   .     S
C918   H919    1.108   .     S
C921   H924    1.110   .     S
H922   C1515   1.109   .     S
H923   C1515   1.111   .     S
C925   O949    1.282   .     A
C925   C936    1.408   .     S
C925   O947    1.278   .     A
C926   O950    1.281   .     A
C926   C935    1.408   .     S
C926   O948    1.278   .     A
C927   O953    1.281   .     A
C927   O951    1.277   .     A
C927   C929    1.413   .     S
C928   O954    1.283   .     A
C928   O952    1.273   .     A
C928   C930    1.407   .     S
C930   C797    1.351   1_655 S
C930   O833    1.391   1_655 S
C931   C936    1.394   .     A
C931   H941    1.084   .     S
C932   C935    1.392   .     A
C932   H942    1.082   .     S
C932   C1132   1.370   .     S
C933   C935    1.398   .     A
C933   F973    1.359   .     S
C933   C1129   1.372   .     S
C934   C936    1.398   .     A
C934   F974    1.359   .     S
C937   N946    1.362   .     A
C937   H943    1.077   .     S
C938   N945    1.361   .     A
C938   H944    1.080   .     S
C938   C1534   1.425   .     S
C939   O975    1.398   .     S
C939   N945    1.373   .     A
C939   C1531   1.438   .     S
C940   N946    1.371   .     A
C940   O983    1.387   .     S
N945   Zn955   2.009   .     S
N946   Zn956   2.009   .     S
O947   Zn955   1.982   .     S
O948   Zn956   1.982   .     S
O949   Zn956   1.990   .     S
O950   Zn955   1.990   .     S
O951   Zn955   1.983   .     S
O952   Zn956   1.983   .     S
O953   Zn956   1.992   .     S
O954   Zn955   1.992   .     S
O957   C958    1.414   .     S
O957   C797    1.395   1_655 S
C958   C961    1.521   .     S
C958   H960    1.112   .     S
C958   H827    1.108   1_655 S
C961   H962    1.109   .     S
C961   H964    1.110   .     S
C961   H963    1.110   .     S
O965   C966    1.411   .     S
C966   H968    1.115   .     S
C966   C969    1.522   .     S
H967   C834    1.114   1_655 S
C969   H970    1.111   .     S
C969   H972    1.111   .     S
C969   H971    1.110   .     S
O975   C976    1.416   .     S
C976   C979    1.532   .     S
C976   H977    1.110   .     S
C976   H1572   1.110   .     S
C979   H982    1.109   .     S
C979   H1574   1.108   .     S
C979   H1575   1.110   .     S
O983   C984    1.419   .     S
C984   C987    1.523   .     S
C984   H986    1.116   .     S
C984   H985    1.108   .     S
C987   H990    1.110   .     S
H988   C1581   1.109   .     S
H989   C1581   1.111   .     S
C991   O1015   1.282   .     A
C991   C1002   1.408   .     S
C991   O1013   1.278   .     A
C992   O1016   1.281   .     A
C992   C1001   1.408   .     S
C992   O1014   1.278   .     A
C993   O1019   1.281   .     A
C993   O1017   1.277   .     A
C993   C995    1.413   .     S
C994   O1020   1.283   .     A
C994   O1018   1.273   .     A
C994   C996    1.407   .     S
C995   C1128   1.351   1_455 S
C995   O1155   1.395   1_455 S
C996   C1061   1.351   .     S
C996   O1097   1.391   .     S
C997   C1002   1.394   .     A
C997   H1007   1.084   .     S
C998   C1001   1.392   .     A
C998   H1008   1.082   .     S
C998   C604    1.370   1_565 S
C999   C1001   1.398   .     A
C999   F1039   1.359   .     S
C999   C601    1.372   1_565 S
C1000  C1002   1.398   .     A
C1000  F1040   1.359   .     S
C1003  N1012   1.362   .     A
C1003  H1009   1.077   .     S
C1004  N1011   1.361   .     A
C1004  H1010   1.080   .     S
C1004  C1600   1.425   .     S
C1005  O1041   1.398   .     S
C1005  N1011   1.373   .     A
C1005  C1597   1.438   .     S
C1006  N1012   1.371   .     A
C1006  O1049   1.387   .     S
N1011  Zn1021  2.009   .     S
N1012  Zn1022  2.009   .     S
O1013  Zn1021  1.982   .     S
O1014  Zn1022  1.982   .     S
O1015  Zn1022  1.990   .     S
O1016  Zn1021  1.990   .     S
O1017  Zn1021  1.983   .     S
O1018  Zn1022  1.983   .     S
O1019  Zn1022  1.992   .     S
O1020  Zn1021  1.992   .     S
O1023  C1024   1.414   .     S
O1023  C1061   1.395   .     S
C1024  C1027   1.521   .     S
C1024  H1026   1.112   .     S
C1024  H1091   1.108   .     S
H1025  C1156   1.108   1_455 S
C1027  H1028   1.109   .     S
C1027  H1030   1.110   .     S
C1027  H1029   1.110   .     S
O1031  C1032   1.411   .     S
O1031  C1128   1.391   1_455 S
C1032  H1034   1.115   .     S
C1032  C1035   1.522   .     S
C1032  H1165   1.114   1_455 S
H1033  C1098   1.114   .     S
C1035  H1036   1.111   .     S
C1035  H1038   1.111   .     S
C1035  H1037   1.110   .     S
O1041  C1042   1.416   .     S
C1042  C1045   1.532   .     S
C1042  H1043   1.110   .     S
C1042  H1638   1.110   .     S
C1045  H1048   1.109   .     S
C1045  H1640   1.108   .     S
C1045  H1641   1.110   .     S
O1049  C1050   1.419   .     S
C1050  C1053   1.523   .     S
C1050  H1052   1.116   .     S
C1050  H1051   1.108   .     S
C1053  H1056   1.110   .     S
H1054  C1647   1.109   .     S
H1055  C1647   1.111   .     S
C1057  O1081   1.282   .     A
C1057  C1068   1.408   .     S
C1057  O1079   1.278   .     A
C1058  O1082   1.281   .     A
C1058  C1067   1.408   .     S
C1058  O1080   1.278   .     A
C1059  O1085   1.281   .     A
C1059  O1083   1.277   .     A
C1059  C1061   1.413   .     S
C1060  O1086   1.283   .     A
C1060  O1084   1.273   .     A
C1060  C1062   1.407   .     S
C1062  C1127   1.351   .     S
C1062  O1163   1.391   .     S
C1063  C1068   1.394   .     A
C1063  H1073   1.084   .     S
C1064  C1067   1.392   .     A
C1064  H1074   1.082   .     S
C1064  C670    1.370   1_565 S
C1065  C1067   1.398   .     A
C1065  F1105   1.359   .     S
C1065  C667    1.372   1_565 S
C1066  C1068   1.398   .     A
C1066  F1106   1.359   .     S
C1069  N1078   1.362   .     A
C1069  H1075   1.077   .     S
C1070  N1077   1.361   .     A
C1070  H1076   1.080   .     S
C1070  C1666   1.425   .     S
C1071  O1107   1.398   .     S
C1071  N1077   1.373   .     A
C1071  C1663   1.438   .     S
C1072  N1078   1.371   .     A
C1072  O1115   1.387   .     S
N1077  Zn1087  2.009   .     S
N1078  Zn1088  2.009   .     S
O1079  Zn1087  1.982   .     S
O1080  Zn1088  1.982   .     S
O1081  Zn1088  1.990   .     S
O1082  Zn1087  1.990   .     S
O1083  Zn1087  1.983   .     S
O1084  Zn1088  1.983   .     S
O1085  Zn1088  1.992   .     S
O1086  Zn1087  1.992   .     S
O1089  C1090   1.414   .     S
O1089  C1127   1.395   .     S
C1090  C1093   1.521   .     S
C1090  H1092   1.112   .     S
C1090  H1157   1.108   .     S
C1093  H1094   1.109   .     S
C1093  H1096   1.110   .     S
C1093  H1095   1.110   .     S
O1097  C1098   1.411   .     S
C1098  H1100   1.115   .     S
C1098  C1101   1.522   .     S
H1099  C1164   1.114   .     S
C1101  H1102   1.111   .     S
C1101  H1104   1.111   .     S
C1101  H1103   1.110   .     S
O1107  C1108   1.416   .     S
C1108  C1111   1.532   .     S
C1108  H1109   1.110   .     S
C1108  H1704   1.110   .     S
C1111  H1114   1.109   .     S
C1111  H1706   1.108   .     S
C1111  H1707   1.110   .     S
O1115  C1116   1.419   .     S
C1116  C1119   1.523   .     S
C1116  H1118   1.116   .     S
C1116  H1117   1.108   .     S
C1119  H1122   1.110   .     S
H1120  C1713   1.109   .     S
H1121  C1713   1.111   .     S
C1123  O1147   1.282   .     A
C1123  C1134   1.408   .     S
C1123  O1145   1.278   .     A
C1124  O1148   1.281   .     A
C1124  C1133   1.408   .     S
C1124  O1146   1.278   .     A
C1125  O1151   1.281   .     A
C1125  O1149   1.277   .     A
C1125  C1127   1.413   .     S
C1126  O1152   1.283   .     A
C1126  O1150   1.273   .     A
C1126  C1128   1.407   .     S
C1128  C995    1.351   1_655 S
C1128  O1031   1.391   1_655 S
C1129  C1134   1.394   .     A
C1129  H1139   1.084   .     S
C1130  C1133   1.392   .     A
C1130  H1140   1.082   .     S
C1130  C736    1.370   1_565 S
C1131  C1133   1.398   .     A
C1131  F1171   1.359   .     S
C1131  C733    1.372   1_565 S
C1132  C1134   1.398   .     A
C1132  F1172   1.359   .     S
C1135  N1144   1.362   .     A
C1135  H1141   1.077   .     S
C1136  N1143   1.361   .     A
C1136  H1142   1.080   .     S
C1136  C1732   1.425   .     S
C1137  O1173   1.398   .     S
C1137  N1143   1.373   .     A
C1137  C1729   1.438   .     S
C1138  N1144   1.371   .     A
C1138  O1181   1.387   .     S
N1143  Zn1153  2.009   .     S
N1144  Zn1154  2.009   .     S
O1145  Zn1153  1.982   .     S
O1146  Zn1154  1.982   .     S
O1147  Zn1154  1.990   .     S
O1148  Zn1153  1.990   .     S
O1149  Zn1153  1.983   .     S
O1150  Zn1154  1.983   .     S
O1151  Zn1154  1.992   .     S
O1152  Zn1153  1.992   .     S
O1155  C1156   1.414   .     S
O1155  C995    1.395   1_655 S
C1156  C1159   1.521   .     S
C1156  H1158   1.112   .     S
C1156  H1025   1.108   1_655 S
C1159  H1160   1.109   .     S
C1159  H1162   1.110   .     S
C1159  H1161   1.110   .     S
O1163  C1164   1.411   .     S
C1164  H1166   1.115   .     S
C1164  C1167   1.522   .     S
H1165  C1032   1.114   1_655 S
C1167  H1168   1.111   .     S
C1167  H1170   1.111   .     S
C1167  H1169   1.110   .     S
O1173  C1174   1.416   .     S
C1174  C1177   1.532   .     S
C1174  H1175   1.110   .     S
C1174  H1770   1.110   .     S
C1177  H1180   1.109   .     S
C1177  H1772   1.108   .     S
C1177  H1773   1.110   .     S
O1181  C1182   1.419   .     S
C1182  C1185   1.523   .     S
C1182  H1184   1.116   .     S
C1182  H1183   1.108   .     S
C1185  H1188   1.110   .     S
H1186  C1779   1.109   .     S
H1187  C1779   1.111   .     S
C1189  O1213   1.282   .     A
C1189  C1200   1.408   .     S
C1189  O1211   1.278   .     A
C1190  O1214   1.281   .     A
C1190  C1199   1.408   .     S
C1190  O1212   1.278   .     A
C1191  O1217   1.281   .     A
C1191  O1215   1.277   .     A
C1191  C1193   1.413   .     S
C1192  O1218   1.283   .     A
C1192  O1216   1.273   .     A
C1192  C1194   1.407   .     S
C1193  C1326   1.351   1_455 S
C1193  O1353   1.395   1_455 S
C1194  C1259   1.351   .     S
C1194  O1295   1.391   .     S
C1195  C1200   1.394   .     A
C1195  H1205   1.084   .     S
C1195  C1593   1.372   1_545 S
C1196  C1199   1.392   .     A
C1196  H1206   1.082   .     S
C1196  C1396   1.370   .     S
C1197  C1199   1.398   .     A
C1197  F1237   1.359   .     S
C1197  C1393   1.372   .     S
C1198  C1200   1.398   .     A
C1198  F1238   1.359   .     S
C1198  C1592   1.370   1_545 S
C1201  N1210   1.362   .     A
C1201  H1207   1.077   .     S
C1202  N1209   1.361   .     A
C1202  H1208   1.080   .     S
C1202  C16     1.425   1_556 S
C1203  O1239   1.398   .     S
C1203  N1209   1.373   .     A
C1203  C13     1.438   1_556 S
C1204  N1210   1.371   .     A
C1204  O1247   1.387   .     S
N1209  Zn1219  2.009   .     S
N1210  Zn1220  2.009   .     S
O1211  Zn1219  1.982   .     S
O1212  Zn1220  1.982   .     S
O1213  Zn1220  1.990   .     S
O1214  Zn1219  1.990   .     S
O1215  Zn1219  1.983   .     S
O1216  Zn1220  1.983   .     S
O1217  Zn1220  1.992   .     S
O1218  Zn1219  1.992   .     S
O1221  C1222   1.414   .     S
O1221  C1259   1.395   .     S
C1222  C1225   1.521   .     S
C1222  H1224   1.112   .     S
C1222  H1289   1.108   .     S
H1223  C1354   1.108   1_455 S
C1225  H1226   1.109   .     S
C1225  H1228   1.110   .     S
C1225  H1227   1.110   .     S
O1229  C1230   1.411   .     S
O1229  C1326   1.391   1_455 S
C1230  H1232   1.115   .     S
C1230  C1233   1.522   .     S
C1230  H1363   1.114   1_455 S
H1231  C1296   1.114   .     S
C1233  H1234   1.111   .     S
C1233  H1236   1.111   .     S
C1233  H1235   1.110   .     S
O1239  C1240   1.416   .     S
C1240  C1243   1.532   .     S
C1240  H1241   1.110   .     S
C1240  H54     1.110   1_556 S
C1243  H1246   1.109   .     S
C1243  H56     1.108   1_556 S
C1243  H57     1.110   1_556 S
O1247  C1248   1.419   .     S
C1248  C1251   1.523   .     S
C1248  H1250   1.116   .     S
C1248  H1249   1.108   .     S
C1251  H1254   1.110   .     S
H1252  C63     1.109   1_556 S
H1253  C63     1.111   1_556 S
C1255  O1279   1.282   .     A
C1255  C1266   1.408   .     S
C1255  O1277   1.278   .     A
C1256  O1280   1.281   .     A
C1256  C1265   1.408   .     S
C1256  O1278   1.278   .     A
C1257  O1283   1.281   .     A
C1257  O1281   1.277   .     A
C1257  C1259   1.413   .     S
C1258  O1284   1.283   .     A
C1258  O1282   1.273   .     A
C1258  C1260   1.407   .     S
C1260  C1325   1.351   .     S
C1260  O1361   1.391   .     S
C1261  C1266   1.394   .     A
C1261  H1271   1.084   .     S
C1261  C1659   1.372   1_545 S
C1262  C1265   1.392   .     A
C1262  H1272   1.082   .     S
C1262  C1462   1.370   .     S
C1263  C1265   1.398   .     A
C1263  F1303   1.359   .     S
C1263  C1459   1.372   .     S
C1264  C1266   1.398   .     A
C1264  F1304   1.359   .     S
C1264  C1658   1.370   1_545 S
C1267  N1276   1.362   .     A
C1267  H1273   1.077   .     S
C1268  N1275   1.361   .     A
C1268  H1274   1.080   .     S
C1268  C82     1.425   1_556 S
C1269  O1305   1.398   .     S
C1269  N1275   1.373   .     A
C1269  C79     1.438   1_556 S
C1270  N1276   1.371   .     A
C1270  O1313   1.387   .     S
N1275  Zn1285  2.009   .     S
N1276  Zn1286  2.009   .     S
O1277  Zn1285  1.982   .     S
O1278  Zn1286  1.982   .     S
O1279  Zn1286  1.990   .     S
O1280  Zn1285  1.990   .     S
O1281  Zn1285  1.983   .     S
O1282  Zn1286  1.983   .     S
O1283  Zn1286  1.992   .     S
O1284  Zn1285  1.992   .     S
O1287  C1288   1.414   .     S
O1287  C1325   1.395   .     S
C1288  C1291   1.521   .     S
C1288  H1290   1.112   .     S
C1288  H1355   1.108   .     S
C1291  H1292   1.109   .     S
C1291  H1294   1.110   .     S
C1291  H1293   1.110   .     S
O1295  C1296   1.411   .     S
C1296  H1298   1.115   .     S
C1296  C1299   1.522   .     S
H1297  C1362   1.114   .     S
C1299  H1300   1.111   .     S
C1299  H1302   1.111   .     S
C1299  H1301   1.110   .     S
O1305  C1306   1.416   .     S
C1306  C1309   1.532   .     S
C1306  H1307   1.110   .     S
C1306  H120    1.110   1_556 S
C1309  H1312   1.109   .     S
C1309  H122    1.108   1_556 S
C1309  H123    1.110   1_556 S
O1313  C1314   1.419   .     S
C1314  C1317   1.523   .     S
C1314  H1316   1.116   .     S
C1314  H1315   1.108   .     S
C1317  H1320   1.110   .     S
H1318  C129    1.109   1_556 S
H1319  C129    1.111   1_556 S
C1321  O1345   1.282   .     A
C1321  C1332   1.408   .     S
C1321  O1343   1.278   .     A
C1322  O1346   1.281   .     A
C1322  C1331   1.408   .     S
C1322  O1344   1.278   .     A
C1323  O1349   1.281   .     A
C1323  O1347   1.277   .     A
C1323  C1325   1.413   .     S
C1324  O1350   1.283   .     A
C1324  O1348   1.273   .     A
C1324  C1326   1.407   .     S
C1326  C1193   1.351   1_655 S
C1326  O1229   1.391   1_655 S
C1327  C1332   1.394   .     A
C1327  H1337   1.084   .     S
C1327  C1725   1.372   1_545 S
C1328  C1331   1.392   .     A
C1328  H1338   1.082   .     S
C1328  C1528   1.370   .     S
C1329  C1331   1.398   .     A
C1329  F1369   1.359   .     S
C1329  C1525   1.372   .     S
C1330  C1332   1.398   .     A
C1330  F1370   1.359   .     S
C1330  C1724   1.370   1_545 S
C1333  N1342   1.362   .     A
C1333  H1339   1.077   .     S
C1334  N1341   1.361   .     A
C1334  H1340   1.080   .     S
C1334  C148    1.425   1_556 S
C1335  O1371   1.398   .     S
C1335  N1341   1.373   .     A
C1335  C145    1.438   1_556 S
C1336  N1342   1.371   .     A
C1336  O1379   1.387   .     S
N1341  Zn1351  2.009   .     S
N1342  Zn1352  2.009   .     S
O1343  Zn1351  1.982   .     S
O1344  Zn1352  1.982   .     S
O1345  Zn1352  1.990   .     S
O1346  Zn1351  1.990   .     S
O1347  Zn1351  1.983   .     S
O1348  Zn1352  1.983   .     S
O1349  Zn1352  1.992   .     S
O1350  Zn1351  1.992   .     S
O1353  C1354   1.414   .     S
O1353  C1193   1.395   1_655 S
C1354  C1357   1.521   .     S
C1354  H1356   1.112   .     S
C1354  H1223   1.108   1_655 S
C1357  H1358   1.109   .     S
C1357  H1360   1.110   .     S
C1357  H1359   1.110   .     S
O1361  C1362   1.411   .     S
C1362  H1364   1.115   .     S
C1362  C1365   1.522   .     S
H1363  C1230   1.114   1_655 S
C1365  H1366   1.111   .     S
C1365  H1368   1.111   .     S
C1365  H1367   1.110   .     S
O1371  C1372   1.416   .     S
C1372  C1375   1.532   .     S
C1372  H1373   1.110   .     S
C1372  H186    1.110   1_556 S
C1375  H1378   1.109   .     S
C1375  H188    1.108   1_556 S
C1375  H189    1.110   1_556 S
O1379  C1380   1.419   .     S
C1380  C1383   1.523   .     S
C1380  H1382   1.116   .     S
C1380  H1381   1.108   .     S
C1383  H1386   1.110   .     S
H1384  C195    1.109   1_556 S
H1385  C195    1.111   1_556 S
C1387  O1411   1.282   .     A
C1387  C1398   1.408   .     S
C1387  O1409   1.278   .     A
C1388  O1412   1.281   .     A
C1388  C1397   1.408   .     S
C1388  O1410   1.278   .     A
C1389  O1415   1.281   .     A
C1389  O1413   1.277   .     A
C1389  C1391   1.413   .     S
C1390  O1416   1.283   .     A
C1390  O1414   1.273   .     A
C1390  C1392   1.407   .     S
C1391  C1524   1.351   1_455 S
C1391  O1551   1.395   1_455 S
C1392  C1457   1.351   .     S
C1392  O1493   1.391   .     S
C1393  C1398   1.394   .     A
C1393  H1403   1.084   .     S
C1394  C1397   1.392   .     A
C1394  H1404   1.082   .     S
C1394  C1594   1.370   .     S
C1395  C1397   1.398   .     A
C1395  F1435   1.359   .     S
C1395  C1591   1.372   .     S
C1396  C1398   1.398   .     A
C1396  F1436   1.359   .     S
C1399  N1408   1.362   .     A
C1399  H1405   1.077   .     S
C1400  N1407   1.361   .     A
C1400  H1406   1.080   .     S
C1400  C214    1.425   1_556 S
C1401  O1437   1.398   .     S
C1401  N1407   1.373   .     A
C1401  C211    1.438   1_556 S
C1402  N1408   1.371   .     A
C1402  O1445   1.387   .     S
N1407  Zn1417  2.009   .     S
N1408  Zn1418  2.009   .     S
O1409  Zn1417  1.982   .     S
O1410  Zn1418  1.982   .     S
O1411  Zn1418  1.990   .     S
O1412  Zn1417  1.990   .     S
O1413  Zn1417  1.983   .     S
O1414  Zn1418  1.983   .     S
O1415  Zn1418  1.992   .     S
O1416  Zn1417  1.992   .     S
O1419  C1420   1.414   .     S
O1419  C1457   1.395   .     S
C1420  C1423   1.521   .     S
C1420  H1422   1.112   .     S
C1420  H1487   1.108   .     S
H1421  C1552   1.108   1_455 S
C1423  H1424   1.109   .     S
C1423  H1426   1.110   .     S
C1423  H1425   1.110   .     S
O1427  C1428   1.411   .     S
O1427  C1524   1.391   1_455 S
C1428  H1430   1.115   .     S
C1428  C1431   1.522   .     S
C1428  H1561   1.114   1_455 S
H1429  C1494   1.114   .     S
C1431  H1432   1.111   .     S
C1431  H1434   1.111   .     S
C1431  H1433   1.110   .     S
O1437  C1438   1.416   .     S
C1438  C1441   1.532   .     S
C1438  H1439   1.110   .     S
C1438  H252    1.110   1_556 S
C1441  H1444   1.109   .     S
C1441  H254    1.108   1_556 S
C1441  H255    1.110   1_556 S
O1445  C1446   1.419   .     S
C1446  C1449   1.523   .     S
C1446  H1448   1.116   .     S
C1446  H1447   1.108   .     S
C1449  H1452   1.110   .     S
H1450  C261    1.109   1_556 S
H1451  C261    1.111   1_556 S
C1453  O1477   1.282   .     A
C1453  C1464   1.408   .     S
C1453  O1475   1.278   .     A
C1454  O1478   1.281   .     A
C1454  C1463   1.408   .     S
C1454  O1476   1.278   .     A
C1455  O1481   1.281   .     A
C1455  O1479   1.277   .     A
C1455  C1457   1.413   .     S
C1456  O1482   1.283   .     A
C1456  O1480   1.273   .     A
C1456  C1458   1.407   .     S
C1458  C1523   1.351   .     S
C1458  O1559   1.391   .     S
C1459  C1464   1.394   .     A
C1459  H1469   1.084   .     S
C1460  C1463   1.392   .     A
C1460  H1470   1.082   .     S
C1460  C1660   1.370   .     S
C1461  C1463   1.398   .     A
C1461  F1501   1.359   .     S
C1461  C1657   1.372   .     S
C1462  C1464   1.398   .     A
C1462  F1502   1.359   .     S
C1465  N1474   1.362   .     A
C1465  H1471   1.077   .     S
C1466  N1473   1.361   .     A
C1466  H1472   1.080   .     S
C1466  C280    1.425   1_556 S
C1467  O1503   1.398   .     S
C1467  N1473   1.373   .     A
C1467  C277    1.438   1_556 S
C1468  N1474   1.371   .     A
C1468  O1511   1.387   .     S
N1473  Zn1483  2.009   .     S
N1474  Zn1484  2.009   .     S
O1475  Zn1483  1.982   .     S
O1476  Zn1484  1.982   .     S
O1477  Zn1484  1.990   .     S
O1478  Zn1483  1.990   .     S
O1479  Zn1483  1.983   .     S
O1480  Zn1484  1.983   .     S
O1481  Zn1484  1.992   .     S
O1482  Zn1483  1.992   .     S
O1485  C1486   1.414   .     S
O1485  C1523   1.395   .     S
C1486  C1489   1.521   .     S
C1486  H1488   1.112   .     S
C1486  H1553   1.108   .     S
C1489  H1490   1.109   .     S
C1489  H1492   1.110   .     S
C1489  H1491   1.110   .     S
O1493  C1494   1.411   .     S
C1494  H1496   1.115   .     S
C1494  C1497   1.522   .     S
H1495  C1560   1.114   .     S
C1497  H1498   1.111   .     S
C1497  H1500   1.111   .     S
C1497  H1499   1.110   .     S
O1503  C1504   1.416   .     S
C1504  C1507   1.532   .     S
C1504  H1505   1.110   .     S
C1504  H318    1.110   1_556 S
C1507  H1510   1.109   .     S
C1507  H320    1.108   1_556 S
C1507  H321    1.110   1_556 S
O1511  C1512   1.419   .     S
C1512  C1515   1.523   .     S
C1512  H1514   1.116   .     S
C1512  H1513   1.108   .     S
C1515  H1518   1.110   .     S
H1516  C327    1.109   1_556 S
H1517  C327    1.111   1_556 S
C1519  O1543   1.282   .     A
C1519  C1530   1.408   .     S
C1519  O1541   1.278   .     A
C1520  O1544   1.281   .     A
C1520  C1529   1.408   .     S
C1520  O1542   1.278   .     A
C1521  O1547   1.281   .     A
C1521  O1545   1.277   .     A
C1521  C1523   1.413   .     S
C1522  O1548   1.283   .     A
C1522  O1546   1.273   .     A
C1522  C1524   1.407   .     S
C1524  C1391   1.351   1_655 S
C1524  O1427   1.391   1_655 S
C1525  C1530   1.394   .     A
C1525  H1535   1.084   .     S
C1526  C1529   1.392   .     A
C1526  H1536   1.082   .     S
C1526  C1726   1.370   .     S
C1527  C1529   1.398   .     A
C1527  F1567   1.359   .     S
C1527  C1723   1.372   .     S
C1528  C1530   1.398   .     A
C1528  F1568   1.359   .     S
C1531  N1540   1.362   .     A
C1531  H1537   1.077   .     S
C1532  N1539   1.361   .     A
C1532  H1538   1.080   .     S
C1532  C346    1.425   1_556 S
C1533  O1569   1.398   .     S
C1533  N1539   1.373   .     A
C1533  C343    1.438   1_556 S
C1534  N1540   1.371   .     A
C1534  O1577   1.387   .     S
N1539  Zn1549  2.009   .     S
N1540  Zn1550  2.009   .     S
O1541  Zn1549  1.982   .     S
O1542  Zn1550  1.982   .     S
O1543  Zn1550  1.990   .     S
O1544  Zn1549  1.990   .     S
O1545  Zn1549  1.983   .     S
O1546  Zn1550  1.983   .     S
O1547  Zn1550  1.992   .     S
O1548  Zn1549  1.992   .     S
O1551  C1552   1.414   .     S
O1551  C1391   1.395   1_655 S
C1552  C1555   1.521   .     S
C1552  H1554   1.112   .     S
C1552  H1421   1.108   1_655 S
C1555  H1556   1.109   .     S
C1555  H1558   1.110   .     S
C1555  H1557   1.110   .     S
O1559  C1560   1.411   .     S
C1560  H1562   1.115   .     S
C1560  C1563   1.522   .     S
H1561  C1428   1.114   1_655 S
C1563  H1564   1.111   .     S
C1563  H1566   1.111   .     S
C1563  H1565   1.110   .     S
O1569  C1570   1.416   .     S
C1570  C1573   1.532   .     S
C1570  H1571   1.110   .     S
C1570  H384    1.110   1_556 S
C1573  H1576   1.109   .     S
C1573  H386    1.108   1_556 S
C1573  H387    1.110   1_556 S
O1577  C1578   1.419   .     S
C1578  C1581   1.523   .     S
C1578  H1580   1.116   .     S
C1578  H1579   1.108   .     S
C1581  H1584   1.110   .     S
H1582  C393    1.109   1_556 S
H1583  C393    1.111   1_556 S
C1585  O1609   1.282   .     A
C1585  C1596   1.408   .     S
C1585  O1607   1.278   .     A
C1586  O1610   1.281   .     A
C1586  C1595   1.408   .     S
C1586  O1608   1.278   .     A
C1587  O1613   1.281   .     A
C1587  O1611   1.277   .     A
C1587  C1589   1.413   .     S
C1588  O1614   1.283   .     A
C1588  O1612   1.273   .     A
C1588  C1590   1.407   .     S
C1589  C1722   1.351   1_455 S
C1589  O1749   1.395   1_455 S
C1590  C1655   1.351   .     S
C1590  O1691   1.391   .     S
C1591  C1596   1.394   .     A
C1591  H1601   1.084   .     S
C1592  C1595   1.392   .     A
C1592  H1602   1.082   .     S
C1592  C1198   1.370   1_565 S
C1593  C1595   1.398   .     A
C1593  F1633   1.359   .     S
C1593  C1195   1.372   1_565 S
C1594  C1596   1.398   .     A
C1594  F1634   1.359   .     S
C1597  N1606   1.362   .     A
C1597  H1603   1.077   .     S
C1598  N1605   1.361   .     A
C1598  H1604   1.080   .     S
C1598  C412    1.425   1_556 S
C1599  O1635   1.398   .     S
C1599  N1605   1.373   .     A
C1599  C409    1.438   1_556 S
C1600  N1606   1.371   .     A
C1600  O1643   1.387   .     S
N1605  Zn1615  2.009   .     S
N1606  Zn1616  2.009   .     S
O1607  Zn1615  1.982   .     S
O1608  Zn1616  1.982   .     S
O1609  Zn1616  1.990   .     S
O1610  Zn1615  1.990   .     S
O1611  Zn1615  1.983   .     S
O1612  Zn1616  1.983   .     S
O1613  Zn1616  1.992   .     S
O1614  Zn1615  1.992   .     S
O1617  C1618   1.414   .     S
O1617  C1655   1.395   .     S
C1618  C1621   1.521   .     S
C1618  H1620   1.112   .     S
C1618  H1685   1.108   .     S
H1619  C1750   1.108   1_455 S
C1621  H1622   1.109   .     S
C1621  H1624   1.110   .     S
C1621  H1623   1.110   .     S
O1625  C1626   1.411   .     S
O1625  C1722   1.391   1_455 S
C1626  H1628   1.115   .     S
C1626  C1629   1.522   .     S
C1626  H1759   1.114   1_455 S
H1627  C1692   1.114   .     S
C1629  H1630   1.111   .     S
C1629  H1632   1.111   .     S
C1629  H1631   1.110   .     S
O1635  C1636   1.416   .     S
C1636  C1639   1.532   .     S
C1636  H1637   1.110   .     S
C1636  H450    1.110   1_556 S
C1639  H1642   1.109   .     S
C1639  H452    1.108   1_556 S
C1639  H453    1.110   1_556 S
O1643  C1644   1.419   .     S
C1644  C1647   1.523   .     S
C1644  H1646   1.116   .     S
C1644  H1645   1.108   .     S
C1647  H1650   1.110   .     S
H1648  C459    1.109   1_556 S
H1649  C459    1.111   1_556 S
C1651  O1675   1.282   .     A
C1651  C1662   1.408   .     S
C1651  O1673   1.278   .     A
C1652  O1676   1.281   .     A
C1652  C1661   1.408   .     S
C1652  O1674   1.278   .     A
C1653  O1679   1.281   .     A
C1653  O1677   1.277   .     A
C1653  C1655   1.413   .     S
C1654  O1680   1.283   .     A
C1654  O1678   1.273   .     A
C1654  C1656   1.407   .     S
C1656  C1721   1.351   .     S
C1656  O1757   1.391   .     S
C1657  C1662   1.394   .     A
C1657  H1667   1.084   .     S
C1658  C1661   1.392   .     A
C1658  H1668   1.082   .     S
C1658  C1264   1.370   1_565 S
C1659  C1661   1.398   .     A
C1659  F1699   1.359   .     S
C1659  C1261   1.372   1_565 S
C1660  C1662   1.398   .     A
C1660  F1700   1.359   .     S
C1663  N1672   1.362   .     A
C1663  H1669   1.077   .     S
C1664  N1671   1.361   .     A
C1664  H1670   1.080   .     S
C1664  C478    1.425   1_556 S
C1665  O1701   1.398   .     S
C1665  N1671   1.373   .     A
C1665  C475    1.438   1_556 S
C1666  N1672   1.371   .     A
C1666  O1709   1.387   .     S
N1671  Zn1681  2.009   .     S
N1672  Zn1682  2.009   .     S
O1673  Zn1681  1.982   .     S
O1674  Zn1682  1.982   .     S
O1675  Zn1682  1.990   .     S
O1676  Zn1681  1.990   .     S
O1677  Zn1681  1.983   .     S
O1678  Zn1682  1.983   .     S
O1679  Zn1682  1.992   .     S
O1680  Zn1681  1.992   .     S
O1683  C1684   1.414   .     S
O1683  C1721   1.395   .     S
C1684  C1687   1.521   .     S
C1684  H1686   1.112   .     S
C1684  H1751   1.108   .     S
C1687  H1688   1.109   .     S
C1687  H1690   1.110   .     S
C1687  H1689   1.110   .     S
O1691  C1692   1.411   .     S
C1692  H1694   1.115   .     S
C1692  C1695   1.522   .     S
H1693  C1758   1.114   .     S
C1695  H1696   1.111   .     S
C1695  H1698   1.111   .     S
C1695  H1697   1.110   .     S
O1701  C1702   1.416   .     S
C1702  C1705   1.532   .     S
C1702  H1703   1.110   .     S
C1702  H516    1.110   1_556 S
C1705  H1708   1.109   .     S
C1705  H518    1.108   1_556 S
C1705  H519    1.110   1_556 S
O1709  C1710   1.419   .     S
C1710  C1713   1.523   .     S
C1710  H1712   1.116   .     S
C1710  H1711   1.108   .     S
C1713  H1716   1.110   .     S
H1714  C525    1.109   1_556 S
H1715  C525    1.111   1_556 S
C1717  O1741   1.282   .     A
C1717  C1728   1.408   .     S
C1717  O1739   1.278   .     A
C1718  O1742   1.281   .     A
C1718  C1727   1.408   .     S
C1718  O1740   1.278   .     A
C1719  O1745   1.281   .     A
C1719  O1743   1.277   .     A
C1719  C1721   1.413   .     S
C1720  O1746   1.283   .     A
C1720  O1744   1.273   .     A
C1720  C1722   1.407   .     S
C1722  C1589   1.351   1_655 S
C1722  O1625   1.391   1_655 S
C1723  C1728   1.394   .     A
C1723  H1733   1.084   .     S
C1724  C1727   1.392   .     A
C1724  H1734   1.082   .     S
C1724  C1330   1.370   1_565 S
C1725  C1727   1.398   .     A
C1725  F1765   1.359   .     S
C1725  C1327   1.372   1_565 S
C1726  C1728   1.398   .     A
C1726  F1766   1.359   .     S
C1729  N1738   1.362   .     A
C1729  H1735   1.077   .     S
C1730  N1737   1.361   .     A
C1730  H1736   1.080   .     S
C1730  C544    1.425   1_556 S
C1731  O1767   1.398   .     S
C1731  N1737   1.373   .     A
C1731  C541    1.438   1_556 S
C1732  N1738   1.371   .     A
C1732  O1775   1.387   .     S
N1737  Zn1747  2.009   .     S
N1738  Zn1748  2.009   .     S
O1739  Zn1747  1.982   .     S
O1740  Zn1748  1.982   .     S
O1741  Zn1748  1.990   .     S
O1742  Zn1747  1.990   .     S
O1743  Zn1747  1.983   .     S
O1744  Zn1748  1.983   .     S
O1745  Zn1748  1.992   .     S
O1746  Zn1747  1.992   .     S
O1749  C1750   1.414   .     S
O1749  C1589   1.395   1_655 S
C1750  C1753   1.521   .     S
C1750  H1752   1.112   .     S
C1750  H1619   1.108   1_655 S
C1753  H1754   1.109   .     S
C1753  H1756   1.110   .     S
C1753  H1755   1.110   .     S
O1757  C1758   1.411   .     S
C1758  H1760   1.115   .     S
C1758  C1761   1.522   .     S
H1759  C1626   1.114   1_655 S
C1761  H1762   1.111   .     S
C1761  H1764   1.111   .     S
C1761  H1763   1.110   .     S
O1767  C1768   1.416   .     S
C1768  C1771   1.532   .     S
C1768  H1769   1.110   .     S
C1768  H582    1.110   1_556 S
C1771  H1774   1.109   .     S
C1771  H584    1.108   1_556 S
C1771  H585    1.110   1_556 S
O1775  C1776   1.419   .     S
C1776  C1779   1.523   .     S
C1776  H1778   1.116   .     S
C1776  H1777   1.108   .     S
C1779  H1782   1.110   .     S
H1780  C591    1.109   1_556 S
H1781  C591    1.111   1_556 S
