data_str_m3_o10_o18_pcu_sym.21
_audit_creation_date              2020-01-03
_audit_creation_method            'Materials Studio'
_symmetry_space_group_name_H-M    'P1'
_symmetry_Int_Tables_number       1
_symmetry_cell_setting            triclinic
loop_
_symmetry_equiv_pos_as_xyz
  x,y,z
_cell_length_a                    23.5386
_cell_length_b                    25.7069
_cell_length_c                    27.6257
_cell_angle_alpha                 93.4794
_cell_angle_beta                  93.1869
_cell_angle_gamma                 94.2411
loop_
_atom_site_label
_atom_site_type_symbol
_atom_site_fract_x
_atom_site_fract_y
_atom_site_fract_z
_atom_site_U_iso_or_equiv
_atom_site_adp_type
_atom_site_occupancy
O1     O     0.29719   0.24631   0.25309   0.00000  Uiso   1.00
O2     O     0.03614   0.08702   0.24690   0.00000  Uiso   1.00
O3     O     0.05822   0.23702   0.24502   0.00000  Uiso   1.00
O4     O     0.27512   0.09632   0.25498   0.00000  Uiso   1.00
C5     C     0.01505   0.26488   0.24879   0.00000  Uiso   1.00
C6     C     0.31828   0.06845   0.25121   0.00000  Uiso   1.00
O7     O     0.30328   0.17397   0.32247   0.00000  Uiso   1.00
O8     O     0.03005   0.15937   0.17753   0.00000  Uiso   1.00
O9     O     0.06431   0.16467   0.31439   0.00000  Uiso   1.00
O10    O     0.26902   0.16866   0.18561   0.00000  Uiso   1.00
C11    C     0.02111   0.17090   0.34092   0.00000  Uiso   1.00
C12    C     0.31223   0.16243   0.15908   0.00000  Uiso   1.00
Zn13   Zn    0.27033   0.17287   0.25539   0.00000  Uiso   1.00
Zn14   Zn    0.06300   0.16046   0.24461   0.00000  Uiso   1.00
C15    C     0.03213   0.17851   0.39304   0.00000  Uiso   1.00
C16    C     0.30121   0.15483   0.10696   0.00000  Uiso   1.00
C17    C     0.02035   0.22496   0.46985   0.00000  Uiso   1.00
C18    C     0.31298   0.10838   0.03015   0.00000  Uiso   1.00
C19    C     0.00205   0.21271   0.42141   0.00000  Uiso   1.00
C20    C     0.33128   0.12063   0.07859   0.00000  Uiso   1.00
C21    C     0.07926   0.15662   0.41304   0.00000  Uiso   1.00
C22    C     0.25407   0.17671   0.08696   0.00000  Uiso   1.00
C23    C     0.10387   0.17540   0.45829   0.00000  Uiso   1.00
C24    C     0.22947   0.15794   0.04171   0.00000  Uiso   1.00
C25    C     0.07122   0.20640   0.48849   0.00000  Uiso   1.00
C26    C     0.26212   0.12694   0.01151   0.00000  Uiso   1.00
C27    C     0.15870   0.16223   0.47485   0.00000  Uiso   1.00
C28    C     0.17463   0.17110   0.02515   0.00000  Uiso   1.00
C29    C     0.13509   0.19274   0.05691   0.00000  Uiso   1.00
C30    C     0.19824   0.14060   0.44309   0.00000  Uiso   1.00
C31    C     0.08739   0.21500   0.03751   0.00000  Uiso   1.00
C32    C     0.24594   0.11833   0.46249   0.00000  Uiso   1.00
H33    H     0.05929   0.23397   0.06162   0.00000  Uiso   1.00
H34    H     0.27405   0.09937   0.43837   0.00000  Uiso   1.00
H35    H     0.23631   0.20766   0.10800   0.00000  Uiso   1.00
H36    H     0.09703   0.12567   0.39200   0.00000  Uiso   1.00
H37    H     0.03490   0.10329   0.09383   0.00000  Uiso   1.00
H38    H     0.29843   0.23004   0.40617   0.00000  Uiso   1.00
H39    H     0.32875   0.24937   0.49243   0.00000  Uiso   1.00
H40    H     0.00458   0.08397   0.00757   0.00000  Uiso   1.00
C41    C     0.02286   0.31947   0.24807   0.00000  Uiso   1.00
C42    C     0.31048   0.01386   0.25193   0.00000  Uiso   1.00
H43    H     0.06590   0.00332   0.24437   0.00000  Uiso   1.00
H44    H     0.26743   0.33002   0.25563   0.00000  Uiso   1.00
N45    N     0.14695   0.15216   0.23739   0.00000  Uiso   1.00
N46    N     0.18638   0.18117   0.26260   0.00000  Uiso   1.00
H47    H     0.16230   0.12293   0.21587   0.00000  Uiso   1.00
H48    H     0.17103   0.21040   0.28413   0.00000  Uiso   1.00
N49    N     0.13775   0.18583   0.10812   0.00000  Uiso   1.00
O50    O     0.14583   0.14001   0.12365   0.00000  Uiso   1.00
O51    O     0.12439   0.22291   0.13862   0.00000  Uiso   1.00
N52    N     0.19559   0.14751   0.39188   0.00000  Uiso   1.00
O53    O     0.20893   0.11042   0.36138   0.00000  Uiso   1.00
O54    O     0.18750   0.19333   0.37635   0.00000  Uiso   1.00
O55    O     0.63052   0.24631   0.25309   0.00000  Uiso   1.00
O56    O     0.36948   0.08702   0.24690   0.00000  Uiso   1.00
O57    O     0.39155   0.23702   0.24502   0.00000  Uiso   1.00
O58    O     0.60845   0.09632   0.25498   0.00000  Uiso   1.00
C59    C     0.34838   0.26488   0.24879   0.00000  Uiso   1.00
C60    C     0.65162   0.06845   0.25121   0.00000  Uiso   1.00
O61    O     0.63662   0.17397   0.32247   0.00000  Uiso   1.00
O62    O     0.36338   0.15937   0.17753   0.00000  Uiso   1.00
O63    O     0.39764   0.16467   0.31439   0.00000  Uiso   1.00
O64    O     0.60236   0.16866   0.18561   0.00000  Uiso   1.00
C65    C     0.35444   0.17090   0.34092   0.00000  Uiso   1.00
C66    C     0.64556   0.16243   0.15908   0.00000  Uiso   1.00
Zn67   Zn    0.60366   0.17287   0.25539   0.00000  Uiso   1.00
Zn68   Zn    0.39634   0.16046   0.24461   0.00000  Uiso   1.00
C69    C     0.36546   0.17851   0.39304   0.00000  Uiso   1.00
C70    C     0.63454   0.15483   0.10696   0.00000  Uiso   1.00
C71    C     0.35369   0.22496   0.46985   0.00000  Uiso   1.00
C72    C     0.64632   0.10838   0.03015   0.00000  Uiso   1.00
C73    C     0.33538   0.21271   0.42141   0.00000  Uiso   1.00
C74    C     0.66462   0.12063   0.07859   0.00000  Uiso   1.00
C75    C     0.41260   0.15662   0.41304   0.00000  Uiso   1.00
C76    C     0.58740   0.17671   0.08696   0.00000  Uiso   1.00
C77    C     0.43720   0.17540   0.45829   0.00000  Uiso   1.00
C78    C     0.56280   0.15794   0.04171   0.00000  Uiso   1.00
C79    C     0.40455   0.20640   0.48849   0.00000  Uiso   1.00
C80    C     0.59545   0.12694   0.01151   0.00000  Uiso   1.00
C81    C     0.49204   0.16223   0.47485   0.00000  Uiso   1.00
C82    C     0.50796   0.17110   0.02515   0.00000  Uiso   1.00
C83    C     0.46842   0.19274   0.05691   0.00000  Uiso   1.00
C84    C     0.53158   0.14060   0.44309   0.00000  Uiso   1.00
C85    C     0.42072   0.21500   0.03751   0.00000  Uiso   1.00
C86    C     0.57928   0.11833   0.46249   0.00000  Uiso   1.00
H87    H     0.39262   0.23397   0.06162   0.00000  Uiso   1.00
H88    H     0.60738   0.09937   0.43837   0.00000  Uiso   1.00
H89    H     0.56964   0.20766   0.10800   0.00000  Uiso   1.00
H90    H     0.43036   0.12567   0.39200   0.00000  Uiso   1.00
H91    H     0.36823   0.10329   0.09383   0.00000  Uiso   1.00
H92    H     0.63177   0.23004   0.40617   0.00000  Uiso   1.00
H93    H     0.66209   0.24937   0.49243   0.00000  Uiso   1.00
H94    H     0.33791   0.08397   0.00757   0.00000  Uiso   1.00
C95    C     0.35619   0.31947   0.24807   0.00000  Uiso   1.00
C96    C     0.64381   0.01386   0.25193   0.00000  Uiso   1.00
H97    H     0.39924   0.00332   0.24437   0.00000  Uiso   1.00
H98    H     0.60076   0.33002   0.25563   0.00000  Uiso   1.00
N99    N     0.48029   0.15216   0.23739   0.00000  Uiso   1.00
N100   N     0.51971   0.18117   0.26260   0.00000  Uiso   1.00
H101   H     0.49563   0.12293   0.21587   0.00000  Uiso   1.00
H102   H     0.50437   0.21040   0.28413   0.00000  Uiso   1.00
N103   N     0.47108   0.18583   0.10812   0.00000  Uiso   1.00
O104   O     0.47917   0.14001   0.12365   0.00000  Uiso   1.00
O105   O     0.45772   0.22291   0.13862   0.00000  Uiso   1.00
N106   N     0.52892   0.14751   0.39188   0.00000  Uiso   1.00
O107   O     0.54227   0.11042   0.36138   0.00000  Uiso   1.00
O108   O     0.52084   0.19333   0.37635   0.00000  Uiso   1.00
O109   O     0.96386   0.24631   0.25309   0.00000  Uiso   1.00
O110   O     0.70281   0.08702   0.24690   0.00000  Uiso   1.00
O111   O     0.72488   0.23702   0.24502   0.00000  Uiso   1.00
O112   O     0.94178   0.09632   0.25498   0.00000  Uiso   1.00
C113   C     0.68172   0.26488   0.24879   0.00000  Uiso   1.00
C114   C     0.98495   0.06845   0.25121   0.00000  Uiso   1.00
O115   O     0.96995   0.17397   0.32247   0.00000  Uiso   1.00
O116   O     0.69672   0.15937   0.17753   0.00000  Uiso   1.00
O117   O     0.73098   0.16467   0.31439   0.00000  Uiso   1.00
O118   O     0.93569   0.16866   0.18561   0.00000  Uiso   1.00
C119   C     0.68777   0.17090   0.34092   0.00000  Uiso   1.00
C120   C     0.97889   0.16243   0.15908   0.00000  Uiso   1.00
Zn121  Zn    0.93700   0.17287   0.25539   0.00000  Uiso   1.00
Zn122  Zn    0.72967   0.16046   0.24461   0.00000  Uiso   1.00
C123   C     0.69879   0.17851   0.39304   0.00000  Uiso   1.00
C124   C     0.96788   0.15483   0.10696   0.00000  Uiso   1.00
C125   C     0.68702   0.22496   0.46985   0.00000  Uiso   1.00
C126   C     0.97965   0.10838   0.03015   0.00000  Uiso   1.00
C127   C     0.66872   0.21271   0.42141   0.00000  Uiso   1.00
C128   C     0.99795   0.12063   0.07859   0.00000  Uiso   1.00
C129   C     0.74593   0.15662   0.41304   0.00000  Uiso   1.00
C130   C     0.92074   0.17671   0.08696   0.00000  Uiso   1.00
C131   C     0.77053   0.17540   0.45829   0.00000  Uiso   1.00
C132   C     0.89614   0.15794   0.04171   0.00000  Uiso   1.00
C133   C     0.73789   0.20640   0.48849   0.00000  Uiso   1.00
C134   C     0.92878   0.12694   0.01151   0.00000  Uiso   1.00
C135   C     0.82537   0.16223   0.47485   0.00000  Uiso   1.00
C136   C     0.84130   0.17110   0.02515   0.00000  Uiso   1.00
C137   C     0.80176   0.19274   0.05691   0.00000  Uiso   1.00
C138   C     0.86491   0.14060   0.44309   0.00000  Uiso   1.00
C139   C     0.75406   0.21500   0.03751   0.00000  Uiso   1.00
C140   C     0.91261   0.11833   0.46249   0.00000  Uiso   1.00
H141   H     0.72595   0.23397   0.06162   0.00000  Uiso   1.00
H142   H     0.94072   0.09937   0.43837   0.00000  Uiso   1.00
H143   H     0.90297   0.20766   0.10800   0.00000  Uiso   1.00
H144   H     0.76369   0.12567   0.39200   0.00000  Uiso   1.00
H145   H     0.70157   0.10329   0.09383   0.00000  Uiso   1.00
H146   H     0.96510   0.23004   0.40617   0.00000  Uiso   1.00
H147   H     0.99542   0.24937   0.49243   0.00000  Uiso   1.00
H148   H     0.67125   0.08397   0.00757   0.00000  Uiso   1.00
C149   C     0.68952   0.31947   0.24807   0.00000  Uiso   1.00
C150   C     0.97715   0.01386   0.25193   0.00000  Uiso   1.00
H151   H     0.73257   0.00332   0.24437   0.00000  Uiso   1.00
H152   H     0.93410   0.33002   0.25563   0.00000  Uiso   1.00
N153   N     0.81362   0.15216   0.23739   0.00000  Uiso   1.00
N154   N     0.85305   0.18117   0.26260   0.00000  Uiso   1.00
H155   H     0.82897   0.12293   0.21587   0.00000  Uiso   1.00
H156   H     0.83770   0.21040   0.28413   0.00000  Uiso   1.00
N157   N     0.80441   0.18583   0.10812   0.00000  Uiso   1.00
O158   O     0.81250   0.14001   0.12365   0.00000  Uiso   1.00
O159   O     0.79106   0.22291   0.13862   0.00000  Uiso   1.00
N160   N     0.86226   0.14751   0.39188   0.00000  Uiso   1.00
O161   O     0.87560   0.11042   0.36138   0.00000  Uiso   1.00
O162   O     0.85417   0.19333   0.37635   0.00000  Uiso   1.00
O163   O     0.29719   0.57964   0.25309   0.00000  Uiso   1.00
O164   O     0.03614   0.42036   0.24690   0.00000  Uiso   1.00
O165   O     0.05822   0.57035   0.24502   0.00000  Uiso   1.00
O166   O     0.27512   0.42965   0.25498   0.00000  Uiso   1.00
C167   C     0.01505   0.59821   0.24879   0.00000  Uiso   1.00
C168   C     0.31828   0.40179   0.25121   0.00000  Uiso   1.00
O169   O     0.30328   0.50730   0.32247   0.00000  Uiso   1.00
O170   O     0.03005   0.49270   0.17753   0.00000  Uiso   1.00
O171   O     0.06431   0.49801   0.31439   0.00000  Uiso   1.00
O172   O     0.26902   0.50199   0.18561   0.00000  Uiso   1.00
C173   C     0.02111   0.50423   0.34092   0.00000  Uiso   1.00
C174   C     0.31223   0.49577   0.15908   0.00000  Uiso   1.00
Zn175  Zn    0.27033   0.50621   0.25539   0.00000  Uiso   1.00
Zn176  Zn    0.06300   0.49379   0.24461   0.00000  Uiso   1.00
C177   C     0.03213   0.51184   0.39304   0.00000  Uiso   1.00
C178   C     0.30121   0.48816   0.10696   0.00000  Uiso   1.00
C179   C     0.02035   0.55830   0.46985   0.00000  Uiso   1.00
C180   C     0.31298   0.44171   0.03015   0.00000  Uiso   1.00
C181   C     0.00205   0.54604   0.42141   0.00000  Uiso   1.00
C182   C     0.33128   0.45396   0.07859   0.00000  Uiso   1.00
C183   C     0.07926   0.48995   0.41304   0.00000  Uiso   1.00
C184   C     0.25407   0.51005   0.08696   0.00000  Uiso   1.00
C185   C     0.10387   0.50873   0.45829   0.00000  Uiso   1.00
C186   C     0.22947   0.49127   0.04171   0.00000  Uiso   1.00
C187   C     0.07122   0.53973   0.48849   0.00000  Uiso   1.00
C188   C     0.26212   0.46027   0.01151   0.00000  Uiso   1.00
C189   C     0.15870   0.49557   0.47485   0.00000  Uiso   1.00
C190   C     0.17463   0.50444   0.02515   0.00000  Uiso   1.00
C191   C     0.13509   0.52607   0.05691   0.00000  Uiso   1.00
C192   C     0.19824   0.47393   0.44309   0.00000  Uiso   1.00
C193   C     0.08739   0.54834   0.03751   0.00000  Uiso   1.00
C194   C     0.24594   0.45167   0.46249   0.00000  Uiso   1.00
H195   H     0.05929   0.56730   0.06162   0.00000  Uiso   1.00
H196   H     0.27405   0.43271   0.43837   0.00000  Uiso   1.00
H197   H     0.23631   0.54100   0.10800   0.00000  Uiso   1.00
H198   H     0.09703   0.45900   0.39200   0.00000  Uiso   1.00
H199   H     0.03490   0.43663   0.09383   0.00000  Uiso   1.00
H200   H     0.29843   0.56338   0.40617   0.00000  Uiso   1.00
H201   H     0.32875   0.58270   0.49243   0.00000  Uiso   1.00
H202   H     0.00458   0.41730   0.00757   0.00000  Uiso   1.00
C203   C     0.02286   0.65281   0.24807   0.00000  Uiso   1.00
C204   C     0.31048   0.34719   0.25193   0.00000  Uiso   1.00
H205   H     0.06590   0.33665   0.24437   0.00000  Uiso   1.00
H206   H     0.26743   0.66335   0.25563   0.00000  Uiso   1.00
N207   N     0.14695   0.48550   0.23739   0.00000  Uiso   1.00
N208   N     0.18638   0.51450   0.26260   0.00000  Uiso   1.00
H209   H     0.16230   0.45627   0.21587   0.00000  Uiso   1.00
H210   H     0.17103   0.54373   0.28413   0.00000  Uiso   1.00
N211   N     0.13775   0.51916   0.10812   0.00000  Uiso   1.00
O212   O     0.14583   0.47334   0.12365   0.00000  Uiso   1.00
O213   O     0.12439   0.55625   0.13862   0.00000  Uiso   1.00
N214   N     0.19559   0.48084   0.39188   0.00000  Uiso   1.00
O215   O     0.20893   0.44375   0.36138   0.00000  Uiso   1.00
O216   O     0.18750   0.52666   0.37635   0.00000  Uiso   1.00
O217   O     0.63052   0.57964   0.25309   0.00000  Uiso   1.00
O218   O     0.36948   0.42036   0.24690   0.00000  Uiso   1.00
O219   O     0.39155   0.57035   0.24502   0.00000  Uiso   1.00
O220   O     0.60845   0.42965   0.25498   0.00000  Uiso   1.00
C221   C     0.34838   0.59821   0.24879   0.00000  Uiso   1.00
C222   C     0.65162   0.40179   0.25121   0.00000  Uiso   1.00
O223   O     0.63662   0.50730   0.32247   0.00000  Uiso   1.00
O224   O     0.36338   0.49270   0.17753   0.00000  Uiso   1.00
O225   O     0.39764   0.49801   0.31439   0.00000  Uiso   1.00
O226   O     0.60236   0.50199   0.18561   0.00000  Uiso   1.00
C227   C     0.35444   0.50423   0.34092   0.00000  Uiso   1.00
C228   C     0.64556   0.49577   0.15908   0.00000  Uiso   1.00
Zn229  Zn    0.60366   0.50621   0.25539   0.00000  Uiso   1.00
Zn230  Zn    0.39634   0.49379   0.24461   0.00000  Uiso   1.00
C231   C     0.36546   0.51184   0.39304   0.00000  Uiso   1.00
C232   C     0.63454   0.48816   0.10696   0.00000  Uiso   1.00
C233   C     0.35369   0.55830   0.46985   0.00000  Uiso   1.00
C234   C     0.64632   0.44171   0.03015   0.00000  Uiso   1.00
C235   C     0.33538   0.54604   0.42141   0.00000  Uiso   1.00
C236   C     0.66462   0.45396   0.07859   0.00000  Uiso   1.00
C237   C     0.41260   0.48995   0.41304   0.00000  Uiso   1.00
C238   C     0.58740   0.51005   0.08696   0.00000  Uiso   1.00
C239   C     0.43720   0.50873   0.45829   0.00000  Uiso   1.00
C240   C     0.56280   0.49127   0.04171   0.00000  Uiso   1.00
C241   C     0.40455   0.53973   0.48849   0.00000  Uiso   1.00
C242   C     0.59545   0.46027   0.01151   0.00000  Uiso   1.00
C243   C     0.49204   0.49557   0.47485   0.00000  Uiso   1.00
C244   C     0.50796   0.50444   0.02515   0.00000  Uiso   1.00
C245   C     0.46842   0.52607   0.05691   0.00000  Uiso   1.00
C246   C     0.53158   0.47393   0.44309   0.00000  Uiso   1.00
C247   C     0.42072   0.54834   0.03751   0.00000  Uiso   1.00
C248   C     0.57928   0.45167   0.46249   0.00000  Uiso   1.00
H249   H     0.39262   0.56730   0.06162   0.00000  Uiso   1.00
H250   H     0.60738   0.43271   0.43837   0.00000  Uiso   1.00
H251   H     0.56964   0.54100   0.10800   0.00000  Uiso   1.00
H252   H     0.43036   0.45900   0.39200   0.00000  Uiso   1.00
H253   H     0.36823   0.43663   0.09383   0.00000  Uiso   1.00
H254   H     0.63177   0.56338   0.40617   0.00000  Uiso   1.00
H255   H     0.66209   0.58270   0.49243   0.00000  Uiso   1.00
H256   H     0.33791   0.41730   0.00757   0.00000  Uiso   1.00
C257   C     0.35619   0.65281   0.24807   0.00000  Uiso   1.00
C258   C     0.64381   0.34719   0.25193   0.00000  Uiso   1.00
H259   H     0.39924   0.33665   0.24437   0.00000  Uiso   1.00
H260   H     0.60076   0.66335   0.25563   0.00000  Uiso   1.00
N261   N     0.48029   0.48550   0.23739   0.00000  Uiso   1.00
N262   N     0.51971   0.51450   0.26260   0.00000  Uiso   1.00
H263   H     0.49563   0.45627   0.21587   0.00000  Uiso   1.00
H264   H     0.50437   0.54373   0.28413   0.00000  Uiso   1.00
N265   N     0.47108   0.51916   0.10812   0.00000  Uiso   1.00
O266   O     0.47917   0.47334   0.12365   0.00000  Uiso   1.00
O267   O     0.45772   0.55625   0.13862   0.00000  Uiso   1.00
N268   N     0.52892   0.48084   0.39188   0.00000  Uiso   1.00
O269   O     0.54227   0.44375   0.36138   0.00000  Uiso   1.00
O270   O     0.52084   0.52666   0.37635   0.00000  Uiso   1.00
O271   O     0.96386   0.57964   0.25309   0.00000  Uiso   1.00
O272   O     0.70281   0.42036   0.24690   0.00000  Uiso   1.00
O273   O     0.72488   0.57035   0.24502   0.00000  Uiso   1.00
O274   O     0.94178   0.42965   0.25498   0.00000  Uiso   1.00
C275   C     0.68172   0.59821   0.24879   0.00000  Uiso   1.00
C276   C     0.98495   0.40179   0.25121   0.00000  Uiso   1.00
O277   O     0.96995   0.50730   0.32247   0.00000  Uiso   1.00
O278   O     0.69672   0.49270   0.17753   0.00000  Uiso   1.00
O279   O     0.73098   0.49801   0.31439   0.00000  Uiso   1.00
O280   O     0.93569   0.50199   0.18561   0.00000  Uiso   1.00
C281   C     0.68777   0.50423   0.34092   0.00000  Uiso   1.00
C282   C     0.97889   0.49577   0.15908   0.00000  Uiso   1.00
Zn283  Zn    0.93700   0.50621   0.25539   0.00000  Uiso   1.00
Zn284  Zn    0.72967   0.49379   0.24461   0.00000  Uiso   1.00
C285   C     0.69879   0.51184   0.39304   0.00000  Uiso   1.00
C286   C     0.96788   0.48816   0.10696   0.00000  Uiso   1.00
C287   C     0.68702   0.55830   0.46985   0.00000  Uiso   1.00
C288   C     0.97965   0.44171   0.03015   0.00000  Uiso   1.00
C289   C     0.66872   0.54604   0.42141   0.00000  Uiso   1.00
C290   C     0.99795   0.45396   0.07859   0.00000  Uiso   1.00
C291   C     0.74593   0.48995   0.41304   0.00000  Uiso   1.00
C292   C     0.92074   0.51005   0.08696   0.00000  Uiso   1.00
C293   C     0.77053   0.50873   0.45829   0.00000  Uiso   1.00
C294   C     0.89614   0.49127   0.04171   0.00000  Uiso   1.00
C295   C     0.73789   0.53973   0.48849   0.00000  Uiso   1.00
C296   C     0.92878   0.46027   0.01151   0.00000  Uiso   1.00
C297   C     0.82537   0.49557   0.47485   0.00000  Uiso   1.00
C298   C     0.84130   0.50444   0.02515   0.00000  Uiso   1.00
C299   C     0.80176   0.52607   0.05691   0.00000  Uiso   1.00
C300   C     0.86491   0.47393   0.44309   0.00000  Uiso   1.00
C301   C     0.75406   0.54834   0.03751   0.00000  Uiso   1.00
C302   C     0.91261   0.45167   0.46249   0.00000  Uiso   1.00
H303   H     0.72595   0.56730   0.06162   0.00000  Uiso   1.00
H304   H     0.94072   0.43271   0.43837   0.00000  Uiso   1.00
H305   H     0.90297   0.54100   0.10800   0.00000  Uiso   1.00
H306   H     0.76369   0.45900   0.39200   0.00000  Uiso   1.00
H307   H     0.70157   0.43663   0.09383   0.00000  Uiso   1.00
H308   H     0.96510   0.56338   0.40617   0.00000  Uiso   1.00
H309   H     0.99542   0.58270   0.49243   0.00000  Uiso   1.00
H310   H     0.67125   0.41730   0.00757   0.00000  Uiso   1.00
C311   C     0.68952   0.65281   0.24807   0.00000  Uiso   1.00
C312   C     0.97715   0.34719   0.25193   0.00000  Uiso   1.00
H313   H     0.73257   0.33665   0.24437   0.00000  Uiso   1.00
H314   H     0.93410   0.66335   0.25563   0.00000  Uiso   1.00
N315   N     0.81362   0.48550   0.23739   0.00000  Uiso   1.00
N316   N     0.85305   0.51450   0.26260   0.00000  Uiso   1.00
H317   H     0.82897   0.45627   0.21587   0.00000  Uiso   1.00
H318   H     0.83770   0.54373   0.28413   0.00000  Uiso   1.00
N319   N     0.80441   0.51916   0.10812   0.00000  Uiso   1.00
O320   O     0.81250   0.47334   0.12365   0.00000  Uiso   1.00
O321   O     0.79106   0.55625   0.13862   0.00000  Uiso   1.00
N322   N     0.86226   0.48084   0.39188   0.00000  Uiso   1.00
O323   O     0.87560   0.44375   0.36138   0.00000  Uiso   1.00
O324   O     0.85417   0.52666   0.37635   0.00000  Uiso   1.00
O325   O     0.29719   0.91298   0.25309   0.00000  Uiso   1.00
O326   O     0.03614   0.75369   0.24690   0.00000  Uiso   1.00
O327   O     0.05822   0.90368   0.24502   0.00000  Uiso   1.00
O328   O     0.27512   0.76298   0.25498   0.00000  Uiso   1.00
C329   C     0.01505   0.93155   0.24879   0.00000  Uiso   1.00
C330   C     0.31828   0.73512   0.25121   0.00000  Uiso   1.00
O331   O     0.30328   0.84063   0.32247   0.00000  Uiso   1.00
O332   O     0.03005   0.82603   0.17753   0.00000  Uiso   1.00
O333   O     0.06431   0.83134   0.31439   0.00000  Uiso   1.00
O334   O     0.26902   0.83533   0.18561   0.00000  Uiso   1.00
C335   C     0.02111   0.83757   0.34092   0.00000  Uiso   1.00
C336   C     0.31223   0.82910   0.15908   0.00000  Uiso   1.00
Zn337  Zn    0.27033   0.83954   0.25539   0.00000  Uiso   1.00
Zn338  Zn    0.06300   0.82713   0.24461   0.00000  Uiso   1.00
C339   C     0.03213   0.84517   0.39304   0.00000  Uiso   1.00
C340   C     0.30121   0.82149   0.10696   0.00000  Uiso   1.00
C341   C     0.02035   0.89163   0.46985   0.00000  Uiso   1.00
C342   C     0.31298   0.77504   0.03015   0.00000  Uiso   1.00
C343   C     0.00205   0.87938   0.42141   0.00000  Uiso   1.00
C344   C     0.33128   0.78729   0.07859   0.00000  Uiso   1.00
C345   C     0.07926   0.82329   0.41304   0.00000  Uiso   1.00
C346   C     0.25407   0.84338   0.08696   0.00000  Uiso   1.00
C347   C     0.10387   0.84206   0.45829   0.00000  Uiso   1.00
C348   C     0.22947   0.82461   0.04171   0.00000  Uiso   1.00
C349   C     0.07122   0.87307   0.48849   0.00000  Uiso   1.00
C350   C     0.26212   0.79360   0.01151   0.00000  Uiso   1.00
C351   C     0.15870   0.82890   0.47485   0.00000  Uiso   1.00
C352   C     0.17463   0.83777   0.02515   0.00000  Uiso   1.00
C353   C     0.13509   0.85941   0.05691   0.00000  Uiso   1.00
C354   C     0.19824   0.80726   0.44309   0.00000  Uiso   1.00
C355   C     0.08739   0.88167   0.03751   0.00000  Uiso   1.00
C356   C     0.24594   0.78500   0.46249   0.00000  Uiso   1.00
H357   H     0.05929   0.90063   0.06162   0.00000  Uiso   1.00
H358   H     0.27405   0.76604   0.43837   0.00000  Uiso   1.00
H359   H     0.23631   0.87433   0.10800   0.00000  Uiso   1.00
H360   H     0.09703   0.79234   0.39200   0.00000  Uiso   1.00
H361   H     0.03490   0.76996   0.09383   0.00000  Uiso   1.00
H362   H     0.29843   0.89671   0.40617   0.00000  Uiso   1.00
H363   H     0.32875   0.91604   0.49243   0.00000  Uiso   1.00
H364   H     0.00458   0.75063   0.00757   0.00000  Uiso   1.00
C365   C     0.02286   0.98614   0.24807   0.00000  Uiso   1.00
C366   C     0.31048   0.68053   0.25193   0.00000  Uiso   1.00
H367   H     0.06590   0.66998   0.24437   0.00000  Uiso   1.00
H368   H     0.26743   0.99668   0.25563   0.00000  Uiso   1.00
N369   N     0.14695   0.81883   0.23739   0.00000  Uiso   1.00
N370   N     0.18638   0.84784   0.26260   0.00000  Uiso   1.00
H371   H     0.16230   0.78960   0.21587   0.00000  Uiso   1.00
H372   H     0.17103   0.87707   0.28413   0.00000  Uiso   1.00
N373   N     0.13775   0.85249   0.10812   0.00000  Uiso   1.00
O374   O     0.14583   0.80668   0.12365   0.00000  Uiso   1.00
O375   O     0.12439   0.88958   0.13862   0.00000  Uiso   1.00
N376   N     0.19559   0.81418   0.39188   0.00000  Uiso   1.00
O377   O     0.20893   0.77709   0.36138   0.00000  Uiso   1.00
O378   O     0.18750   0.85999   0.37635   0.00000  Uiso   1.00
O379   O     0.63052   0.91298   0.25309   0.00000  Uiso   1.00
O380   O     0.36948   0.75369   0.24690   0.00000  Uiso   1.00
O381   O     0.39155   0.90368   0.24502   0.00000  Uiso   1.00
O382   O     0.60845   0.76298   0.25498   0.00000  Uiso   1.00
C383   C     0.34838   0.93155   0.24879   0.00000  Uiso   1.00
C384   C     0.65162   0.73512   0.25121   0.00000  Uiso   1.00
O385   O     0.63662   0.84063   0.32247   0.00000  Uiso   1.00
O386   O     0.36338   0.82603   0.17753   0.00000  Uiso   1.00
O387   O     0.39764   0.83134   0.31439   0.00000  Uiso   1.00
O388   O     0.60236   0.83533   0.18561   0.00000  Uiso   1.00
C389   C     0.35444   0.83757   0.34092   0.00000  Uiso   1.00
C390   C     0.64556   0.82910   0.15908   0.00000  Uiso   1.00
Zn391  Zn    0.60366   0.83954   0.25539   0.00000  Uiso   1.00
Zn392  Zn    0.39634   0.82713   0.24461   0.00000  Uiso   1.00
C393   C     0.36546   0.84517   0.39304   0.00000  Uiso   1.00
C394   C     0.63454   0.82149   0.10696   0.00000  Uiso   1.00
C395   C     0.35369   0.89163   0.46985   0.00000  Uiso   1.00
C396   C     0.64632   0.77504   0.03015   0.00000  Uiso   1.00
C397   C     0.33538   0.87938   0.42141   0.00000  Uiso   1.00
C398   C     0.66462   0.78729   0.07859   0.00000  Uiso   1.00
C399   C     0.41260   0.82329   0.41304   0.00000  Uiso   1.00
C400   C     0.58740   0.84338   0.08696   0.00000  Uiso   1.00
C401   C     0.43720   0.84206   0.45829   0.00000  Uiso   1.00
C402   C     0.56280   0.82461   0.04171   0.00000  Uiso   1.00
C403   C     0.40455   0.87307   0.48849   0.00000  Uiso   1.00
C404   C     0.59545   0.79360   0.01151   0.00000  Uiso   1.00
C405   C     0.49204   0.82890   0.47485   0.00000  Uiso   1.00
C406   C     0.50796   0.83777   0.02515   0.00000  Uiso   1.00
C407   C     0.46842   0.85941   0.05691   0.00000  Uiso   1.00
C408   C     0.53158   0.80726   0.44309   0.00000  Uiso   1.00
C409   C     0.42072   0.88167   0.03751   0.00000  Uiso   1.00
C410   C     0.57928   0.78500   0.46249   0.00000  Uiso   1.00
H411   H     0.39262   0.90063   0.06162   0.00000  Uiso   1.00
H412   H     0.60738   0.76604   0.43837   0.00000  Uiso   1.00
H413   H     0.56964   0.87433   0.10800   0.00000  Uiso   1.00
H414   H     0.43036   0.79234   0.39200   0.00000  Uiso   1.00
H415   H     0.36823   0.76996   0.09383   0.00000  Uiso   1.00
H416   H     0.63177   0.89671   0.40617   0.00000  Uiso   1.00
H417   H     0.66209   0.91604   0.49243   0.00000  Uiso   1.00
H418   H     0.33791   0.75063   0.00757   0.00000  Uiso   1.00
C419   C     0.35619   0.98614   0.24807   0.00000  Uiso   1.00
C420   C     0.64381   0.68053   0.25193   0.00000  Uiso   1.00
H421   H     0.39924   0.66998   0.24437   0.00000  Uiso   1.00
H422   H     0.60076   0.99668   0.25563   0.00000  Uiso   1.00
N423   N     0.48029   0.81883   0.23739   0.00000  Uiso   1.00
N424   N     0.51971   0.84784   0.26260   0.00000  Uiso   1.00
H425   H     0.49563   0.78960   0.21587   0.00000  Uiso   1.00
H426   H     0.50437   0.87707   0.28413   0.00000  Uiso   1.00
N427   N     0.47108   0.85249   0.10812   0.00000  Uiso   1.00
O428   O     0.47917   0.80668   0.12365   0.00000  Uiso   1.00
O429   O     0.45772   0.88958   0.13862   0.00000  Uiso   1.00
N430   N     0.52892   0.81418   0.39188   0.00000  Uiso   1.00
O431   O     0.54227   0.77709   0.36138   0.00000  Uiso   1.00
O432   O     0.52084   0.85999   0.37635   0.00000  Uiso   1.00
O433   O     0.96386   0.91298   0.25309   0.00000  Uiso   1.00
O434   O     0.70281   0.75369   0.24690   0.00000  Uiso   1.00
O435   O     0.72488   0.90368   0.24502   0.00000  Uiso   1.00
O436   O     0.94178   0.76298   0.25498   0.00000  Uiso   1.00
C437   C     0.68172   0.93155   0.24879   0.00000  Uiso   1.00
C438   C     0.98495   0.73512   0.25121   0.00000  Uiso   1.00
O439   O     0.96995   0.84063   0.32247   0.00000  Uiso   1.00
O440   O     0.69672   0.82603   0.17753   0.00000  Uiso   1.00
O441   O     0.73098   0.83134   0.31439   0.00000  Uiso   1.00
O442   O     0.93569   0.83533   0.18561   0.00000  Uiso   1.00
C443   C     0.68777   0.83757   0.34092   0.00000  Uiso   1.00
C444   C     0.97889   0.82910   0.15908   0.00000  Uiso   1.00
Zn445  Zn    0.93700   0.83954   0.25539   0.00000  Uiso   1.00
Zn446  Zn    0.72967   0.82713   0.24461   0.00000  Uiso   1.00
C447   C     0.69879   0.84517   0.39304   0.00000  Uiso   1.00
C448   C     0.96788   0.82149   0.10696   0.00000  Uiso   1.00
C449   C     0.68702   0.89163   0.46985   0.00000  Uiso   1.00
C450   C     0.97965   0.77504   0.03015   0.00000  Uiso   1.00
C451   C     0.66872   0.87938   0.42141   0.00000  Uiso   1.00
C452   C     0.99795   0.78729   0.07859   0.00000  Uiso   1.00
C453   C     0.74593   0.82329   0.41304   0.00000  Uiso   1.00
C454   C     0.92074   0.84338   0.08696   0.00000  Uiso   1.00
C455   C     0.77053   0.84206   0.45829   0.00000  Uiso   1.00
C456   C     0.89614   0.82461   0.04171   0.00000  Uiso   1.00
C457   C     0.73789   0.87307   0.48849   0.00000  Uiso   1.00
C458   C     0.92878   0.79360   0.01151   0.00000  Uiso   1.00
C459   C     0.82537   0.82890   0.47485   0.00000  Uiso   1.00
C460   C     0.84130   0.83777   0.02515   0.00000  Uiso   1.00
C461   C     0.80176   0.85941   0.05691   0.00000  Uiso   1.00
C462   C     0.86491   0.80726   0.44309   0.00000  Uiso   1.00
C463   C     0.75406   0.88167   0.03751   0.00000  Uiso   1.00
C464   C     0.91261   0.78500   0.46249   0.00000  Uiso   1.00
H465   H     0.72595   0.90063   0.06162   0.00000  Uiso   1.00
H466   H     0.94072   0.76604   0.43837   0.00000  Uiso   1.00
H467   H     0.90297   0.87433   0.10800   0.00000  Uiso   1.00
H468   H     0.76369   0.79234   0.39200   0.00000  Uiso   1.00
H469   H     0.70157   0.76996   0.09383   0.00000  Uiso   1.00
H470   H     0.96510   0.89671   0.40617   0.00000  Uiso   1.00
H471   H     0.99542   0.91604   0.49243   0.00000  Uiso   1.00
H472   H     0.67125   0.75063   0.00757   0.00000  Uiso   1.00
C473   C     0.68952   0.98614   0.24807   0.00000  Uiso   1.00
C474   C     0.97715   0.68053   0.25193   0.00000  Uiso   1.00
H475   H     0.73257   0.66998   0.24437   0.00000  Uiso   1.00
H476   H     0.93410   0.99668   0.25563   0.00000  Uiso   1.00
N477   N     0.81362   0.81883   0.23739   0.00000  Uiso   1.00
N478   N     0.85305   0.84784   0.26260   0.00000  Uiso   1.00
H479   H     0.82897   0.78960   0.21587   0.00000  Uiso   1.00
H480   H     0.83770   0.87707   0.28413   0.00000  Uiso   1.00
N481   N     0.80441   0.85249   0.10812   0.00000  Uiso   1.00
O482   O     0.81250   0.80668   0.12365   0.00000  Uiso   1.00
O483   O     0.79106   0.88958   0.13862   0.00000  Uiso   1.00
N484   N     0.86226   0.81418   0.39188   0.00000  Uiso   1.00
O485   O     0.87560   0.77709   0.36138   0.00000  Uiso   1.00
O486   O     0.85417   0.85999   0.37635   0.00000  Uiso   1.00
O487   O     0.29719   0.24631   0.75309   0.00000  Uiso   1.00
O488   O     0.03614   0.08702   0.74690   0.00000  Uiso   1.00
O489   O     0.05822   0.23702   0.74502   0.00000  Uiso   1.00
O490   O     0.27512   0.09632   0.75498   0.00000  Uiso   1.00
C491   C     0.01505   0.26488   0.74879   0.00000  Uiso   1.00
C492   C     0.31828   0.06845   0.75121   0.00000  Uiso   1.00
O493   O     0.30328   0.17397   0.82247   0.00000  Uiso   1.00
O494   O     0.03005   0.15937   0.67753   0.00000  Uiso   1.00
O495   O     0.06431   0.16467   0.81439   0.00000  Uiso   1.00
O496   O     0.26902   0.16866   0.68561   0.00000  Uiso   1.00
C497   C     0.02111   0.17090   0.84092   0.00000  Uiso   1.00
C498   C     0.31223   0.16243   0.65908   0.00000  Uiso   1.00
Zn499  Zn    0.27033   0.17287   0.75539   0.00000  Uiso   1.00
Zn500  Zn    0.06300   0.16046   0.74461   0.00000  Uiso   1.00
C501   C     0.03213   0.17851   0.89304   0.00000  Uiso   1.00
C502   C     0.30121   0.15483   0.60696   0.00000  Uiso   1.00
C503   C     0.02035   0.22496   0.96985   0.00000  Uiso   1.00
C504   C     0.31298   0.10838   0.53015   0.00000  Uiso   1.00
C505   C     0.00205   0.21271   0.92141   0.00000  Uiso   1.00
C506   C     0.33128   0.12063   0.57859   0.00000  Uiso   1.00
C507   C     0.07926   0.15662   0.91304   0.00000  Uiso   1.00
C508   C     0.25407   0.17671   0.58696   0.00000  Uiso   1.00
C509   C     0.10387   0.17540   0.95829   0.00000  Uiso   1.00
C510   C     0.22947   0.15794   0.54171   0.00000  Uiso   1.00
C511   C     0.07122   0.20640   0.98849   0.00000  Uiso   1.00
C512   C     0.26212   0.12694   0.51151   0.00000  Uiso   1.00
C513   C     0.15870   0.16223   0.97485   0.00000  Uiso   1.00
C514   C     0.17463   0.17110   0.52515   0.00000  Uiso   1.00
C515   C     0.13509   0.19274   0.55691   0.00000  Uiso   1.00
C516   C     0.19824   0.14060   0.94309   0.00000  Uiso   1.00
C517   C     0.08739   0.21500   0.53751   0.00000  Uiso   1.00
C518   C     0.24594   0.11833   0.96249   0.00000  Uiso   1.00
H519   H     0.05929   0.23397   0.56162   0.00000  Uiso   1.00
H520   H     0.27405   0.09937   0.93837   0.00000  Uiso   1.00
H521   H     0.23631   0.20766   0.60800   0.00000  Uiso   1.00
H522   H     0.09703   0.12567   0.89200   0.00000  Uiso   1.00
H523   H     0.03490   0.10329   0.59383   0.00000  Uiso   1.00
H524   H     0.29843   0.23004   0.90617   0.00000  Uiso   1.00
H525   H     0.32875   0.24937   0.99243   0.00000  Uiso   1.00
H526   H     0.00458   0.08397   0.50757   0.00000  Uiso   1.00
C527   C     0.02286   0.31947   0.74807   0.00000  Uiso   1.00
C528   C     0.31048   0.01386   0.75193   0.00000  Uiso   1.00
H529   H     0.06590   0.00332   0.74437   0.00000  Uiso   1.00
H530   H     0.26743   0.33002   0.75563   0.00000  Uiso   1.00
N531   N     0.14695   0.15216   0.73739   0.00000  Uiso   1.00
N532   N     0.18638   0.18117   0.76260   0.00000  Uiso   1.00
H533   H     0.16230   0.12293   0.71587   0.00000  Uiso   1.00
H534   H     0.17103   0.21040   0.78413   0.00000  Uiso   1.00
N535   N     0.13775   0.18583   0.60812   0.00000  Uiso   1.00
O536   O     0.14583   0.14001   0.62365   0.00000  Uiso   1.00
O537   O     0.12439   0.22291   0.63862   0.00000  Uiso   1.00
N538   N     0.19559   0.14751   0.89188   0.00000  Uiso   1.00
O539   O     0.20893   0.11042   0.86138   0.00000  Uiso   1.00
O540   O     0.18750   0.19333   0.87635   0.00000  Uiso   1.00
O541   O     0.63052   0.24631   0.75309   0.00000  Uiso   1.00
O542   O     0.36948   0.08702   0.74690   0.00000  Uiso   1.00
O543   O     0.39155   0.23702   0.74502   0.00000  Uiso   1.00
O544   O     0.60845   0.09632   0.75498   0.00000  Uiso   1.00
C545   C     0.34838   0.26488   0.74879   0.00000  Uiso   1.00
C546   C     0.65162   0.06845   0.75121   0.00000  Uiso   1.00
O547   O     0.63662   0.17397   0.82247   0.00000  Uiso   1.00
O548   O     0.36338   0.15937   0.67753   0.00000  Uiso   1.00
O549   O     0.39764   0.16467   0.81439   0.00000  Uiso   1.00
O550   O     0.60236   0.16866   0.68561   0.00000  Uiso   1.00
C551   C     0.35444   0.17090   0.84092   0.00000  Uiso   1.00
C552   C     0.64556   0.16243   0.65908   0.00000  Uiso   1.00
Zn553  Zn    0.60366   0.17287   0.75539   0.00000  Uiso   1.00
Zn554  Zn    0.39634   0.16046   0.74461   0.00000  Uiso   1.00
C555   C     0.36546   0.17851   0.89304   0.00000  Uiso   1.00
C556   C     0.63454   0.15483   0.60696   0.00000  Uiso   1.00
C557   C     0.35369   0.22496   0.96985   0.00000  Uiso   1.00
C558   C     0.64632   0.10838   0.53015   0.00000  Uiso   1.00
C559   C     0.33538   0.21271   0.92141   0.00000  Uiso   1.00
C560   C     0.66462   0.12063   0.57859   0.00000  Uiso   1.00
C561   C     0.41260   0.15662   0.91304   0.00000  Uiso   1.00
C562   C     0.58740   0.17671   0.58696   0.00000  Uiso   1.00
C563   C     0.43720   0.17540   0.95829   0.00000  Uiso   1.00
C564   C     0.56280   0.15794   0.54171   0.00000  Uiso   1.00
C565   C     0.40455   0.20640   0.98849   0.00000  Uiso   1.00
C566   C     0.59545   0.12694   0.51151   0.00000  Uiso   1.00
C567   C     0.49204   0.16223   0.97485   0.00000  Uiso   1.00
C568   C     0.50796   0.17110   0.52515   0.00000  Uiso   1.00
C569   C     0.46842   0.19274   0.55691   0.00000  Uiso   1.00
C570   C     0.53158   0.14060   0.94309   0.00000  Uiso   1.00
C571   C     0.42072   0.21500   0.53751   0.00000  Uiso   1.00
C572   C     0.57928   0.11833   0.96249   0.00000  Uiso   1.00
H573   H     0.39262   0.23397   0.56162   0.00000  Uiso   1.00
H574   H     0.60738   0.09937   0.93837   0.00000  Uiso   1.00
H575   H     0.56964   0.20766   0.60800   0.00000  Uiso   1.00
H576   H     0.43036   0.12567   0.89200   0.00000  Uiso   1.00
H577   H     0.36823   0.10329   0.59383   0.00000  Uiso   1.00
H578   H     0.63177   0.23004   0.90617   0.00000  Uiso   1.00
H579   H     0.66209   0.24937   0.99243   0.00000  Uiso   1.00
H580   H     0.33791   0.08397   0.50757   0.00000  Uiso   1.00
C581   C     0.35619   0.31947   0.74807   0.00000  Uiso   1.00
C582   C     0.64381   0.01386   0.75193   0.00000  Uiso   1.00
H583   H     0.39924   0.00332   0.74437   0.00000  Uiso   1.00
H584   H     0.60076   0.33002   0.75563   0.00000  Uiso   1.00
N585   N     0.48029   0.15216   0.73739   0.00000  Uiso   1.00
N586   N     0.51971   0.18117   0.76260   0.00000  Uiso   1.00
H587   H     0.49563   0.12293   0.71587   0.00000  Uiso   1.00
H588   H     0.50437   0.21040   0.78413   0.00000  Uiso   1.00
N589   N     0.47108   0.18583   0.60812   0.00000  Uiso   1.00
O590   O     0.47917   0.14001   0.62365   0.00000  Uiso   1.00
O591   O     0.45772   0.22291   0.63862   0.00000  Uiso   1.00
N592   N     0.52892   0.14751   0.89188   0.00000  Uiso   1.00
O593   O     0.54227   0.11042   0.86138   0.00000  Uiso   1.00
O594   O     0.52084   0.19333   0.87635   0.00000  Uiso   1.00
O595   O     0.96386   0.24631   0.75309   0.00000  Uiso   1.00
O596   O     0.70281   0.08702   0.74690   0.00000  Uiso   1.00
O597   O     0.72488   0.23702   0.74502   0.00000  Uiso   1.00
O598   O     0.94178   0.09632   0.75498   0.00000  Uiso   1.00
C599   C     0.68172   0.26488   0.74879   0.00000  Uiso   1.00
C600   C     0.98495   0.06845   0.75121   0.00000  Uiso   1.00
O601   O     0.96995   0.17397   0.82247   0.00000  Uiso   1.00
O602   O     0.69672   0.15937   0.67753   0.00000  Uiso   1.00
O603   O     0.73098   0.16467   0.81439   0.00000  Uiso   1.00
O604   O     0.93569   0.16866   0.68561   0.00000  Uiso   1.00
C605   C     0.68777   0.17090   0.84092   0.00000  Uiso   1.00
C606   C     0.97889   0.16243   0.65908   0.00000  Uiso   1.00
Zn607  Zn    0.93700   0.17287   0.75539   0.00000  Uiso   1.00
Zn608  Zn    0.72967   0.16046   0.74461   0.00000  Uiso   1.00
C609   C     0.69879   0.17851   0.89304   0.00000  Uiso   1.00
C610   C     0.96788   0.15483   0.60696   0.00000  Uiso   1.00
C611   C     0.68702   0.22496   0.96985   0.00000  Uiso   1.00
C612   C     0.97965   0.10838   0.53015   0.00000  Uiso   1.00
C613   C     0.66872   0.21271   0.92141   0.00000  Uiso   1.00
C614   C     0.99795   0.12063   0.57859   0.00000  Uiso   1.00
C615   C     0.74593   0.15662   0.91304   0.00000  Uiso   1.00
C616   C     0.92074   0.17671   0.58696   0.00000  Uiso   1.00
C617   C     0.77053   0.17540   0.95829   0.00000  Uiso   1.00
C618   C     0.89614   0.15794   0.54171   0.00000  Uiso   1.00
C619   C     0.73789   0.20640   0.98849   0.00000  Uiso   1.00
C620   C     0.92878   0.12694   0.51151   0.00000  Uiso   1.00
C621   C     0.82537   0.16223   0.97485   0.00000  Uiso   1.00
C622   C     0.84130   0.17110   0.52515   0.00000  Uiso   1.00
C623   C     0.80176   0.19274   0.55691   0.00000  Uiso   1.00
C624   C     0.86491   0.14060   0.94309   0.00000  Uiso   1.00
C625   C     0.75406   0.21500   0.53751   0.00000  Uiso   1.00
C626   C     0.91261   0.11833   0.96249   0.00000  Uiso   1.00
H627   H     0.72595   0.23397   0.56162   0.00000  Uiso   1.00
H628   H     0.94072   0.09937   0.93837   0.00000  Uiso   1.00
H629   H     0.90297   0.20766   0.60800   0.00000  Uiso   1.00
H630   H     0.76369   0.12567   0.89200   0.00000  Uiso   1.00
H631   H     0.70157   0.10329   0.59383   0.00000  Uiso   1.00
H632   H     0.96510   0.23004   0.90617   0.00000  Uiso   1.00
H633   H     0.99542   0.24937   0.99243   0.00000  Uiso   1.00
H634   H     0.67125   0.08397   0.50757   0.00000  Uiso   1.00
C635   C     0.68952   0.31947   0.74807   0.00000  Uiso   1.00
C636   C     0.97715   0.01386   0.75193   0.00000  Uiso   1.00
H637   H     0.73257   0.00332   0.74437   0.00000  Uiso   1.00
H638   H     0.93410   0.33002   0.75563   0.00000  Uiso   1.00
N639   N     0.81362   0.15216   0.73739   0.00000  Uiso   1.00
N640   N     0.85305   0.18117   0.76260   0.00000  Uiso   1.00
H641   H     0.82897   0.12293   0.71587   0.00000  Uiso   1.00
H642   H     0.83770   0.21040   0.78413   0.00000  Uiso   1.00
N643   N     0.80441   0.18583   0.60812   0.00000  Uiso   1.00
O644   O     0.81250   0.14001   0.62365   0.00000  Uiso   1.00
O645   O     0.79106   0.22291   0.63862   0.00000  Uiso   1.00
N646   N     0.86226   0.14751   0.89188   0.00000  Uiso   1.00
O647   O     0.87560   0.11042   0.86138   0.00000  Uiso   1.00
O648   O     0.85417   0.19333   0.87635   0.00000  Uiso   1.00
O649   O     0.29719   0.57964   0.75309   0.00000  Uiso   1.00
O650   O     0.03614   0.42036   0.74690   0.00000  Uiso   1.00
O651   O     0.05822   0.57035   0.74502   0.00000  Uiso   1.00
O652   O     0.27512   0.42965   0.75498   0.00000  Uiso   1.00
C653   C     0.01505   0.59821   0.74879   0.00000  Uiso   1.00
C654   C     0.31828   0.40179   0.75121   0.00000  Uiso   1.00
O655   O     0.30328   0.50730   0.82247   0.00000  Uiso   1.00
O656   O     0.03005   0.49270   0.67753   0.00000  Uiso   1.00
O657   O     0.06431   0.49801   0.81439   0.00000  Uiso   1.00
O658   O     0.26902   0.50199   0.68561   0.00000  Uiso   1.00
C659   C     0.02111   0.50423   0.84092   0.00000  Uiso   1.00
C660   C     0.31223   0.49577   0.65908   0.00000  Uiso   1.00
Zn661  Zn    0.27033   0.50621   0.75539   0.00000  Uiso   1.00
Zn662  Zn    0.06300   0.49379   0.74461   0.00000  Uiso   1.00
C663   C     0.03213   0.51184   0.89304   0.00000  Uiso   1.00
C664   C     0.30121   0.48816   0.60696   0.00000  Uiso   1.00
C665   C     0.02035   0.55830   0.96985   0.00000  Uiso   1.00
C666   C     0.31298   0.44171   0.53015   0.00000  Uiso   1.00
C667   C     0.00205   0.54604   0.92141   0.00000  Uiso   1.00
C668   C     0.33128   0.45396   0.57859   0.00000  Uiso   1.00
C669   C     0.07926   0.48995   0.91304   0.00000  Uiso   1.00
C670   C     0.25407   0.51005   0.58696   0.00000  Uiso   1.00
C671   C     0.10387   0.50873   0.95829   0.00000  Uiso   1.00
C672   C     0.22947   0.49127   0.54171   0.00000  Uiso   1.00
C673   C     0.07122   0.53973   0.98849   0.00000  Uiso   1.00
C674   C     0.26212   0.46027   0.51151   0.00000  Uiso   1.00
C675   C     0.15870   0.49557   0.97485   0.00000  Uiso   1.00
C676   C     0.17463   0.50444   0.52515   0.00000  Uiso   1.00
C677   C     0.13509   0.52607   0.55691   0.00000  Uiso   1.00
C678   C     0.19824   0.47393   0.94309   0.00000  Uiso   1.00
C679   C     0.08739   0.54834   0.53751   0.00000  Uiso   1.00
C680   C     0.24594   0.45167   0.96249   0.00000  Uiso   1.00
H681   H     0.05929   0.56730   0.56162   0.00000  Uiso   1.00
H682   H     0.27405   0.43271   0.93837   0.00000  Uiso   1.00
H683   H     0.23631   0.54100   0.60800   0.00000  Uiso   1.00
H684   H     0.09703   0.45900   0.89200   0.00000  Uiso   1.00
H685   H     0.03490   0.43663   0.59383   0.00000  Uiso   1.00
H686   H     0.29843   0.56338   0.90617   0.00000  Uiso   1.00
H687   H     0.32875   0.58270   0.99243   0.00000  Uiso   1.00
H688   H     0.00458   0.41730   0.50757   0.00000  Uiso   1.00
C689   C     0.02286   0.65281   0.74807   0.00000  Uiso   1.00
C690   C     0.31048   0.34719   0.75193   0.00000  Uiso   1.00
H691   H     0.06590   0.33665   0.74437   0.00000  Uiso   1.00
H692   H     0.26743   0.66335   0.75563   0.00000  Uiso   1.00
N693   N     0.14695   0.48550   0.73739   0.00000  Uiso   1.00
N694   N     0.18638   0.51450   0.76260   0.00000  Uiso   1.00
H695   H     0.16230   0.45627   0.71587   0.00000  Uiso   1.00
H696   H     0.17103   0.54373   0.78413   0.00000  Uiso   1.00
N697   N     0.13775   0.51916   0.60812   0.00000  Uiso   1.00
O698   O     0.14583   0.47334   0.62365   0.00000  Uiso   1.00
O699   O     0.12439   0.55625   0.63862   0.00000  Uiso   1.00
N700   N     0.19559   0.48084   0.89188   0.00000  Uiso   1.00
O701   O     0.20893   0.44375   0.86138   0.00000  Uiso   1.00
O702   O     0.18750   0.52666   0.87635   0.00000  Uiso   1.00
O703   O     0.63052   0.57964   0.75309   0.00000  Uiso   1.00
O704   O     0.36948   0.42036   0.74690   0.00000  Uiso   1.00
O705   O     0.39155   0.57035   0.74502   0.00000  Uiso   1.00
O706   O     0.60845   0.42965   0.75498   0.00000  Uiso   1.00
C707   C     0.34838   0.59821   0.74879   0.00000  Uiso   1.00
C708   C     0.65162   0.40179   0.75121   0.00000  Uiso   1.00
O709   O     0.63662   0.50730   0.82247   0.00000  Uiso   1.00
O710   O     0.36338   0.49270   0.67753   0.00000  Uiso   1.00
O711   O     0.39764   0.49801   0.81439   0.00000  Uiso   1.00
O712   O     0.60236   0.50199   0.68561   0.00000  Uiso   1.00
C713   C     0.35444   0.50423   0.84092   0.00000  Uiso   1.00
C714   C     0.64556   0.49577   0.65908   0.00000  Uiso   1.00
Zn715  Zn    0.60366   0.50621   0.75539   0.00000  Uiso   1.00
Zn716  Zn    0.39634   0.49379   0.74461   0.00000  Uiso   1.00
C717   C     0.36546   0.51184   0.89304   0.00000  Uiso   1.00
C718   C     0.63454   0.48816   0.60696   0.00000  Uiso   1.00
C719   C     0.35369   0.55830   0.96985   0.00000  Uiso   1.00
C720   C     0.64632   0.44171   0.53015   0.00000  Uiso   1.00
C721   C     0.33538   0.54604   0.92141   0.00000  Uiso   1.00
C722   C     0.66462   0.45396   0.57859   0.00000  Uiso   1.00
C723   C     0.41260   0.48995   0.91304   0.00000  Uiso   1.00
C724   C     0.58740   0.51005   0.58696   0.00000  Uiso   1.00
C725   C     0.43720   0.50873   0.95829   0.00000  Uiso   1.00
C726   C     0.56280   0.49127   0.54171   0.00000  Uiso   1.00
C727   C     0.40455   0.53973   0.98849   0.00000  Uiso   1.00
C728   C     0.59545   0.46027   0.51151   0.00000  Uiso   1.00
C729   C     0.49204   0.49557   0.97485   0.00000  Uiso   1.00
C730   C     0.50796   0.50444   0.52515   0.00000  Uiso   1.00
C731   C     0.46842   0.52607   0.55691   0.00000  Uiso   1.00
C732   C     0.53158   0.47393   0.94309   0.00000  Uiso   1.00
C733   C     0.42072   0.54834   0.53751   0.00000  Uiso   1.00
C734   C     0.57928   0.45167   0.96249   0.00000  Uiso   1.00
H735   H     0.39262   0.56730   0.56162   0.00000  Uiso   1.00
H736   H     0.60738   0.43271   0.93837   0.00000  Uiso   1.00
H737   H     0.56964   0.54100   0.60800   0.00000  Uiso   1.00
H738   H     0.43036   0.45900   0.89200   0.00000  Uiso   1.00
H739   H     0.36823   0.43663   0.59383   0.00000  Uiso   1.00
H740   H     0.63177   0.56338   0.90617   0.00000  Uiso   1.00
H741   H     0.66209   0.58270   0.99243   0.00000  Uiso   1.00
H742   H     0.33791   0.41730   0.50757   0.00000  Uiso   1.00
C743   C     0.35619   0.65281   0.74807   0.00000  Uiso   1.00
C744   C     0.64381   0.34719   0.75193   0.00000  Uiso   1.00
H745   H     0.39924   0.33665   0.74437   0.00000  Uiso   1.00
H746   H     0.60076   0.66335   0.75563   0.00000  Uiso   1.00
N747   N     0.48029   0.48550   0.73739   0.00000  Uiso   1.00
N748   N     0.51971   0.51450   0.76260   0.00000  Uiso   1.00
H749   H     0.49563   0.45627   0.71587   0.00000  Uiso   1.00
H750   H     0.50437   0.54373   0.78413   0.00000  Uiso   1.00
N751   N     0.47108   0.51916   0.60812   0.00000  Uiso   1.00
O752   O     0.47917   0.47334   0.62365   0.00000  Uiso   1.00
O753   O     0.45772   0.55625   0.63862   0.00000  Uiso   1.00
N754   N     0.52892   0.48084   0.89188   0.00000  Uiso   1.00
O755   O     0.54227   0.44375   0.86138   0.00000  Uiso   1.00
O756   O     0.52084   0.52666   0.87635   0.00000  Uiso   1.00
O757   O     0.96386   0.57964   0.75309   0.00000  Uiso   1.00
O758   O     0.70281   0.42036   0.74690   0.00000  Uiso   1.00
O759   O     0.72488   0.57035   0.74502   0.00000  Uiso   1.00
O760   O     0.94178   0.42965   0.75498   0.00000  Uiso   1.00
C761   C     0.68172   0.59821   0.74879   0.00000  Uiso   1.00
C762   C     0.98495   0.40179   0.75121   0.00000  Uiso   1.00
O763   O     0.96995   0.50730   0.82247   0.00000  Uiso   1.00
O764   O     0.69672   0.49270   0.67753   0.00000  Uiso   1.00
O765   O     0.73098   0.49801   0.81439   0.00000  Uiso   1.00
O766   O     0.93569   0.50199   0.68561   0.00000  Uiso   1.00
C767   C     0.68777   0.50423   0.84092   0.00000  Uiso   1.00
C768   C     0.97889   0.49577   0.65908   0.00000  Uiso   1.00
Zn769  Zn    0.93700   0.50621   0.75539   0.00000  Uiso   1.00
Zn770  Zn    0.72967   0.49379   0.74461   0.00000  Uiso   1.00
C771   C     0.69879   0.51184   0.89304   0.00000  Uiso   1.00
C772   C     0.96788   0.48816   0.60696   0.00000  Uiso   1.00
C773   C     0.68702   0.55830   0.96985   0.00000  Uiso   1.00
C774   C     0.97965   0.44171   0.53015   0.00000  Uiso   1.00
C775   C     0.66872   0.54604   0.92141   0.00000  Uiso   1.00
C776   C     0.99795   0.45396   0.57859   0.00000  Uiso   1.00
C777   C     0.74593   0.48995   0.91304   0.00000  Uiso   1.00
C778   C     0.92074   0.51005   0.58696   0.00000  Uiso   1.00
C779   C     0.77053   0.50873   0.95829   0.00000  Uiso   1.00
C780   C     0.89614   0.49127   0.54171   0.00000  Uiso   1.00
C781   C     0.73789   0.53973   0.98849   0.00000  Uiso   1.00
C782   C     0.92878   0.46027   0.51151   0.00000  Uiso   1.00
C783   C     0.82537   0.49557   0.97485   0.00000  Uiso   1.00
C784   C     0.84130   0.50444   0.52515   0.00000  Uiso   1.00
C785   C     0.80176   0.52607   0.55691   0.00000  Uiso   1.00
C786   C     0.86491   0.47393   0.94309   0.00000  Uiso   1.00
C787   C     0.75406   0.54834   0.53751   0.00000  Uiso   1.00
C788   C     0.91261   0.45167   0.96249   0.00000  Uiso   1.00
H789   H     0.72595   0.56730   0.56162   0.00000  Uiso   1.00
H790   H     0.94072   0.43271   0.93837   0.00000  Uiso   1.00
H791   H     0.90297   0.54100   0.60800   0.00000  Uiso   1.00
H792   H     0.76369   0.45900   0.89200   0.00000  Uiso   1.00
H793   H     0.70157   0.43663   0.59383   0.00000  Uiso   1.00
H794   H     0.96510   0.56338   0.90617   0.00000  Uiso   1.00
H795   H     0.99542   0.58270   0.99243   0.00000  Uiso   1.00
H796   H     0.67125   0.41730   0.50757   0.00000  Uiso   1.00
C797   C     0.68952   0.65281   0.74807   0.00000  Uiso   1.00
C798   C     0.97715   0.34719   0.75193   0.00000  Uiso   1.00
H799   H     0.73257   0.33665   0.74437   0.00000  Uiso   1.00
H800   H     0.93410   0.66335   0.75563   0.00000  Uiso   1.00
N801   N     0.81362   0.48550   0.73739   0.00000  Uiso   1.00
N802   N     0.85305   0.51450   0.76260   0.00000  Uiso   1.00
H803   H     0.82897   0.45627   0.71587   0.00000  Uiso   1.00
H804   H     0.83770   0.54373   0.78413   0.00000  Uiso   1.00
N805   N     0.80441   0.51916   0.60812   0.00000  Uiso   1.00
O806   O     0.81250   0.47334   0.62365   0.00000  Uiso   1.00
O807   O     0.79106   0.55625   0.63862   0.00000  Uiso   1.00
N808   N     0.86226   0.48084   0.89188   0.00000  Uiso   1.00
O809   O     0.87560   0.44375   0.86138   0.00000  Uiso   1.00
O810   O     0.85417   0.52666   0.87635   0.00000  Uiso   1.00
O811   O     0.29719   0.91298   0.75309   0.00000  Uiso   1.00
O812   O     0.03614   0.75369   0.74690   0.00000  Uiso   1.00
O813   O     0.05822   0.90368   0.74502   0.00000  Uiso   1.00
O814   O     0.27512   0.76298   0.75498   0.00000  Uiso   1.00
C815   C     0.01505   0.93155   0.74879   0.00000  Uiso   1.00
C816   C     0.31828   0.73512   0.75121   0.00000  Uiso   1.00
O817   O     0.30328   0.84063   0.82247   0.00000  Uiso   1.00
O818   O     0.03005   0.82603   0.67753   0.00000  Uiso   1.00
O819   O     0.06431   0.83134   0.81439   0.00000  Uiso   1.00
O820   O     0.26902   0.83533   0.68561   0.00000  Uiso   1.00
C821   C     0.02111   0.83757   0.84092   0.00000  Uiso   1.00
C822   C     0.31223   0.82910   0.65908   0.00000  Uiso   1.00
Zn823  Zn    0.27033   0.83954   0.75539   0.00000  Uiso   1.00
Zn824  Zn    0.06300   0.82713   0.74461   0.00000  Uiso   1.00
C825   C     0.03213   0.84517   0.89304   0.00000  Uiso   1.00
C826   C     0.30121   0.82149   0.60696   0.00000  Uiso   1.00
C827   C     0.02035   0.89163   0.96985   0.00000  Uiso   1.00
C828   C     0.31298   0.77504   0.53015   0.00000  Uiso   1.00
C829   C     0.00205   0.87938   0.92141   0.00000  Uiso   1.00
C830   C     0.33128   0.78729   0.57859   0.00000  Uiso   1.00
C831   C     0.07926   0.82329   0.91304   0.00000  Uiso   1.00
C832   C     0.25407   0.84338   0.58696   0.00000  Uiso   1.00
C833   C     0.10387   0.84206   0.95829   0.00000  Uiso   1.00
C834   C     0.22947   0.82461   0.54171   0.00000  Uiso   1.00
C835   C     0.07122   0.87307   0.98849   0.00000  Uiso   1.00
C836   C     0.26212   0.79360   0.51151   0.00000  Uiso   1.00
C837   C     0.15870   0.82890   0.97485   0.00000  Uiso   1.00
C838   C     0.17463   0.83777   0.52515   0.00000  Uiso   1.00
C839   C     0.13509   0.85941   0.55691   0.00000  Uiso   1.00
C840   C     0.19824   0.80726   0.94309   0.00000  Uiso   1.00
C841   C     0.08739   0.88167   0.53751   0.00000  Uiso   1.00
C842   C     0.24594   0.78500   0.96249   0.00000  Uiso   1.00
H843   H     0.05929   0.90063   0.56162   0.00000  Uiso   1.00
H844   H     0.27405   0.76604   0.93837   0.00000  Uiso   1.00
H845   H     0.23631   0.87433   0.60800   0.00000  Uiso   1.00
H846   H     0.09703   0.79234   0.89200   0.00000  Uiso   1.00
H847   H     0.03490   0.76996   0.59383   0.00000  Uiso   1.00
H848   H     0.29843   0.89671   0.90617   0.00000  Uiso   1.00
H849   H     0.32875   0.91604   0.99243   0.00000  Uiso   1.00
H850   H     0.00458   0.75063   0.50757   0.00000  Uiso   1.00
C851   C     0.02286   0.98614   0.74807   0.00000  Uiso   1.00
C852   C     0.31048   0.68053   0.75193   0.00000  Uiso   1.00
H853   H     0.06590   0.66998   0.74437   0.00000  Uiso   1.00
H854   H     0.26743   0.99668   0.75563   0.00000  Uiso   1.00
N855   N     0.14695   0.81883   0.73739   0.00000  Uiso   1.00
N856   N     0.18638   0.84784   0.76260   0.00000  Uiso   1.00
H857   H     0.16230   0.78960   0.71587   0.00000  Uiso   1.00
H858   H     0.17103   0.87707   0.78413   0.00000  Uiso   1.00
N859   N     0.13775   0.85249   0.60812   0.00000  Uiso   1.00
O860   O     0.14583   0.80668   0.62365   0.00000  Uiso   1.00
O861   O     0.12439   0.88958   0.63862   0.00000  Uiso   1.00
N862   N     0.19559   0.81418   0.89188   0.00000  Uiso   1.00
O863   O     0.20893   0.77709   0.86138   0.00000  Uiso   1.00
O864   O     0.18750   0.85999   0.87635   0.00000  Uiso   1.00
O865   O     0.63052   0.91298   0.75309   0.00000  Uiso   1.00
O866   O     0.36948   0.75369   0.74690   0.00000  Uiso   1.00
O867   O     0.39155   0.90368   0.74502   0.00000  Uiso   1.00
O868   O     0.60845   0.76298   0.75498   0.00000  Uiso   1.00
C869   C     0.34838   0.93155   0.74879   0.00000  Uiso   1.00
C870   C     0.65162   0.73512   0.75121   0.00000  Uiso   1.00
O871   O     0.63662   0.84063   0.82247   0.00000  Uiso   1.00
O872   O     0.36338   0.82603   0.67753   0.00000  Uiso   1.00
O873   O     0.39764   0.83134   0.81439   0.00000  Uiso   1.00
O874   O     0.60236   0.83533   0.68561   0.00000  Uiso   1.00
C875   C     0.35444   0.83757   0.84092   0.00000  Uiso   1.00
C876   C     0.64556   0.82910   0.65908   0.00000  Uiso   1.00
Zn877  Zn    0.60366   0.83954   0.75539   0.00000  Uiso   1.00
Zn878  Zn    0.39634   0.82713   0.74461   0.00000  Uiso   1.00
C879   C     0.36546   0.84517   0.89304   0.00000  Uiso   1.00
C880   C     0.63454   0.82149   0.60696   0.00000  Uiso   1.00
C881   C     0.35369   0.89163   0.96985   0.00000  Uiso   1.00
C882   C     0.64632   0.77504   0.53015   0.00000  Uiso   1.00
C883   C     0.33538   0.87938   0.92141   0.00000  Uiso   1.00
C884   C     0.66462   0.78729   0.57859   0.00000  Uiso   1.00
C885   C     0.41260   0.82329   0.91304   0.00000  Uiso   1.00
C886   C     0.58740   0.84338   0.58696   0.00000  Uiso   1.00
C887   C     0.43720   0.84206   0.95829   0.00000  Uiso   1.00
C888   C     0.56280   0.82461   0.54171   0.00000  Uiso   1.00
C889   C     0.40455   0.87307   0.98849   0.00000  Uiso   1.00
C890   C     0.59545   0.79360   0.51151   0.00000  Uiso   1.00
C891   C     0.49204   0.82890   0.97485   0.00000  Uiso   1.00
C892   C     0.50796   0.83777   0.52515   0.00000  Uiso   1.00
C893   C     0.46842   0.85941   0.55691   0.00000  Uiso   1.00
C894   C     0.53158   0.80726   0.94309   0.00000  Uiso   1.00
C895   C     0.42072   0.88167   0.53751   0.00000  Uiso   1.00
C896   C     0.57928   0.78500   0.96249   0.00000  Uiso   1.00
H897   H     0.39262   0.90063   0.56162   0.00000  Uiso   1.00
H898   H     0.60738   0.76604   0.93837   0.00000  Uiso   1.00
H899   H     0.56964   0.87433   0.60800   0.00000  Uiso   1.00
H900   H     0.43036   0.79234   0.89200   0.00000  Uiso   1.00
H901   H     0.36823   0.76996   0.59383   0.00000  Uiso   1.00
H902   H     0.63177   0.89671   0.90617   0.00000  Uiso   1.00
H903   H     0.66209   0.91604   0.99243   0.00000  Uiso   1.00
H904   H     0.33791   0.75063   0.50757   0.00000  Uiso   1.00
C905   C     0.35619   0.98614   0.74807   0.00000  Uiso   1.00
C906   C     0.64381   0.68053   0.75193   0.00000  Uiso   1.00
H907   H     0.39924   0.66998   0.74437   0.00000  Uiso   1.00
H908   H     0.60076   0.99668   0.75563   0.00000  Uiso   1.00
N909   N     0.48029   0.81883   0.73739   0.00000  Uiso   1.00
N910   N     0.51971   0.84784   0.76260   0.00000  Uiso   1.00
H911   H     0.49563   0.78960   0.71587   0.00000  Uiso   1.00
H912   H     0.50437   0.87707   0.78413   0.00000  Uiso   1.00
N913   N     0.47108   0.85249   0.60812   0.00000  Uiso   1.00
O914   O     0.47917   0.80668   0.62365   0.00000  Uiso   1.00
O915   O     0.45772   0.88958   0.63862   0.00000  Uiso   1.00
N916   N     0.52892   0.81418   0.89188   0.00000  Uiso   1.00
O917   O     0.54227   0.77709   0.86138   0.00000  Uiso   1.00
O918   O     0.52084   0.85999   0.87635   0.00000  Uiso   1.00
O919   O     0.96386   0.91298   0.75309   0.00000  Uiso   1.00
O920   O     0.70281   0.75369   0.74690   0.00000  Uiso   1.00
O921   O     0.72488   0.90368   0.74502   0.00000  Uiso   1.00
O922   O     0.94178   0.76298   0.75498   0.00000  Uiso   1.00
C923   C     0.68172   0.93155   0.74879   0.00000  Uiso   1.00
C924   C     0.98495   0.73512   0.75121   0.00000  Uiso   1.00
O925   O     0.96995   0.84063   0.82247   0.00000  Uiso   1.00
O926   O     0.69672   0.82603   0.67753   0.00000  Uiso   1.00
O927   O     0.73098   0.83134   0.81439   0.00000  Uiso   1.00
O928   O     0.93569   0.83533   0.68561   0.00000  Uiso   1.00
C929   C     0.68777   0.83757   0.84092   0.00000  Uiso   1.00
C930   C     0.97889   0.82910   0.65908   0.00000  Uiso   1.00
Zn931  Zn    0.93700   0.83954   0.75539   0.00000  Uiso   1.00
Zn932  Zn    0.72967   0.82713   0.74461   0.00000  Uiso   1.00
C933   C     0.69879   0.84517   0.89304   0.00000  Uiso   1.00
C934   C     0.96788   0.82149   0.60696   0.00000  Uiso   1.00
C935   C     0.68702   0.89163   0.96985   0.00000  Uiso   1.00
C936   C     0.97965   0.77504   0.53015   0.00000  Uiso   1.00
C937   C     0.66872   0.87938   0.92141   0.00000  Uiso   1.00
C938   C     0.99795   0.78729   0.57859   0.00000  Uiso   1.00
C939   C     0.74593   0.82329   0.91304   0.00000  Uiso   1.00
C940   C     0.92074   0.84338   0.58696   0.00000  Uiso   1.00
C941   C     0.77053   0.84206   0.95829   0.00000  Uiso   1.00
C942   C     0.89614   0.82461   0.54171   0.00000  Uiso   1.00
C943   C     0.73789   0.87307   0.98849   0.00000  Uiso   1.00
C944   C     0.92878   0.79360   0.51151   0.00000  Uiso   1.00
C945   C     0.82537   0.82890   0.97485   0.00000  Uiso   1.00
C946   C     0.84130   0.83777   0.52515   0.00000  Uiso   1.00
C947   C     0.80176   0.85941   0.55691   0.00000  Uiso   1.00
C948   C     0.86491   0.80726   0.94309   0.00000  Uiso   1.00
C949   C     0.75406   0.88167   0.53751   0.00000  Uiso   1.00
C950   C     0.91261   0.78500   0.96249   0.00000  Uiso   1.00
H951   H     0.72595   0.90063   0.56162   0.00000  Uiso   1.00
H952   H     0.94072   0.76604   0.93837   0.00000  Uiso   1.00
H953   H     0.90297   0.87433   0.60800   0.00000  Uiso   1.00
H954   H     0.76369   0.79234   0.89200   0.00000  Uiso   1.00
H955   H     0.70157   0.76996   0.59383   0.00000  Uiso   1.00
H956   H     0.96510   0.89671   0.90617   0.00000  Uiso   1.00
H957   H     0.99542   0.91604   0.99243   0.00000  Uiso   1.00
H958   H     0.67125   0.75063   0.50757   0.00000  Uiso   1.00
C959   C     0.68952   0.98614   0.74807   0.00000  Uiso   1.00
C960   C     0.97715   0.68053   0.75193   0.00000  Uiso   1.00
H961   H     0.73257   0.66998   0.74437   0.00000  Uiso   1.00
H962   H     0.93410   0.99668   0.75563   0.00000  Uiso   1.00
N963   N     0.81362   0.81883   0.73739   0.00000  Uiso   1.00
N964   N     0.85305   0.84784   0.76260   0.00000  Uiso   1.00
H965   H     0.82897   0.78960   0.71587   0.00000  Uiso   1.00
H966   H     0.83770   0.87707   0.78413   0.00000  Uiso   1.00
N967   N     0.80441   0.85249   0.60812   0.00000  Uiso   1.00
O968   O     0.81250   0.80668   0.62365   0.00000  Uiso   1.00
O969   O     0.79106   0.88958   0.63862   0.00000  Uiso   1.00
N970   N     0.86226   0.81418   0.89188   0.00000  Uiso   1.00
O971   O     0.87560   0.77709   0.86138   0.00000  Uiso   1.00
O972   O     0.85417   0.85999   0.87635   0.00000  Uiso   1.00
loop_
_geom_bond_atom_site_label_1
_geom_bond_atom_site_label_2
_geom_bond_distance
_geom_bond_site_symmetry_2
_ccdc_geom_bond_type
O1     Zn13    1.952   .     S
O1     C59     1.277   .     S
O2     Zn14    1.952   .     S
O2     C114    1.277   1_455 S
O3     Zn14    1.979   .     S
O3     C5      1.291   .     A
O4     C6      1.291   .     A
O4     Zn13    1.979   .     S
C5     C41     1.403   .     S
C5     O109    1.277   1_455 S
C6     C42     1.403   .     S
C6     O56     1.277   .     S
O7     Zn13    1.966   .     S
O7     C65     1.291   .     S
O8     Zn14    1.966   .     S
O8     C120    1.291   1_455 S
O9     Zn14    1.923   .     S
O9     C11     1.300   .     A
O10    C12     1.300   .     A
O10    Zn13    1.923   .     S
C11    C15     1.448   .     S
C11    O115    1.291   1_455 S
C12    C16     1.448   .     S
C12    O62     1.291   .     S
Zn13   N46     2.023   .     S
Zn14   N45     2.023   .     S
C15    C21     1.384   .     A
C15    C19     1.399   .     A
C16    C20     1.399   .     A
C16    C22     1.384   .     A
C17    C25     1.404   .     A
C17    C19     1.393   .     A
C17    H147    1.084   1_455 S
C18    C26     1.404   .     A
C18    C20     1.393   .     A
C18    H94     1.084   .     S
C19    H146    1.082   1_455 S
C20    H91     1.082   .     S
C21    H36     1.080   .     S
C21    C23     1.391   .     A
C22    H35     1.080   .     S
C22    C24     1.391   .     A
C23    C27     1.417   .     A
C23    C25     1.415   .     A
C24    C26     1.415   .     A
C24    C28     1.417   .     A
C25    C517    1.386   .     S
C26    C518    1.386   1_554 S
C27    C30     1.433   .     A
C27    C514    1.419   .     S
C28    C29     1.433   .     A
C28    C513    1.419   1_554 S
C29    C31     1.393   .     A
C29    N49     1.435   .     S
C30    C32     1.393   .     A
C30    N52     1.435   .     S
C31    H33     1.085   .     S
C31    C511    1.386   1_554 S
C32    H34     1.085   .     S
C32    C512    1.386   .     S
H37    C128    1.082   1_455 S
H38    C73     1.082   .     S
H39    C71     1.084   .     S
H40    C126    1.084   1_455 S
C41    C312    1.339   1_455 S
C41    H205    1.088   .     S
C42    C419    1.339   1_545 S
C42    H368    1.088   1_545 S
H43    C365    1.088   1_545 S
H44    C204    1.088   .     S
N45    H47     1.029   .     S
N45    N46     1.290   .     D
N46    H48     1.029   .     S
N49    O50     1.301   .     A
N49    O51     1.301   .     A
N52    O54     1.301   .     A
N52    O53     1.301   .     A
O55    Zn67    1.952   .     S
O55    C113    1.277   .     S
O56    Zn68    1.952   .     S
O57    Zn68    1.979   .     S
O57    C59     1.291   .     A
O58    C60     1.291   .     A
O58    Zn67    1.979   .     S
C59    C95     1.403   .     S
C60    C96     1.403   .     S
C60    O110    1.277   .     S
O61    Zn67    1.966   .     S
O61    C119    1.291   .     S
O62    Zn68    1.966   .     S
O63    Zn68    1.923   .     S
O63    C65     1.300   .     A
O64    C66     1.300   .     A
O64    Zn67    1.923   .     S
C65    C69     1.448   .     S
C66    C70     1.448   .     S
C66    O116    1.291   .     S
Zn67   N100    2.023   .     S
Zn68   N99     2.023   .     S
C69    C75     1.384   .     A
C69    C73     1.399   .     A
C70    C74     1.399   .     A
C70    C76     1.384   .     A
C71    C79     1.404   .     A
C71    C73     1.393   .     A
C72    C80     1.404   .     A
C72    C74     1.393   .     A
C72    H148    1.084   .     S
C74    H145    1.082   .     S
C75    H90     1.080   .     S
C75    C77     1.391   .     A
C76    H89     1.080   .     S
C76    C78     1.391   .     A
C77    C81     1.417   .     A
C77    C79     1.415   .     A
C78    C80     1.415   .     A
C78    C82     1.417   .     A
C79    C571    1.386   .     S
C80    C572    1.386   1_554 S
C81    C84     1.433   .     A
C81    C568    1.419   .     S
C82    C83     1.433   .     A
C82    C567    1.419   1_554 S
C83    C85     1.393   .     A
C83    N103    1.435   .     S
C84    C86     1.393   .     A
C84    N106    1.435   .     S
C85    H87     1.085   .     S
C85    C565    1.386   1_554 S
C86    H88     1.085   .     S
C86    C566    1.386   .     S
H92    C127    1.082   .     S
H93    C125    1.084   .     S
C95    C204    1.339   .     S
C95    H259    1.088   .     S
C96    C473    1.339   1_545 S
C96    H422    1.088   1_545 S
H97    C419    1.088   1_545 S
H98    C258    1.088   .     S
N99    H101    1.029   .     S
N99    N100    1.290   .     D
N100   H102    1.029   .     S
N103   O104    1.301   .     A
N103   O105    1.301   .     A
N106   O108    1.301   .     A
N106   O107    1.301   .     A
O109   Zn121   1.952   .     S
O109   C5      1.277   1_655 S
O110   Zn122   1.952   .     S
O111   Zn122   1.979   .     S
O111   C113    1.291   .     A
O112   C114    1.291   .     A
O112   Zn121   1.979   .     S
C113   C149    1.403   .     S
C114   C150    1.403   .     S
C114   O2      1.277   1_655 S
O115   Zn121   1.966   .     S
O115   C11     1.291   1_655 S
O116   Zn122   1.966   .     S
O117   Zn122   1.923   .     S
O117   C119    1.300   .     A
O118   C120    1.300   .     A
O118   Zn121   1.923   .     S
C119   C123    1.448   .     S
C120   C124    1.448   .     S
C120   O8      1.291   1_655 S
Zn121  N154    2.023   .     S
Zn122  N153    2.023   .     S
C123   C129    1.384   .     A
C123   C127    1.399   .     A
C124   C128    1.399   .     A
C124   C130    1.384   .     A
C125   C133    1.404   .     A
C125   C127    1.393   .     A
C126   C134    1.404   .     A
C126   C128    1.393   .     A
C126   H40     1.084   1_655 S
C128   H37     1.082   1_655 S
C129   H144    1.080   .     S
C129   C131    1.391   .     A
C130   H143    1.080   .     S
C130   C132    1.391   .     A
C131   C135    1.417   .     A
C131   C133    1.415   .     A
C132   C134    1.415   .     A
C132   C136    1.417   .     A
C133   C625    1.386   .     S
C134   C626    1.386   1_554 S
C135   C138    1.433   .     A
C135   C622    1.419   .     S
C136   C137    1.433   .     A
C136   C621    1.419   1_554 S
C137   C139    1.393   .     A
C137   N157    1.435   .     S
C138   C140    1.393   .     A
C138   N160    1.435   .     S
C139   H141    1.085   .     S
C139   C619    1.386   1_554 S
C140   H142    1.085   .     S
C140   C620    1.386   .     S
H146   C19     1.082   1_655 S
H147   C17     1.084   1_655 S
C149   C258    1.339   .     S
C149   H313    1.088   .     S
C150   C365    1.339   1_645 S
C150   H476    1.088   1_545 S
H151   C473    1.088   1_545 S
H152   C312    1.088   .     S
N153   H155    1.029   .     S
N153   N154    1.290   .     D
N154   H156    1.029   .     S
N157   O158    1.301   .     A
N157   O159    1.301   .     A
N160   O162    1.301   .     A
N160   O161    1.301   .     A
O163   Zn175   1.952   .     S
O163   C221    1.277   .     S
O164   Zn176   1.952   .     S
O164   C276    1.277   1_455 S
O165   Zn176   1.979   .     S
O165   C167    1.291   .     A
O166   C168    1.291   .     A
O166   Zn175   1.979   .     S
C167   C203    1.403   .     S
C167   O271    1.277   1_455 S
C168   C204    1.403   .     S
C168   O218    1.277   .     S
O169   Zn175   1.966   .     S
O169   C227    1.291   .     S
O170   Zn176   1.966   .     S
O170   C282    1.291   1_455 S
O171   Zn176   1.923   .     S
O171   C173    1.300   .     A
O172   C174    1.300   .     A
O172   Zn175   1.923   .     S
C173   C177    1.448   .     S
C173   O277    1.291   1_455 S
C174   C178    1.448   .     S
C174   O224    1.291   .     S
Zn175  N208    2.023   .     S
Zn176  N207    2.023   .     S
C177   C183    1.384   .     A
C177   C181    1.399   .     A
C178   C182    1.399   .     A
C178   C184    1.384   .     A
C179   C187    1.404   .     A
C179   C181    1.393   .     A
C179   H309    1.084   1_455 S
C180   C188    1.404   .     A
C180   C182    1.393   .     A
C180   H256    1.084   .     S
C181   H308    1.082   1_455 S
C182   H253    1.082   .     S
C183   H198    1.080   .     S
C183   C185    1.391   .     A
C184   H197    1.080   .     S
C184   C186    1.391   .     A
C185   C189    1.417   .     A
C185   C187    1.415   .     A
C186   C188    1.415   .     A
C186   C190    1.417   .     A
C187   C679    1.386   .     S
C188   C680    1.386   1_554 S
C189   C192    1.433   .     A
C189   C676    1.419   .     S
C190   C191    1.433   .     A
C190   C675    1.419   1_554 S
C191   C193    1.393   .     A
C191   N211    1.435   .     S
C192   C194    1.393   .     A
C192   N214    1.435   .     S
C193   H195    1.085   .     S
C193   C673    1.386   1_554 S
C194   H196    1.085   .     S
C194   C674    1.386   .     S
H199   C290    1.082   1_455 S
H200   C235    1.082   .     S
H201   C233    1.084   .     S
H202   C288    1.084   1_455 S
C203   C474    1.339   1_455 S
C203   H367    1.088   .     S
H206   C366    1.088   .     S
N207   H209    1.029   .     S
N207   N208    1.290   .     D
N208   H210    1.029   .     S
N211   O212    1.301   .     A
N211   O213    1.301   .     A
N214   O216    1.301   .     A
N214   O215    1.301   .     A
O217   Zn229   1.952   .     S
O217   C275    1.277   .     S
O218   Zn230   1.952   .     S
O219   Zn230   1.979   .     S
O219   C221    1.291   .     A
O220   C222    1.291   .     A
O220   Zn229   1.979   .     S
C221   C257    1.403   .     S
C222   C258    1.403   .     S
C222   O272    1.277   .     S
O223   Zn229   1.966   .     S
O223   C281    1.291   .     S
O224   Zn230   1.966   .     S
O225   Zn230   1.923   .     S
O225   C227    1.300   .     A
O226   C228    1.300   .     A
O226   Zn229   1.923   .     S
C227   C231    1.448   .     S
C228   C232    1.448   .     S
C228   O278    1.291   .     S
Zn229  N262    2.023   .     S
Zn230  N261    2.023   .     S
C231   C237    1.384   .     A
C231   C235    1.399   .     A
C232   C236    1.399   .     A
C232   C238    1.384   .     A
C233   C241    1.404   .     A
C233   C235    1.393   .     A
C234   C242    1.404   .     A
C234   C236    1.393   .     A
C234   H310    1.084   .     S
C236   H307    1.082   .     S
C237   H252    1.080   .     S
C237   C239    1.391   .     A
C238   H251    1.080   .     S
C238   C240    1.391   .     A
C239   C243    1.417   .     A
C239   C241    1.415   .     A
C240   C242    1.415   .     A
C240   C244    1.417   .     A
C241   C733    1.386   .     S
C242   C734    1.386   1_554 S
C243   C246    1.433   .     A
C243   C730    1.419   .     S
C244   C245    1.433   .     A
C244   C729    1.419   1_554 S
C245   C247    1.393   .     A
C245   N265    1.435   .     S
C246   C248    1.393   .     A
C246   N268    1.435   .     S
C247   H249    1.085   .     S
C247   C727    1.386   1_554 S
C248   H250    1.085   .     S
C248   C728    1.386   .     S
H254   C289    1.082   .     S
H255   C287    1.084   .     S
C257   C366    1.339   .     S
C257   H421    1.088   .     S
H260   C420    1.088   .     S
N261   H263    1.029   .     S
N261   N262    1.290   .     D
N262   H264    1.029   .     S
N265   O266    1.301   .     A
N265   O267    1.301   .     A
N268   O270    1.301   .     A
N268   O269    1.301   .     A
O271   Zn283   1.952   .     S
O271   C167    1.277   1_655 S
O272   Zn284   1.952   .     S
O273   Zn284   1.979   .     S
O273   C275    1.291   .     A
O274   C276    1.291   .     A
O274   Zn283   1.979   .     S
C275   C311    1.403   .     S
C276   C312    1.403   .     S
C276   O164    1.277   1_655 S
O277   Zn283   1.966   .     S
O277   C173    1.291   1_655 S
O278   Zn284   1.966   .     S
O279   Zn284   1.923   .     S
O279   C281    1.300   .     A
O280   C282    1.300   .     A
O280   Zn283   1.923   .     S
C281   C285    1.448   .     S
C282   C286    1.448   .     S
C282   O170    1.291   1_655 S
Zn283  N316    2.023   .     S
Zn284  N315    2.023   .     S
C285   C291    1.384   .     A
C285   C289    1.399   .     A
C286   C290    1.399   .     A
C286   C292    1.384   .     A
C287   C295    1.404   .     A
C287   C289    1.393   .     A
C288   C296    1.404   .     A
C288   C290    1.393   .     A
C288   H202    1.084   1_655 S
C290   H199    1.082   1_655 S
C291   H306    1.080   .     S
C291   C293    1.391   .     A
C292   H305    1.080   .     S
C292   C294    1.391   .     A
C293   C297    1.417   .     A
C293   C295    1.415   .     A
C294   C296    1.415   .     A
C294   C298    1.417   .     A
C295   C787    1.386   .     S
C296   C788    1.386   1_554 S
C297   C300    1.433   .     A
C297   C784    1.419   .     S
C298   C299    1.433   .     A
C298   C783    1.419   1_554 S
C299   C301    1.393   .     A
C299   N319    1.435   .     S
C300   C302    1.393   .     A
C300   N322    1.435   .     S
C301   H303    1.085   .     S
C301   C781    1.386   1_554 S
C302   H304    1.085   .     S
C302   C782    1.386   .     S
H308   C181    1.082   1_655 S
H309   C179    1.084   1_655 S
C311   C420    1.339   .     S
C311   H475    1.088   .     S
C312   C41     1.339   1_655 S
H314   C474    1.088   .     S
N315   H317    1.029   .     S
N315   N316    1.290   .     D
N316   H318    1.029   .     S
N319   O320    1.301   .     A
N319   O321    1.301   .     A
N322   O324    1.301   .     A
N322   O323    1.301   .     A
O325   Zn337   1.952   .     S
O325   C383    1.277   .     S
O326   Zn338   1.952   .     S
O326   C438    1.277   1_455 S
O327   Zn338   1.979   .     S
O327   C329    1.291   .     A
O328   C330    1.291   .     A
O328   Zn337   1.979   .     S
C329   C365    1.403   .     S
C329   O433    1.277   1_455 S
C330   C366    1.403   .     S
C330   O380    1.277   .     S
O331   Zn337   1.966   .     S
O331   C389    1.291   .     S
O332   Zn338   1.966   .     S
O332   C444    1.291   1_455 S
O333   Zn338   1.923   .     S
O333   C335    1.300   .     A
O334   C336    1.300   .     A
O334   Zn337   1.923   .     S
C335   C339    1.448   .     S
C335   O439    1.291   1_455 S
C336   C340    1.448   .     S
C336   O386    1.291   .     S
Zn337  N370    2.023   .     S
Zn338  N369    2.023   .     S
C339   C345    1.384   .     A
C339   C343    1.399   .     A
C340   C344    1.399   .     A
C340   C346    1.384   .     A
C341   C349    1.404   .     A
C341   C343    1.393   .     A
C341   H471    1.084   1_455 S
C342   C350    1.404   .     A
C342   C344    1.393   .     A
C342   H418    1.084   .     S
C343   H470    1.082   1_455 S
C344   H415    1.082   .     S
C345   H360    1.080   .     S
C345   C347    1.391   .     A
C346   H359    1.080   .     S
C346   C348    1.391   .     A
C347   C351    1.417   .     A
C347   C349    1.415   .     A
C348   C350    1.415   .     A
C348   C352    1.417   .     A
C349   C841    1.386   .     S
C350   C842    1.386   1_554 S
C351   C354    1.433   .     A
C351   C838    1.419   .     S
C352   C353    1.433   .     A
C352   C837    1.419   1_554 S
C353   C355    1.393   .     A
C353   N373    1.435   .     S
C354   C356    1.393   .     A
C354   N376    1.435   .     S
C355   H357    1.085   .     S
C355   C835    1.386   1_554 S
C356   H358    1.085   .     S
C356   C836    1.386   .     S
H361   C452    1.082   1_455 S
H362   C397    1.082   .     S
H363   C395    1.084   .     S
H364   C450    1.084   1_455 S
C365   C150    1.339   1_465 S
C365   H43     1.088   1_565 S
H368   C42     1.088   1_565 S
N369   H371    1.029   .     S
N369   N370    1.290   .     D
N370   H372    1.029   .     S
N373   O374    1.301   .     A
N373   O375    1.301   .     A
N376   O378    1.301   .     A
N376   O377    1.301   .     A
O379   Zn391   1.952   .     S
O379   C437    1.277   .     S
O380   Zn392   1.952   .     S
O381   Zn392   1.979   .     S
O381   C383    1.291   .     A
O382   C384    1.291   .     A
O382   Zn391   1.979   .     S
C383   C419    1.403   .     S
C384   C420    1.403   .     S
C384   O434    1.277   .     S
O385   Zn391   1.966   .     S
O385   C443    1.291   .     S
O386   Zn392   1.966   .     S
O387   Zn392   1.923   .     S
O387   C389    1.300   .     A
O388   C390    1.300   .     A
O388   Zn391   1.923   .     S
C389   C393    1.448   .     S
C390   C394    1.448   .     S
C390   O440    1.291   .     S
Zn391  N424    2.023   .     S
Zn392  N423    2.023   .     S
C393   C399    1.384   .     A
C393   C397    1.399   .     A
C394   C398    1.399   .     A
C394   C400    1.384   .     A
C395   C403    1.404   .     A
C395   C397    1.393   .     A
C396   C404    1.404   .     A
C396   C398    1.393   .     A
C396   H472    1.084   .     S
C398   H469    1.082   .     S
C399   H414    1.080   .     S
C399   C401    1.391   .     A
C400   H413    1.080   .     S
C400   C402    1.391   .     A
C401   C405    1.417   .     A
C401   C403    1.415   .     A
C402   C404    1.415   .     A
C402   C406    1.417   .     A
C403   C895    1.386   .     S
C404   C896    1.386   1_554 S
C405   C408    1.433   .     A
C405   C892    1.419   .     S
C406   C407    1.433   .     A
C406   C891    1.419   1_554 S
C407   C409    1.393   .     A
C407   N427    1.435   .     S
C408   C410    1.393   .     A
C408   N430    1.435   .     S
C409   H411    1.085   .     S
C409   C889    1.386   1_554 S
C410   H412    1.085   .     S
C410   C890    1.386   .     S
H416   C451    1.082   .     S
H417   C449    1.084   .     S
C419   C42     1.339   1_565 S
C419   H97     1.088   1_565 S
H422   C96     1.088   1_565 S
N423   H425    1.029   .     S
N423   N424    1.290   .     D
N424   H426    1.029   .     S
N427   O428    1.301   .     A
N427   O429    1.301   .     A
N430   O432    1.301   .     A
N430   O431    1.301   .     A
O433   Zn445   1.952   .     S
O433   C329    1.277   1_655 S
O434   Zn446   1.952   .     S
O435   Zn446   1.979   .     S
O435   C437    1.291   .     A
O436   C438    1.291   .     A
O436   Zn445   1.979   .     S
C437   C473    1.403   .     S
C438   C474    1.403   .     S
C438   O326    1.277   1_655 S
O439   Zn445   1.966   .     S
O439   C335    1.291   1_655 S
O440   Zn446   1.966   .     S
O441   Zn446   1.923   .     S
O441   C443    1.300   .     A
O442   C444    1.300   .     A
O442   Zn445   1.923   .     S
C443   C447    1.448   .     S
C444   C448    1.448   .     S
C444   O332    1.291   1_655 S
Zn445  N478    2.023   .     S
Zn446  N477    2.023   .     S
C447   C453    1.384   .     A
C447   C451    1.399   .     A
C448   C452    1.399   .     A
C448   C454    1.384   .     A
C449   C457    1.404   .     A
C449   C451    1.393   .     A
C450   C458    1.404   .     A
C450   C452    1.393   .     A
C450   H364    1.084   1_655 S
C452   H361    1.082   1_655 S
C453   H468    1.080   .     S
C453   C455    1.391   .     A
C454   H467    1.080   .     S
C454   C456    1.391   .     A
C455   C459    1.417   .     A
C455   C457    1.415   .     A
C456   C458    1.415   .     A
C456   C460    1.417   .     A
C457   C949    1.386   .     S
C458   C950    1.386   1_554 S
C459   C462    1.433   .     A
C459   C946    1.419   .     S
C460   C461    1.433   .     A
C460   C945    1.419   1_554 S
C461   C463    1.393   .     A
C461   N481    1.435   .     S
C462   C464    1.393   .     A
C462   N484    1.435   .     S
C463   H465    1.085   .     S
C463   C943    1.386   1_554 S
C464   H466    1.085   .     S
C464   C944    1.386   .     S
H470   C343    1.082   1_655 S
H471   C341    1.084   1_655 S
C473   C96     1.339   1_565 S
C473   H151    1.088   1_565 S
C474   C203    1.339   1_655 S
H476   C150    1.088   1_565 S
N477   H479    1.029   .     S
N477   N478    1.290   .     D
N478   H480    1.029   .     S
N481   O482    1.301   .     A
N481   O483    1.301   .     A
N484   O486    1.301   .     A
N484   O485    1.301   .     A
O487   Zn499   1.952   .     S
O487   C545    1.277   .     S
O488   Zn500   1.952   .     S
O488   C600    1.277   1_455 S
O489   Zn500   1.979   .     S
O489   C491    1.291   .     A
O490   C492    1.291   .     A
O490   Zn499   1.979   .     S
C491   C527    1.403   .     S
C491   O595    1.277   1_455 S
C492   C528    1.403   .     S
C492   O542    1.277   .     S
O493   Zn499   1.966   .     S
O493   C551    1.291   .     S
O494   Zn500   1.966   .     S
O494   C606    1.291   1_455 S
O495   Zn500   1.923   .     S
O495   C497    1.300   .     A
O496   C498    1.300   .     A
O496   Zn499   1.923   .     S
C497   C501    1.448   .     S
C497   O601    1.291   1_455 S
C498   C502    1.448   .     S
C498   O548    1.291   .     S
Zn499  N532    2.023   .     S
Zn500  N531    2.023   .     S
C501   C507    1.384   .     A
C501   C505    1.399   .     A
C502   C506    1.399   .     A
C502   C508    1.384   .     A
C503   C511    1.404   .     A
C503   C505    1.393   .     A
C503   H633    1.084   1_455 S
C504   C512    1.404   .     A
C504   C506    1.393   .     A
C504   H580    1.084   .     S
C505   H632    1.082   1_455 S
C506   H577    1.082   .     S
C507   H522    1.080   .     S
C507   C509    1.391   .     A
C508   H521    1.080   .     S
C508   C510    1.391   .     A
C509   C513    1.417   .     A
C509   C511    1.415   .     A
C510   C512    1.415   .     A
C510   C514    1.417   .     A
C511   C31     1.386   1_556 S
C513   C516    1.433   .     A
C513   C28     1.419   1_556 S
C514   C515    1.433   .     A
C515   C517    1.393   .     A
C515   N535    1.435   .     S
C516   C518    1.393   .     A
C516   N538    1.435   .     S
C517   H519    1.085   .     S
C518   H520    1.085   .     S
C518   C26     1.386   1_556 S
H523   C614    1.082   1_455 S
H524   C559    1.082   .     S
H525   C557    1.084   .     S
H526   C612    1.084   1_455 S
C527   C798    1.339   1_455 S
C527   H691    1.088   .     S
C528   C905    1.339   1_545 S
C528   H854    1.088   1_545 S
H529   C851    1.088   1_545 S
H530   C690    1.088   .     S
N531   H533    1.029   .     S
N531   N532    1.290   .     D
N532   H534    1.029   .     S
N535   O536    1.301   .     A
N535   O537    1.301   .     A
N538   O540    1.301   .     A
N538   O539    1.301   .     A
O541   Zn553   1.952   .     S
O541   C599    1.277   .     S
O542   Zn554   1.952   .     S
O543   Zn554   1.979   .     S
O543   C545    1.291   .     A
O544   C546    1.291   .     A
O544   Zn553   1.979   .     S
C545   C581    1.403   .     S
C546   C582    1.403   .     S
C546   O596    1.277   .     S
O547   Zn553   1.966   .     S
O547   C605    1.291   .     S
O548   Zn554   1.966   .     S
O549   Zn554   1.923   .     S
O549   C551    1.300   .     A
O550   C552    1.300   .     A
O550   Zn553   1.923   .     S
C551   C555    1.448   .     S
C552   C556    1.448   .     S
C552   O602    1.291   .     S
Zn553  N586    2.023   .     S
Zn554  N585    2.023   .     S
C555   C561    1.384   .     A
C555   C559    1.399   .     A
C556   C560    1.399   .     A
C556   C562    1.384   .     A
C557   C565    1.404   .     A
C557   C559    1.393   .     A
C558   C566    1.404   .     A
C558   C560    1.393   .     A
C558   H634    1.084   .     S
C560   H631    1.082   .     S
C561   H576    1.080   .     S
C561   C563    1.391   .     A
C562   H575    1.080   .     S
C562   C564    1.391   .     A
C563   C567    1.417   .     A
C563   C565    1.415   .     A
C564   C566    1.415   .     A
C564   C568    1.417   .     A
C565   C85     1.386   1_556 S
C567   C570    1.433   .     A
C567   C82     1.419   1_556 S
C568   C569    1.433   .     A
C569   C571    1.393   .     A
C569   N589    1.435   .     S
C570   C572    1.393   .     A
C570   N592    1.435   .     S
C571   H573    1.085   .     S
C572   H574    1.085   .     S
C572   C80     1.386   1_556 S
H578   C613    1.082   .     S
H579   C611    1.084   .     S
C581   C690    1.339   .     S
C581   H745    1.088   .     S
C582   C959    1.339   1_545 S
C582   H908    1.088   1_545 S
H583   C905    1.088   1_545 S
H584   C744    1.088   .     S
N585   H587    1.029   .     S
N585   N586    1.290   .     D
N586   H588    1.029   .     S
N589   O590    1.301   .     A
N589   O591    1.301   .     A
N592   O594    1.301   .     A
N592   O593    1.301   .     A
O595   Zn607   1.952   .     S
O595   C491    1.277   1_655 S
O596   Zn608   1.952   .     S
O597   Zn608   1.979   .     S
O597   C599    1.291   .     A
O598   C600    1.291   .     A
O598   Zn607   1.979   .     S
C599   C635    1.403   .     S
C600   C636    1.403   .     S
C600   O488    1.277   1_655 S
O601   Zn607   1.966   .     S
O601   C497    1.291   1_655 S
O602   Zn608   1.966   .     S
O603   Zn608   1.923   .     S
O603   C605    1.300   .     A
O604   C606    1.300   .     A
O604   Zn607   1.923   .     S
C605   C609    1.448   .     S
C606   C610    1.448   .     S
C606   O494    1.291   1_655 S
Zn607  N640    2.023   .     S
Zn608  N639    2.023   .     S
C609   C615    1.384   .     A
C609   C613    1.399   .     A
C610   C614    1.399   .     A
C610   C616    1.384   .     A
C611   C619    1.404   .     A
C611   C613    1.393   .     A
C612   C620    1.404   .     A
C612   C614    1.393   .     A
C612   H526    1.084   1_655 S
C614   H523    1.082   1_655 S
C615   H630    1.080   .     S
C615   C617    1.391   .     A
C616   H629    1.080   .     S
C616   C618    1.391   .     A
C617   C621    1.417   .     A
C617   C619    1.415   .     A
C618   C620    1.415   .     A
C618   C622    1.417   .     A
C619   C139    1.386   1_556 S
C621   C624    1.433   .     A
C621   C136    1.419   1_556 S
C622   C623    1.433   .     A
C623   C625    1.393   .     A
C623   N643    1.435   .     S
C624   C626    1.393   .     A
C624   N646    1.435   .     S
C625   H627    1.085   .     S
C626   H628    1.085   .     S
C626   C134    1.386   1_556 S
H632   C505    1.082   1_655 S
H633   C503    1.084   1_655 S
C635   C744    1.339   .     S
C635   H799    1.088   .     S
C636   C851    1.339   1_645 S
C636   H962    1.088   1_545 S
H637   C959    1.088   1_545 S
H638   C798    1.088   .     S
N639   H641    1.029   .     S
N639   N640    1.290   .     D
N640   H642    1.029   .     S
N643   O644    1.301   .     A
N643   O645    1.301   .     A
N646   O648    1.301   .     A
N646   O647    1.301   .     A
O649   Zn661   1.952   .     S
O649   C707    1.277   .     S
O650   Zn662   1.952   .     S
O650   C762    1.277   1_455 S
O651   Zn662   1.979   .     S
O651   C653    1.291   .     A
O652   C654    1.291   .     A
O652   Zn661   1.979   .     S
C653   C689    1.403   .     S
C653   O757    1.277   1_455 S
C654   C690    1.403   .     S
C654   O704    1.277   .     S
O655   Zn661   1.966   .     S
O655   C713    1.291   .     S
O656   Zn662   1.966   .     S
O656   C768    1.291   1_455 S
O657   Zn662   1.923   .     S
O657   C659    1.300   .     A
O658   C660    1.300   .     A
O658   Zn661   1.923   .     S
C659   C663    1.448   .     S
C659   O763    1.291   1_455 S
C660   C664    1.448   .     S
C660   O710    1.291   .     S
Zn661  N694    2.023   .     S
Zn662  N693    2.023   .     S
C663   C669    1.384   .     A
C663   C667    1.399   .     A
C664   C668    1.399   .     A
C664   C670    1.384   .     A
C665   C673    1.404   .     A
C665   C667    1.393   .     A
C665   H795    1.084   1_455 S
C666   C674    1.404   .     A
C666   C668    1.393   .     A
C666   H742    1.084   .     S
C667   H794    1.082   1_455 S
C668   H739    1.082   .     S
C669   H684    1.080   .     S
C669   C671    1.391   .     A
C670   H683    1.080   .     S
C670   C672    1.391   .     A
C671   C675    1.417   .     A
C671   C673    1.415   .     A
C672   C674    1.415   .     A
C672   C676    1.417   .     A
C673   C193    1.386   1_556 S
C675   C678    1.433   .     A
C675   C190    1.419   1_556 S
C676   C677    1.433   .     A
C677   C679    1.393   .     A
C677   N697    1.435   .     S
C678   C680    1.393   .     A
C678   N700    1.435   .     S
C679   H681    1.085   .     S
C680   H682    1.085   .     S
C680   C188    1.386   1_556 S
H685   C776    1.082   1_455 S
H686   C721    1.082   .     S
H687   C719    1.084   .     S
H688   C774    1.084   1_455 S
C689   C960    1.339   1_455 S
C689   H853    1.088   .     S
H692   C852    1.088   .     S
N693   H695    1.029   .     S
N693   N694    1.290   .     D
N694   H696    1.029   .     S
N697   O698    1.301   .     A
N697   O699    1.301   .     A
N700   O702    1.301   .     A
N700   O701    1.301   .     A
O703   Zn715   1.952   .     S
O703   C761    1.277   .     S
O704   Zn716   1.952   .     S
O705   Zn716   1.979   .     S
O705   C707    1.291   .     A
O706   C708    1.291   .     A
O706   Zn715   1.979   .     S
C707   C743    1.403   .     S
C708   C744    1.403   .     S
C708   O758    1.277   .     S
O709   Zn715   1.966   .     S
O709   C767    1.291   .     S
O710   Zn716   1.966   .     S
O711   Zn716   1.923   .     S
O711   C713    1.300   .     A
O712   C714    1.300   .     A
O712   Zn715   1.923   .     S
C713   C717    1.448   .     S
C714   C718    1.448   .     S
C714   O764    1.291   .     S
Zn715  N748    2.023   .     S
Zn716  N747    2.023   .     S
C717   C723    1.384   .     A
C717   C721    1.399   .     A
C718   C722    1.399   .     A
C718   C724    1.384   .     A
C719   C727    1.404   .     A
C719   C721    1.393   .     A
C720   C728    1.404   .     A
C720   C722    1.393   .     A
C720   H796    1.084   .     S
C722   H793    1.082   .     S
C723   H738    1.080   .     S
C723   C725    1.391   .     A
C724   H737    1.080   .     S
C724   C726    1.391   .     A
C725   C729    1.417   .     A
C725   C727    1.415   .     A
C726   C728    1.415   .     A
C726   C730    1.417   .     A
C727   C247    1.386   1_556 S
C729   C732    1.433   .     A
C729   C244    1.419   1_556 S
C730   C731    1.433   .     A
C731   C733    1.393   .     A
C731   N751    1.435   .     S
C732   C734    1.393   .     A
C732   N754    1.435   .     S
C733   H735    1.085   .     S
C734   H736    1.085   .     S
C734   C242    1.386   1_556 S
H740   C775    1.082   .     S
H741   C773    1.084   .     S
C743   C852    1.339   .     S
C743   H907    1.088   .     S
H746   C906    1.088   .     S
N747   H749    1.029   .     S
N747   N748    1.290   .     D
N748   H750    1.029   .     S
N751   O752    1.301   .     A
N751   O753    1.301   .     A
N754   O756    1.301   .     A
N754   O755    1.301   .     A
O757   Zn769   1.952   .     S
O757   C653    1.277   1_655 S
O758   Zn770   1.952   .     S
O759   Zn770   1.979   .     S
O759   C761    1.291   .     A
O760   C762    1.291   .     A
O760   Zn769   1.979   .     S
C761   C797    1.403   .     S
C762   C798    1.403   .     S
C762   O650    1.277   1_655 S
O763   Zn769   1.966   .     S
O763   C659    1.291   1_655 S
O764   Zn770   1.966   .     S
O765   Zn770   1.923   .     S
O765   C767    1.300   .     A
O766   C768    1.300   .     A
O766   Zn769   1.923   .     S
C767   C771    1.448   .     S
C768   C772    1.448   .     S
C768   O656    1.291   1_655 S
Zn769  N802    2.023   .     S
Zn770  N801    2.023   .     S
C771   C777    1.384   .     A
C771   C775    1.399   .     A
C772   C776    1.399   .     A
C772   C778    1.384   .     A
C773   C781    1.404   .     A
C773   C775    1.393   .     A
C774   C782    1.404   .     A
C774   C776    1.393   .     A
C774   H688    1.084   1_655 S
C776   H685    1.082   1_655 S
C777   H792    1.080   .     S
C777   C779    1.391   .     A
C778   H791    1.080   .     S
C778   C780    1.391   .     A
C779   C783    1.417   .     A
C779   C781    1.415   .     A
C780   C782    1.415   .     A
C780   C784    1.417   .     A
C781   C301    1.386   1_556 S
C783   C786    1.433   .     A
C783   C298    1.419   1_556 S
C784   C785    1.433   .     A
C785   C787    1.393   .     A
C785   N805    1.435   .     S
C786   C788    1.393   .     A
C786   N808    1.435   .     S
C787   H789    1.085   .     S
C788   H790    1.085   .     S
C788   C296    1.386   1_556 S
H794   C667    1.082   1_655 S
H795   C665    1.084   1_655 S
C797   C906    1.339   .     S
C797   H961    1.088   .     S
C798   C527    1.339   1_655 S
H800   C960    1.088   .     S
N801   H803    1.029   .     S
N801   N802    1.290   .     D
N802   H804    1.029   .     S
N805   O806    1.301   .     A
N805   O807    1.301   .     A
N808   O810    1.301   .     A
N808   O809    1.301   .     A
O811   Zn823   1.952   .     S
O811   C869    1.277   .     S
O812   Zn824   1.952   .     S
O812   C924    1.277   1_455 S
O813   Zn824   1.979   .     S
O813   C815    1.291   .     A
O814   C816    1.291   .     A
O814   Zn823   1.979   .     S
C815   C851    1.403   .     S
C815   O919    1.277   1_455 S
C816   C852    1.403   .     S
C816   O866    1.277   .     S
O817   Zn823   1.966   .     S
O817   C875    1.291   .     S
O818   Zn824   1.966   .     S
O818   C930    1.291   1_455 S
O819   Zn824   1.923   .     S
O819   C821    1.300   .     A
O820   C822    1.300   .     A
O820   Zn823   1.923   .     S
C821   C825    1.448   .     S
C821   O925    1.291   1_455 S
C822   C826    1.448   .     S
C822   O872    1.291   .     S
Zn823  N856    2.023   .     S
Zn824  N855    2.023   .     S
C825   C831    1.384   .     A
C825   C829    1.399   .     A
C826   C830    1.399   .     A
C826   C832    1.384   .     A
C827   C835    1.404   .     A
C827   C829    1.393   .     A
C827   H957    1.084   1_455 S
C828   C836    1.404   .     A
C828   C830    1.393   .     A
C828   H904    1.084   .     S
C829   H956    1.082   1_455 S
C830   H901    1.082   .     S
C831   H846    1.080   .     S
C831   C833    1.391   .     A
C832   H845    1.080   .     S
C832   C834    1.391   .     A
C833   C837    1.417   .     A
C833   C835    1.415   .     A
C834   C836    1.415   .     A
C834   C838    1.417   .     A
C835   C355    1.386   1_556 S
C837   C840    1.433   .     A
C837   C352    1.419   1_556 S
C838   C839    1.433   .     A
C839   C841    1.393   .     A
C839   N859    1.435   .     S
C840   C842    1.393   .     A
C840   N862    1.435   .     S
C841   H843    1.085   .     S
C842   H844    1.085   .     S
C842   C350    1.386   1_556 S
H847   C938    1.082   1_455 S
H848   C883    1.082   .     S
H849   C881    1.084   .     S
H850   C936    1.084   1_455 S
C851   C636    1.339   1_465 S
C851   H529    1.088   1_565 S
H854   C528    1.088   1_565 S
N855   H857    1.029   .     S
N855   N856    1.290   .     D
N856   H858    1.029   .     S
N859   O860    1.301   .     A
N859   O861    1.301   .     A
N862   O864    1.301   .     A
N862   O863    1.301   .     A
O865   Zn877   1.952   .     S
O865   C923    1.277   .     S
O866   Zn878   1.952   .     S
O867   Zn878   1.979   .     S
O867   C869    1.291   .     A
O868   C870    1.291   .     A
O868   Zn877   1.979   .     S
C869   C905    1.403   .     S
C870   C906    1.403   .     S
C870   O920    1.277   .     S
O871   Zn877   1.966   .     S
O871   C929    1.291   .     S
O872   Zn878   1.966   .     S
O873   Zn878   1.923   .     S
O873   C875    1.300   .     A
O874   C876    1.300   .     A
O874   Zn877   1.923   .     S
C875   C879    1.448   .     S
C876   C880    1.448   .     S
C876   O926    1.291   .     S
Zn877  N910    2.023   .     S
Zn878  N909    2.023   .     S
C879   C885    1.384   .     A
C879   C883    1.399   .     A
C880   C884    1.399   .     A
C880   C886    1.384   .     A
C881   C889    1.404   .     A
C881   C883    1.393   .     A
C882   C890    1.404   .     A
C882   C884    1.393   .     A
C882   H958    1.084   .     S
C884   H955    1.082   .     S
C885   H900    1.080   .     S
C885   C887    1.391   .     A
C886   H899    1.080   .     S
C886   C888    1.391   .     A
C887   C891    1.417   .     A
C887   C889    1.415   .     A
C888   C890    1.415   .     A
C888   C892    1.417   .     A
C889   C409    1.386   1_556 S
C891   C894    1.433   .     A
C891   C406    1.419   1_556 S
C892   C893    1.433   .     A
C893   C895    1.393   .     A
C893   N913    1.435   .     S
C894   C896    1.393   .     A
C894   N916    1.435   .     S
C895   H897    1.085   .     S
C896   H898    1.085   .     S
C896   C404    1.386   1_556 S
H902   C937    1.082   .     S
H903   C935    1.084   .     S
C905   C528    1.339   1_565 S
C905   H583    1.088   1_565 S
H908   C582    1.088   1_565 S
N909   H911    1.029   .     S
N909   N910    1.290   .     D
N910   H912    1.029   .     S
N913   O914    1.301   .     A
N913   O915    1.301   .     A
N916   O918    1.301   .     A
N916   O917    1.301   .     A
O919   Zn931   1.952   .     S
O919   C815    1.277   1_655 S
O920   Zn932   1.952   .     S
O921   Zn932   1.979   .     S
O921   C923    1.291   .     A
O922   C924    1.291   .     A
O922   Zn931   1.979   .     S
C923   C959    1.403   .     S
C924   C960    1.403   .     S
C924   O812    1.277   1_655 S
O925   Zn931   1.966   .     S
O925   C821    1.291   1_655 S
O926   Zn932   1.966   .     S
O927   Zn932   1.923   .     S
O927   C929    1.300   .     A
O928   C930    1.300   .     A
O928   Zn931   1.923   .     S
C929   C933    1.448   .     S
C930   C934    1.448   .     S
C930   O818    1.291   1_655 S
Zn931  N964    2.023   .     S
Zn932  N963    2.023   .     S
C933   C939    1.384   .     A
C933   C937    1.399   .     A
C934   C938    1.399   .     A
C934   C940    1.384   .     A
C935   C943    1.404   .     A
C935   C937    1.393   .     A
C936   C944    1.404   .     A
C936   C938    1.393   .     A
C936   H850    1.084   1_655 S
C938   H847    1.082   1_655 S
C939   H954    1.080   .     S
C939   C941    1.391   .     A
C940   H953    1.080   .     S
C940   C942    1.391   .     A
C941   C945    1.417   .     A
C941   C943    1.415   .     A
C942   C944    1.415   .     A
C942   C946    1.417   .     A
C943   C463    1.386   1_556 S
C945   C948    1.433   .     A
C945   C460    1.419   1_556 S
C946   C947    1.433   .     A
C947   C949    1.393   .     A
C947   N967    1.435   .     S
C948   C950    1.393   .     A
C948   N970    1.435   .     S
C949   H951    1.085   .     S
C950   H952    1.085   .     S
C950   C458    1.386   1_556 S
H956   C829    1.082   1_655 S
H957   C827    1.084   1_655 S
C959   C582    1.339   1_565 S
C959   H637    1.088   1_565 S
C960   C689    1.339   1_655 S
H962   C636    1.088   1_565 S
N963   H965    1.029   .     S
N963   N964    1.290   .     D
N964   H966    1.029   .     S
N967   O968    1.301   .     A
N967   O969    1.301   .     A
N970   O972    1.301   .     A
N970   O971    1.301   .     A
