data_str_m1_o1_o5_pcu_sym.16
_audit_creation_date              2020-01-03
_audit_creation_method            'Materials Studio'
_symmetry_space_group_name_H-M    'P1'
_symmetry_Int_Tables_number       1
_symmetry_cell_setting            triclinic
loop_
_symmetry_equiv_pos_as_xyz
  x,y,z
_cell_length_a                    36.5571
_cell_length_b                    36.7582
_cell_length_c                    22.3739
_cell_angle_alpha                 89.9999
_cell_angle_beta                  90.0006
_cell_angle_gamma                 89.9807
loop_
_atom_site_label
_atom_site_type_symbol
_atom_site_fract_x
_atom_site_fract_y
_atom_site_fract_z
_atom_site_U_iso_or_equiv
_atom_site_adp_type
_atom_site_occupancy
C1     C     0.00000   0.25000   0.02667   0.00000  Uiso   1.00
C2     C     0.00000   0.25000   0.58996   0.00000  Uiso   1.00
C3     C     0.25000  -0.00000   0.41011   0.00000  Uiso   1.00
C4     C     0.25000  -0.00000   0.58989   0.00000  Uiso   1.00
C5     C     0.25000  -0.00000   0.91004   0.00000  Uiso   1.00
C6     C     0.25000  -0.00000   0.08996   0.00000  Uiso   1.00
C7     C     0.00000   0.25000   0.91011   0.00000  Uiso   1.00
C8     C     0.00000   0.25000   0.08989   0.00000  Uiso   1.00
C9     C     0.07046   0.18027   0.25032   0.00000  Uiso   1.00
C10    C     0.42974   0.31974   0.74981   0.00000  Uiso   1.00
C11    C     0.17997   0.42986   0.24989   0.00000  Uiso   1.00
C12    C     0.00000   0.25000   0.97332   0.00000  Uiso   1.00
C13    C     0.31983   0.07017   0.74968   0.00000  Uiso   1.00
C14    C     0.42957   0.31976   0.25025   0.00000  Uiso   1.00
C15    C     0.07026   0.18026   0.74982   0.00000  Uiso   1.00
C16    C     0.32004   0.07012   0.24987   0.00000  Uiso   1.00
C17    C     0.18017   0.42983   0.74968   0.00000  Uiso   1.00
C18    C     0.07003   0.32013   0.74988   0.00000  Uiso   1.00
C19    C     0.43018   0.17983   0.24967   0.00000  Uiso   1.00
C20    C     0.17954   0.06972   0.75032   0.00000  Uiso   1.00
C21    C     0.32026   0.43026   0.24982   0.00000  Uiso   1.00
C22    C     0.42997   0.17987   0.74987   0.00000  Uiso   1.00
C23    C     0.25000  -0.00000   0.02669   0.00000  Uiso   1.00
C24    C     0.06983   0.32016   0.24969   0.00000  Uiso   1.00
C25    C     0.32045   0.43027   0.75032   0.00000  Uiso   1.00
C26    C     0.17974   0.06974   0.24983   0.00000  Uiso   1.00
C27    C     0.09666   0.37625   0.20887   0.00000  Uiso   1.00
C28    C     0.40192   0.12507   0.79765   0.00000  Uiso   1.00
C29    C     0.37496   0.40155   0.20743   0.00000  Uiso   1.00
C30    C     0.12616   0.09956   0.80098   0.00000  Uiso   1.00
C31    C     0.40343   0.12367   0.20893   0.00000  Uiso   1.00
C32    C     0.09809   0.37493   0.79766   0.00000  Uiso   1.00
C33    C     0.12517   0.09861   0.20722   0.00000  Uiso   1.00
C34    C     0.25000  -0.00000   0.97331   0.00000  Uiso   1.00
C35    C     0.37387   0.40046   0.80094   0.00000  Uiso   1.00
C36    C     0.09773   0.12605   0.79917   0.00000  Uiso   1.00
C37    C     0.39708   0.37067   0.20139   0.00000  Uiso   1.00
C38    C     0.37658   0.09585   0.79400   0.00000  Uiso   1.00
C39    C     0.12728   0.39890   0.20235   0.00000  Uiso   1.00
C40    C     0.40230   0.37398   0.79911   0.00000  Uiso   1.00
C41    C     0.10305   0.12950   0.20132   0.00000  Uiso   1.00
C42    C     0.12342   0.40415   0.79401   0.00000  Uiso   1.00
C43    C     0.37283   0.10097   0.20241   0.00000  Uiso   1.00
C44    C     0.34665   0.12624   0.70883   0.00000  Uiso   1.00
C45    C     0.25000  -0.00000   0.52667   0.00000  Uiso   1.00
C46    C     0.15192   0.37506   0.29767   0.00000  Uiso   1.00
C47    C     0.12484   0.15140   0.70722   0.00000  Uiso   1.00
C48    C     0.37610   0.34949   0.30083   0.00000  Uiso   1.00
C49    C     0.15334   0.37376   0.70883   0.00000  Uiso   1.00
C50    C     0.34804   0.12496   0.29754   0.00000  Uiso   1.00
C51    C     0.37513   0.34857   0.70726   0.00000  Uiso   1.00
C52    C     0.12384   0.15044   0.30099   0.00000  Uiso   1.00
C53    C     0.34768   0.37598   0.29904   0.00000  Uiso   1.00
C54    C     0.14696   0.12050   0.70132   0.00000  Uiso   1.00
C55    C     0.12659   0.34583   0.29401   0.00000  Uiso   1.00
C56    C     0.25000  -0.00000   0.47332   0.00000  Uiso   1.00
C57    C     0.37727   0.14891   0.70233   0.00000  Uiso   1.00
C58    C     0.15226   0.12394   0.29918   0.00000  Uiso   1.00
C59    C     0.35301   0.37947   0.70134   0.00000  Uiso   1.00
C60    C     0.37337   0.15419   0.29387   0.00000  Uiso   1.00
C61    C     0.12272   0.35110   0.70232   0.00000  Uiso   1.00
C62    C     0.15256   0.40098   0.25033   0.00000  Uiso   1.00
C63    C     0.34821   0.09787   0.75102   0.00000  Uiso   1.00
C64    C     0.40031   0.34683   0.25094   0.00000  Uiso   1.00
C65    C     0.09796   0.15192   0.75219   0.00000  Uiso   1.00
C66    C     0.34747   0.09899   0.25029   0.00000  Uiso   1.00
C67    C     0.00000   0.25000   0.52669   0.00000  Uiso   1.00
C68    C     0.15179   0.40214   0.75102   0.00000  Uiso   1.00
C69    C     0.09971   0.15319   0.25102   0.00000  Uiso   1.00
C70    C     0.40203   0.34807   0.75218   0.00000  Uiso   1.00
C71    C     0.15029   0.09681   0.75102   0.00000  Uiso   1.00
C72    C     0.34797   0.40193   0.25219   0.00000  Uiso   1.00
C73    C     0.40255   0.15099   0.75031   0.00000  Uiso   1.00
C74    C     0.09822   0.34786   0.25103   0.00000  Uiso   1.00
C75    C     0.34970   0.40319   0.75101   0.00000  Uiso   1.00
C76    C     0.15204   0.09807   0.25219   0.00000  Uiso   1.00
C77    C     0.09744   0.34902   0.75031   0.00000  Uiso   1.00
C78    C     0.00000   0.25000   0.47331   0.00000  Uiso   1.00
C79    C     0.40180   0.15212   0.25099   0.00000  Uiso   1.00
C80    C     0.00000   0.25000   0.41004   0.00000  Uiso   1.00
H81    H     0.03023   0.42975   0.12139   0.00000  Uiso   1.00
H82    H     0.37728   0.37721   0.06731   0.00000  Uiso   1.00
H83    H     0.43278   0.03706   0.82277   0.00000  Uiso   1.00
H84    H     0.11423   0.42136   0.04278   0.00000  Uiso   1.00
H85    H     0.46473   0.40653   0.91778   0.00000  Uiso   1.00
H86    H     0.08160   0.11978   0.04026   0.00000  Uiso   1.00
H87    H     0.06724   0.46296   0.82288   0.00000  Uiso   1.00
H88    H     0.38612   0.07816   0.04303   0.00000  Uiso   1.00
H89    H     0.28024   0.17964   0.62114   0.00000  Uiso   1.00
H90    H     0.18749   0.35927   0.44955   0.00000  Uiso   1.00
H91    H     0.17962   0.21495   0.61679   0.00000  Uiso   1.00
H92    H     0.43753   0.10939   0.94957   0.00000  Uiso   1.00
H93    H     0.34363   0.27497   0.39356   0.00000  Uiso   1.00
H94    H     0.21974   0.32033   0.62118   0.00000  Uiso   1.00
H95    H     0.31228   0.14090   0.44927   0.00000  Uiso   1.00
H96    H     0.32032   0.28498   0.61695   0.00000  Uiso   1.00
H97    H     0.15616   0.22496   0.39391   0.00000  Uiso   1.00
H98    H     0.28558   0.34351   0.41822   0.00000  Uiso   1.00
H99    H     0.16839   0.13022   0.54026   0.00000  Uiso   1.00
H100   H     0.18281   0.28704   0.32284   0.00000  Uiso   1.00
H101   H     0.36423   0.17137   0.54275   0.00000  Uiso   1.00
H102   H     0.21431   0.15626   0.41856   0.00000  Uiso   1.00
H103   H     0.42975   0.46549   0.11752   0.00000  Uiso   1.00
H104   H     0.33155   0.36971   0.54030   0.00000  Uiso   1.00
H105   H     0.31707   0.21295   0.32227   0.00000  Uiso   1.00
H106   H     0.13573   0.32865   0.54273   0.00000  Uiso   1.00
H107   H     0.09385   0.02503   0.89389   0.00000  Uiso   1.00
H108   H     0.46999   0.07022   0.12161   0.00000  Uiso   1.00
H109   H     0.06251   0.39068   0.94955   0.00000  Uiso   1.00
H110   H     0.07039   0.03505   0.11679   0.00000  Uiso   1.00
H111   H     0.40621   0.47502   0.89373   0.00000  Uiso   1.00
H112   H     0.03570   0.09369   0.91852   0.00000  Uiso   1.00
O113   O     0.00000   0.25000   0.25000   0.00000  Uiso   1.00
O114   O     0.00000   0.28035   0.61781   0.00000  Uiso   1.00
O115   O     0.38994   0.09498   0.07707   0.00000  Uiso   1.00
O116   O     0.30231   0.10947   0.61704   0.00000  Uiso   1.00
O117   O     0.27286   0.12884   0.70991   0.00000  Uiso   1.00
O118   O     0.30294   0.17830   0.64521   0.00000  Uiso   1.00
O119   O     0.21683   0.35400   0.34116   0.00000  Uiso   1.00
O120   O     0.19817   0.41522   0.36932   0.00000  Uiso   1.00
O121   O     0.16645   0.36221   0.42206   0.00000  Uiso   1.00
O122   O     0.10822   0.19473   0.61426   0.00000  Uiso   1.00
O123   O     0.12930   0.22445   0.70590   0.00000  Uiso   1.00
O124   O     0.17769   0.19247   0.64100   0.00000  Uiso   1.00
O125   O     0.21965  -0.00000   0.38219   0.00000  Uiso   1.00
O126   O     0.41479   0.29812   0.36616   0.00000  Uiso   1.00
O127   O     0.37354   0.33770   0.42048   0.00000  Uiso   1.00
O128   O     0.34587   0.28675   0.35390   0.00000  Uiso   1.00
O129   O     0.19770   0.39052   0.61706   0.00000  Uiso   1.00
O130   O     0.22712   0.37113   0.70994   0.00000  Uiso   1.00
O131   O     0.19703   0.32168   0.64523   0.00000  Uiso   1.00
O132   O     0.28306   0.14599   0.34076   0.00000  Uiso   1.00
O133   O     0.30180   0.08484   0.36923   0.00000  Uiso   1.00
O134   O     0.33335   0.13799   0.42185   0.00000  Uiso   1.00
O135   O     0.39172   0.30519   0.61435   0.00000  Uiso   1.00
O136   O     0.28036  -0.00000   0.61781   0.00000  Uiso   1.00
O137   O     0.37065   0.27552   0.70605   0.00000  Uiso   1.00
O138   O     0.32226   0.30748   0.64112   0.00000  Uiso   1.00
O139   O     0.08509   0.20172   0.36640   0.00000  Uiso   1.00
O140   O     0.12633   0.16212   0.42068   0.00000  Uiso   1.00
O141   O     0.15401   0.21315   0.35426   0.00000  Uiso   1.00
O142   O     0.33064   0.39955   0.40917   0.00000  Uiso   1.00
O143   O     0.28044   0.40020   0.33763   0.00000  Uiso   1.00
O144   O     0.29927   0.33863   0.38086   0.00000  Uiso   1.00
O145   O     0.20875   0.11454   0.63665   0.00000  Uiso   1.00
O146   O     0.15988   0.07123   0.61404   0.00000  Uiso   1.00
O147   O     0.25000   0.03035   0.88219   0.00000  Uiso   1.00
O148   O     0.15257   0.13615   0.57486   0.00000  Uiso   1.00
O149   O     0.10857   0.31639   0.39995   0.00000  Uiso   1.00
O150   O     0.11145   0.27415   0.31646   0.00000  Uiso   1.00
O151   O     0.17217   0.29621   0.36068   0.00000  Uiso   1.00
O152   O     0.37664   0.21160   0.64030   0.00000  Uiso   1.00
O153   O     0.42486   0.16824   0.61471   0.00000  Uiso   1.00
O154   O     0.36029   0.15467   0.57689   0.00000  Uiso   1.00
O155   O     0.16918   0.10024   0.40929   0.00000  Uiso   1.00
O156   O     0.21945   0.09966   0.33789   0.00000  Uiso   1.00
O157   O     0.20058   0.16119   0.38125   0.00000  Uiso   1.00
O158   O     0.25000   0.46964   0.11781   0.00000  Uiso   1.00
O159   O     0.29119   0.38537   0.63671   0.00000  Uiso   1.00
O160   O     0.34003   0.42871   0.61403   0.00000  Uiso   1.00
O161   O     0.34737   0.36378   0.57491   0.00000  Uiso   1.00
O162   O     0.39124   0.18377   0.39977   0.00000  Uiso   1.00
O163   O     0.38843   0.22590   0.31612   0.00000  Uiso   1.00
O164   O     0.32767   0.20385   0.36019   0.00000  Uiso   1.00
O165   O     0.12326   0.28842   0.64027   0.00000  Uiso   1.00
O166   O     0.07511   0.33186   0.61470   0.00000  Uiso   1.00
O167   O     0.13971   0.34533   0.57689   0.00000  Uiso   1.00
O168   O     0.03036   0.25000   0.88219   0.00000  Uiso   1.00
O169   O     0.46965   0.25000   0.11781   0.00000  Uiso   1.00
O170   O     0.25000   0.46964   0.88219   0.00000  Uiso   1.00
O171   O     0.25000   0.03035   0.11781   0.00000  Uiso   1.00
O172   O     0.46965   0.25000   0.88219   0.00000  Uiso   1.00
O173   O     0.00000   0.25000   0.75000   0.00000  Uiso   1.00
O174   O     0.03036   0.25000   0.11781   0.00000  Uiso   1.00
O175   O     0.04268   0.17692   0.28474   0.00000  Uiso   1.00
O176   O     0.45733   0.32307   0.71526   0.00000  Uiso   1.00
O177   O     0.17693   0.45732   0.28474   0.00000  Uiso   1.00
O178   O     0.32308   0.04267   0.71526   0.00000  Uiso   1.00
O179   O     0.45733   0.32307   0.28474   0.00000  Uiso   1.00
O180   O     0.04268   0.17692   0.71526   0.00000  Uiso   1.00
O181   O     0.32308   0.04267   0.28474   0.00000  Uiso   1.00
O182   O     0.17693   0.45732   0.71526   0.00000  Uiso   1.00
O183   O     0.04268   0.32307   0.71526   0.00000  Uiso   1.00
O184   O     0.25000  -0.00000   0.25000   0.00000  Uiso   1.00
O185   O     0.45733   0.17692   0.28474   0.00000  Uiso   1.00
O186   O     0.17693   0.04267   0.71526   0.00000  Uiso   1.00
O187   O     0.32308   0.45732   0.28474   0.00000  Uiso   1.00
O188   O     0.45733   0.17692   0.71526   0.00000  Uiso   1.00
O189   O     0.04268   0.32307   0.28474   0.00000  Uiso   1.00
O190   O     0.32308   0.45732   0.71526   0.00000  Uiso   1.00
O191   O     0.17693   0.04267   0.28474   0.00000  Uiso   1.00
O192   O     0.29268   0.42692   0.78474   0.00000  Uiso   1.00
O193   O     0.20733   0.07307   0.21526   0.00000  Uiso   1.00
O194   O     0.42693   0.20732   0.78474   0.00000  Uiso   1.00
O195   O     0.25000  -0.00000   0.75000   0.00000  Uiso   1.00
O196   O     0.07308   0.29267   0.21526   0.00000  Uiso   1.00
O197   O     0.20733   0.07307   0.78474   0.00000  Uiso   1.00
O198   O     0.29268   0.42692   0.21526   0.00000  Uiso   1.00
O199   O     0.07308   0.29267   0.78474   0.00000  Uiso   1.00
O200   O     0.42693   0.20732   0.21526   0.00000  Uiso   1.00
O201   O     0.29268   0.07307   0.21526   0.00000  Uiso   1.00
O202   O     0.20733   0.42692   0.78474   0.00000  Uiso   1.00
O203   O     0.42693   0.29267   0.21526   0.00000  Uiso   1.00
O204   O     0.07308   0.20732   0.78474   0.00000  Uiso   1.00
O205   O     0.20733   0.42692   0.21526   0.00000  Uiso   1.00
O206   O     0.00000   0.28035   0.38219   0.00000  Uiso   1.00
O207   O     0.29268   0.07307   0.78474   0.00000  Uiso   1.00
O208   O     0.07308   0.20732   0.21526   0.00000  Uiso   1.00
O209   O     0.42693   0.29267   0.78474   0.00000  Uiso   1.00
O210   O     0.05222   0.35953   0.11719   0.00000  Uiso   1.00
O211   O     0.02289   0.37895   0.21015   0.00000  Uiso   1.00
O212   O     0.05298   0.42837   0.14535   0.00000  Uiso   1.00
O213   O     0.46684   0.10402   0.84108   0.00000  Uiso   1.00
O214   O     0.44817   0.16523   0.86929   0.00000  Uiso   1.00
O215   O     0.41650   0.11220   0.92203   0.00000  Uiso   1.00
O216   O     0.35812   0.44579   0.11570   0.00000  Uiso   1.00
O217   O     0.00000   0.21964   0.61781   0.00000  Uiso   1.00
O218   O     0.38017   0.47450   0.20758   0.00000  Uiso   1.00
O219   O     0.42775   0.44269   0.14091   0.00000  Uiso   1.00
O220   O     0.16492   0.04831   0.86644   0.00000  Uiso   1.00
O221   O     0.12363   0.08789   0.92068   0.00000  Uiso   1.00
O222   O     0.09601   0.03683   0.85424   0.00000  Uiso   1.00
O223   O     0.44781   0.14036   0.11715   0.00000  Uiso   1.00
O224   O     0.47723   0.12118   0.21016   0.00000  Uiso   1.00
O225   O     0.44727   0.07157   0.14563   0.00000  Uiso   1.00
O226   O     0.03319   0.39601   0.84114   0.00000  Uiso   1.00
O227   O     0.05182   0.33478   0.86929   0.00000  Uiso   1.00
O228   O     0.28036  -0.00000   0.38219   0.00000  Uiso   1.00
O229   O     0.08355   0.38777   0.92206   0.00000  Uiso   1.00
O230   O     0.14178   0.05528   0.11426   0.00000  Uiso   1.00
O231   O     0.12070   0.02555   0.20589   0.00000  Uiso   1.00
O232   O     0.07232   0.05754   0.14099   0.00000  Uiso   1.00
O233   O     0.33510   0.45169   0.86643   0.00000  Uiso   1.00
O234   O     0.37648   0.41219   0.92062   0.00000  Uiso   1.00
O235   O     0.40399   0.46324   0.85408   0.00000  Uiso   1.00
O236   O     0.08075   0.14975   0.90925   0.00000  Uiso   1.00
O237   O     0.03050   0.15028   0.83779   0.00000  Uiso   1.00
O238   O     0.04941   0.08877   0.88119   0.00000  Uiso   1.00
O239   O     0.21965  -0.00000   0.61781   0.00000  Uiso   1.00
O240   O     0.45893   0.36613   0.13648   0.00000  Uiso   1.00
O241   O     0.41150   0.32150   0.11399   0.00000  Uiso   1.00
O242   O     0.40240   0.38625   0.07481   0.00000  Uiso   1.00
O243   O     0.35859   0.06645   0.89999   0.00000  Uiso   1.00
O244   O     0.36141   0.02419   0.81653   0.00000  Uiso   1.00
O245   O     0.42216   0.04623   0.86063   0.00000  Uiso   1.00
O246   O     0.12679   0.46158   0.14029   0.00000  Uiso   1.00
O247   O     0.17488   0.41808   0.11469   0.00000  Uiso   1.00
O248   O     0.11025   0.40468   0.07694   0.00000  Uiso   1.00
O249   O     0.41942   0.35050   0.90928   0.00000  Uiso   1.00
O250   O     0.00000   0.21964   0.38219   0.00000  Uiso   1.00
O251   O     0.46956   0.34977   0.83763   0.00000  Uiso   1.00
O252   O     0.45076   0.41139   0.88069   0.00000  Uiso   1.00
O253   O     0.04125   0.13546   0.13664   0.00000  Uiso   1.00
O254   O     0.09013   0.17877   0.11404   0.00000  Uiso   1.00
O255   O     0.09744   0.11385   0.07486   0.00000  Uiso   1.00
O256   O     0.14145   0.43355   0.89999   0.00000  Uiso   1.00
O257   O     0.13860   0.47582   0.81655   0.00000  Uiso   1.00
O258   O     0.07787   0.45377   0.86071   0.00000  Uiso   1.00
O259   O     0.37374   0.03814   0.14080   0.00000  Uiso   1.00
O260   O     0.32538   0.08125   0.11480   0.00000  Uiso   1.00
S261   S     0.05501   0.38506   0.16947   0.00000  Uiso   1.00
S262   S     0.41839   0.36042   0.13109   0.00000  Uiso   1.00
S263   S     0.37883   0.05735   0.84348   0.00000  Uiso   1.00
S264   S     0.13555   0.42194   0.13296   0.00000  Uiso   1.00
S265   S     0.43624   0.37043   0.85744   0.00000  Uiso   1.00
S266   S     0.08193   0.14008   0.13100   0.00000  Uiso   1.00
S267   S     0.12119   0.44265   0.84350   0.00000  Uiso   1.00
S268   S     0.36473   0.07771   0.13317   0.00000  Uiso   1.00
S269   S     0.30502   0.13500   0.66933   0.00000  Uiso   1.00
S270   S     0.18463   0.37734   0.35767   0.00000  Uiso   1.00
S271   S     0.13429   0.19195   0.66603   0.00000  Uiso   1.00
S272   S     0.43465   0.12735   0.85763   0.00000  Uiso   1.00
S273   S     0.37902   0.31799   0.36232   0.00000  Uiso   1.00
S274   S     0.19497   0.36498   0.66935   0.00000  Uiso   1.00
S275   S     0.31527   0.12272   0.35746   0.00000  Uiso   1.00
S276   S     0.36566   0.30801   0.66612   0.00000  Uiso   1.00
S277   S     0.12088   0.18187   0.36256   0.00000  Uiso   1.00
S278   S     0.31378   0.37956   0.35743   0.00000  Uiso   1.00
S279   S     0.16808   0.10992   0.63100   0.00000  Uiso   1.00
S280   S     0.12884   0.30732   0.34346   0.00000  Uiso   1.00
S281   S     0.38551   0.17198   0.63295   0.00000  Uiso   1.00
S282   S     0.18609   0.12028   0.35766   0.00000  Uiso   1.00
S283   S     0.38456   0.44230   0.16684   0.00000  Uiso   1.00
S284   S     0.33187   0.39002   0.63103   0.00000  Uiso   1.00
S285   S     0.37103   0.19276   0.34318   0.00000  Uiso   1.00
S286   S     0.11445   0.32805   0.63294   0.00000  Uiso   1.00
S287   S     0.12912   0.06813   0.86256   0.00000  Uiso   1.00
S288   S     0.44511   0.11490   0.16955   0.00000  Uiso   1.00
S289   S     0.06537   0.37265   0.85766   0.00000  Uiso   1.00
S290   S     0.11572   0.05806   0.16602   0.00000  Uiso   1.00
S291   S     0.37092   0.43191   0.86250   0.00000  Uiso   1.00
S292   S     0.06387   0.12969   0.85761   0.00000  Uiso   1.00
Zn293  Zn    0.04333   0.25000   0.20067   0.00000  Uiso   1.00
Zn294  Zn    0.20667  -0.00000   0.29933   0.00000  Uiso   1.00
Zn295  Zn    0.00000   0.20667   0.70067   0.00000  Uiso   1.00
Zn296  Zn    0.00000   0.29333   0.29933   0.00000  Uiso   1.00
Zn297  Zn    0.20667  -0.00000   0.70067   0.00000  Uiso   1.00
Zn298  Zn    0.29333  -0.00000   0.29933   0.00000  Uiso   1.00
Zn299  Zn    0.00000   0.29333   0.70067   0.00000  Uiso   1.00
Zn300  Zn    0.00000   0.20667   0.29933   0.00000  Uiso   1.00
Zn301  Zn    0.45667   0.25000   0.79933   0.00000  Uiso   1.00
Zn302  Zn    0.25000   0.45667   0.20067   0.00000  Uiso   1.00
Zn303  Zn    0.25000   0.04333   0.79933   0.00000  Uiso   1.00
Zn304  Zn    0.45667   0.25000   0.20067   0.00000  Uiso   1.00
Zn305  Zn    0.04333   0.25000   0.79933   0.00000  Uiso   1.00
Zn306  Zn    0.25000   0.04333   0.20067   0.00000  Uiso   1.00
Zn307  Zn    0.25000   0.45667   0.79933   0.00000  Uiso   1.00
Zn308  Zn    0.29333  -0.00000   0.70067   0.00000  Uiso   1.00
C309   C     0.50000   0.25000   0.02667   0.00000  Uiso   1.00
C310   C     0.50000   0.25000   0.58996   0.00000  Uiso   1.00
C311   C     0.75000  -0.00000   0.41011   0.00000  Uiso   1.00
C312   C     0.75000  -0.00000   0.58989   0.00000  Uiso   1.00
C313   C     0.75000  -0.00000   0.91004   0.00000  Uiso   1.00
C314   C     0.75000  -0.00000   0.08996   0.00000  Uiso   1.00
C315   C     0.50000   0.25000   0.91011   0.00000  Uiso   1.00
C316   C     0.50000   0.25000   0.08989   0.00000  Uiso   1.00
C317   C     0.57046   0.18027   0.25032   0.00000  Uiso   1.00
C318   C     0.92974   0.31974   0.74981   0.00000  Uiso   1.00
C319   C     0.67997   0.42986   0.24989   0.00000  Uiso   1.00
C320   C     0.50000   0.25000   0.97332   0.00000  Uiso   1.00
C321   C     0.81983   0.07017   0.74968   0.00000  Uiso   1.00
C322   C     0.92957   0.31976   0.25025   0.00000  Uiso   1.00
C323   C     0.57026   0.18026   0.74982   0.00000  Uiso   1.00
C324   C     0.82004   0.07012   0.24987   0.00000  Uiso   1.00
C325   C     0.68017   0.42983   0.74968   0.00000  Uiso   1.00
C326   C     0.57003   0.32013   0.74988   0.00000  Uiso   1.00
C327   C     0.93018   0.17983   0.24967   0.00000  Uiso   1.00
C328   C     0.67954   0.06972   0.75032   0.00000  Uiso   1.00
C329   C     0.82026   0.43026   0.24982   0.00000  Uiso   1.00
C330   C     0.92997   0.17987   0.74987   0.00000  Uiso   1.00
C331   C     0.75000  -0.00000   0.02669   0.00000  Uiso   1.00
C332   C     0.56983   0.32016   0.24969   0.00000  Uiso   1.00
C333   C     0.82045   0.43027   0.75032   0.00000  Uiso   1.00
C334   C     0.67974   0.06974   0.24983   0.00000  Uiso   1.00
C335   C     0.59666   0.37625   0.20887   0.00000  Uiso   1.00
C336   C     0.90192   0.12507   0.79765   0.00000  Uiso   1.00
C337   C     0.87496   0.40155   0.20743   0.00000  Uiso   1.00
C338   C     0.62616   0.09956   0.80098   0.00000  Uiso   1.00
C339   C     0.90343   0.12367   0.20893   0.00000  Uiso   1.00
C340   C     0.59809   0.37493   0.79766   0.00000  Uiso   1.00
C341   C     0.62517   0.09861   0.20722   0.00000  Uiso   1.00
C342   C     0.75000  -0.00000   0.97331   0.00000  Uiso   1.00
C343   C     0.87387   0.40046   0.80094   0.00000  Uiso   1.00
C344   C     0.59773   0.12605   0.79917   0.00000  Uiso   1.00
C345   C     0.89708   0.37067   0.20139   0.00000  Uiso   1.00
C346   C     0.87658   0.09585   0.79400   0.00000  Uiso   1.00
C347   C     0.62728   0.39890   0.20235   0.00000  Uiso   1.00
C348   C     0.90230   0.37398   0.79911   0.00000  Uiso   1.00
C349   C     0.60305   0.12950   0.20132   0.00000  Uiso   1.00
C350   C     0.62342   0.40415   0.79401   0.00000  Uiso   1.00
C351   C     0.87283   0.10097   0.20241   0.00000  Uiso   1.00
C352   C     0.84665   0.12624   0.70883   0.00000  Uiso   1.00
C353   C     0.75000  -0.00000   0.52667   0.00000  Uiso   1.00
C354   C     0.65192   0.37506   0.29767   0.00000  Uiso   1.00
C355   C     0.62484   0.15140   0.70722   0.00000  Uiso   1.00
C356   C     0.87610   0.34949   0.30083   0.00000  Uiso   1.00
C357   C     0.65334   0.37376   0.70883   0.00000  Uiso   1.00
C358   C     0.84804   0.12496   0.29754   0.00000  Uiso   1.00
C359   C     0.87513   0.34857   0.70726   0.00000  Uiso   1.00
C360   C     0.62384   0.15044   0.30099   0.00000  Uiso   1.00
C361   C     0.84768   0.37598   0.29904   0.00000  Uiso   1.00
C362   C     0.64696   0.12050   0.70132   0.00000  Uiso   1.00
C363   C     0.62659   0.34583   0.29401   0.00000  Uiso   1.00
C364   C     0.75000  -0.00000   0.47332   0.00000  Uiso   1.00
C365   C     0.87727   0.14891   0.70233   0.00000  Uiso   1.00
C366   C     0.65226   0.12394   0.29918   0.00000  Uiso   1.00
C367   C     0.85301   0.37947   0.70134   0.00000  Uiso   1.00
C368   C     0.87337   0.15419   0.29387   0.00000  Uiso   1.00
C369   C     0.62272   0.35110   0.70232   0.00000  Uiso   1.00
C370   C     0.65256   0.40098   0.25033   0.00000  Uiso   1.00
C371   C     0.84821   0.09787   0.75102   0.00000  Uiso   1.00
C372   C     0.90031   0.34683   0.25094   0.00000  Uiso   1.00
C373   C     0.59796   0.15192   0.75219   0.00000  Uiso   1.00
C374   C     0.84747   0.09899   0.25029   0.00000  Uiso   1.00
C375   C     0.50000   0.25000   0.52669   0.00000  Uiso   1.00
C376   C     0.65179   0.40214   0.75102   0.00000  Uiso   1.00
C377   C     0.59971   0.15319   0.25102   0.00000  Uiso   1.00
C378   C     0.90203   0.34807   0.75218   0.00000  Uiso   1.00
C379   C     0.65029   0.09681   0.75102   0.00000  Uiso   1.00
C380   C     0.84797   0.40193   0.25219   0.00000  Uiso   1.00
C381   C     0.90255   0.15099   0.75031   0.00000  Uiso   1.00
C382   C     0.59822   0.34786   0.25103   0.00000  Uiso   1.00
C383   C     0.84970   0.40319   0.75101   0.00000  Uiso   1.00
C384   C     0.65204   0.09807   0.25219   0.00000  Uiso   1.00
C385   C     0.59744   0.34902   0.75031   0.00000  Uiso   1.00
C386   C     0.50000   0.25000   0.47331   0.00000  Uiso   1.00
C387   C     0.90180   0.15212   0.25099   0.00000  Uiso   1.00
C388   C     0.50000   0.25000   0.41004   0.00000  Uiso   1.00
H389   H     0.53023   0.42975   0.12139   0.00000  Uiso   1.00
H390   H     0.87728   0.37721   0.06731   0.00000  Uiso   1.00
H391   H     0.93278   0.03706   0.82277   0.00000  Uiso   1.00
H392   H     0.61423   0.42136   0.04278   0.00000  Uiso   1.00
H393   H     0.96473   0.40653   0.91778   0.00000  Uiso   1.00
H394   H     0.58160   0.11978   0.04026   0.00000  Uiso   1.00
H395   H     0.56724   0.46296   0.82288   0.00000  Uiso   1.00
H396   H     0.88612   0.07816   0.04303   0.00000  Uiso   1.00
H397   H     0.78024   0.17964   0.62114   0.00000  Uiso   1.00
H398   H     0.68749   0.35927   0.44955   0.00000  Uiso   1.00
H399   H     0.67962   0.21495   0.61679   0.00000  Uiso   1.00
H400   H     0.93753   0.10939   0.94957   0.00000  Uiso   1.00
H401   H     0.84363   0.27497   0.39356   0.00000  Uiso   1.00
H402   H     0.71974   0.32033   0.62118   0.00000  Uiso   1.00
H403   H     0.81228   0.14090   0.44927   0.00000  Uiso   1.00
H404   H     0.82032   0.28498   0.61695   0.00000  Uiso   1.00
H405   H     0.65616   0.22496   0.39391   0.00000  Uiso   1.00
H406   H     0.78558   0.34351   0.41822   0.00000  Uiso   1.00
H407   H     0.66839   0.13022   0.54026   0.00000  Uiso   1.00
H408   H     0.68281   0.28704   0.32284   0.00000  Uiso   1.00
H409   H     0.86423   0.17137   0.54275   0.00000  Uiso   1.00
H410   H     0.71431   0.15626   0.41856   0.00000  Uiso   1.00
H411   H     0.92975   0.46549   0.11752   0.00000  Uiso   1.00
H412   H     0.83155   0.36971   0.54030   0.00000  Uiso   1.00
H413   H     0.81707   0.21295   0.32227   0.00000  Uiso   1.00
H414   H     0.63573   0.32865   0.54273   0.00000  Uiso   1.00
H415   H     0.59385   0.02503   0.89389   0.00000  Uiso   1.00
H416   H     0.96999   0.07022   0.12161   0.00000  Uiso   1.00
H417   H     0.56251   0.39068   0.94955   0.00000  Uiso   1.00
H418   H     0.57039   0.03505   0.11679   0.00000  Uiso   1.00
H419   H     0.90621   0.47502   0.89373   0.00000  Uiso   1.00
H420   H     0.53570   0.09369   0.91852   0.00000  Uiso   1.00
O421   O     0.50000   0.25000   0.25000   0.00000  Uiso   1.00
O422   O     0.50000   0.28035   0.61781   0.00000  Uiso   1.00
O423   O     0.88994   0.09498   0.07707   0.00000  Uiso   1.00
O424   O     0.80231   0.10947   0.61704   0.00000  Uiso   1.00
O425   O     0.77286   0.12884   0.70991   0.00000  Uiso   1.00
O426   O     0.80294   0.17830   0.64521   0.00000  Uiso   1.00
O427   O     0.71683   0.35400   0.34116   0.00000  Uiso   1.00
O428   O     0.69817   0.41522   0.36932   0.00000  Uiso   1.00
O429   O     0.66645   0.36221   0.42206   0.00000  Uiso   1.00
O430   O     0.60822   0.19473   0.61426   0.00000  Uiso   1.00
O431   O     0.62930   0.22445   0.70590   0.00000  Uiso   1.00
O432   O     0.67769   0.19247   0.64100   0.00000  Uiso   1.00
O433   O     0.71965  -0.00000   0.38219   0.00000  Uiso   1.00
O434   O     0.91479   0.29812   0.36616   0.00000  Uiso   1.00
O435   O     0.87354   0.33770   0.42048   0.00000  Uiso   1.00
O436   O     0.84587   0.28675   0.35390   0.00000  Uiso   1.00
O437   O     0.69770   0.39052   0.61706   0.00000  Uiso   1.00
O438   O     0.72712   0.37113   0.70994   0.00000  Uiso   1.00
O439   O     0.69703   0.32168   0.64523   0.00000  Uiso   1.00
O440   O     0.78306   0.14599   0.34076   0.00000  Uiso   1.00
O441   O     0.80180   0.08484   0.36923   0.00000  Uiso   1.00
O442   O     0.83335   0.13799   0.42185   0.00000  Uiso   1.00
O443   O     0.89172   0.30519   0.61435   0.00000  Uiso   1.00
O444   O     0.78036  -0.00000   0.61781   0.00000  Uiso   1.00
O445   O     0.87065   0.27552   0.70605   0.00000  Uiso   1.00
O446   O     0.82226   0.30748   0.64112   0.00000  Uiso   1.00
O447   O     0.58509   0.20172   0.36640   0.00000  Uiso   1.00
O448   O     0.62633   0.16212   0.42068   0.00000  Uiso   1.00
O449   O     0.65401   0.21315   0.35426   0.00000  Uiso   1.00
O450   O     0.83064   0.39955   0.40917   0.00000  Uiso   1.00
O451   O     0.78044   0.40020   0.33763   0.00000  Uiso   1.00
O452   O     0.79927   0.33863   0.38086   0.00000  Uiso   1.00
O453   O     0.70875   0.11454   0.63665   0.00000  Uiso   1.00
O454   O     0.65988   0.07123   0.61404   0.00000  Uiso   1.00
O455   O     0.75000   0.03035   0.88219   0.00000  Uiso   1.00
O456   O     0.65257   0.13615   0.57486   0.00000  Uiso   1.00
O457   O     0.60857   0.31639   0.39995   0.00000  Uiso   1.00
O458   O     0.61145   0.27415   0.31646   0.00000  Uiso   1.00
O459   O     0.67217   0.29621   0.36068   0.00000  Uiso   1.00
O460   O     0.87664   0.21160   0.64030   0.00000  Uiso   1.00
O461   O     0.92486   0.16824   0.61471   0.00000  Uiso   1.00
O462   O     0.86029   0.15467   0.57689   0.00000  Uiso   1.00
O463   O     0.66918   0.10024   0.40929   0.00000  Uiso   1.00
O464   O     0.71945   0.09966   0.33789   0.00000  Uiso   1.00
O465   O     0.70058   0.16119   0.38125   0.00000  Uiso   1.00
O466   O     0.75000   0.46964   0.11781   0.00000  Uiso   1.00
O467   O     0.79119   0.38537   0.63671   0.00000  Uiso   1.00
O468   O     0.84003   0.42871   0.61403   0.00000  Uiso   1.00
O469   O     0.84737   0.36378   0.57491   0.00000  Uiso   1.00
O470   O     0.89124   0.18377   0.39977   0.00000  Uiso   1.00
O471   O     0.88843   0.22590   0.31612   0.00000  Uiso   1.00
O472   O     0.82767   0.20385   0.36019   0.00000  Uiso   1.00
O473   O     0.62326   0.28842   0.64027   0.00000  Uiso   1.00
O474   O     0.57511   0.33186   0.61470   0.00000  Uiso   1.00
O475   O     0.63971   0.34533   0.57689   0.00000  Uiso   1.00
O476   O     0.53036   0.25000   0.88219   0.00000  Uiso   1.00
O477   O     0.96965   0.25000   0.11781   0.00000  Uiso   1.00
O478   O     0.75000   0.46964   0.88219   0.00000  Uiso   1.00
O479   O     0.75000   0.03035   0.11781   0.00000  Uiso   1.00
O480   O     0.96965   0.25000   0.88219   0.00000  Uiso   1.00
O481   O     0.50000   0.25000   0.75000   0.00000  Uiso   1.00
O482   O     0.53036   0.25000   0.11781   0.00000  Uiso   1.00
O483   O     0.54268   0.17692   0.28474   0.00000  Uiso   1.00
O484   O     0.95733   0.32307   0.71526   0.00000  Uiso   1.00
O485   O     0.67693   0.45732   0.28474   0.00000  Uiso   1.00
O486   O     0.82308   0.04267   0.71526   0.00000  Uiso   1.00
O487   O     0.95733   0.32307   0.28474   0.00000  Uiso   1.00
O488   O     0.54268   0.17692   0.71526   0.00000  Uiso   1.00
O489   O     0.82308   0.04267   0.28474   0.00000  Uiso   1.00
O490   O     0.67693   0.45732   0.71526   0.00000  Uiso   1.00
O491   O     0.54268   0.32307   0.71526   0.00000  Uiso   1.00
O492   O     0.75000  -0.00000   0.25000   0.00000  Uiso   1.00
O493   O     0.95733   0.17692   0.28474   0.00000  Uiso   1.00
O494   O     0.67693   0.04267   0.71526   0.00000  Uiso   1.00
O495   O     0.82308   0.45732   0.28474   0.00000  Uiso   1.00
O496   O     0.95733   0.17692   0.71526   0.00000  Uiso   1.00
O497   O     0.54268   0.32307   0.28474   0.00000  Uiso   1.00
O498   O     0.82308   0.45732   0.71526   0.00000  Uiso   1.00
O499   O     0.67693   0.04267   0.28474   0.00000  Uiso   1.00
O500   O     0.79268   0.42692   0.78474   0.00000  Uiso   1.00
O501   O     0.70733   0.07307   0.21526   0.00000  Uiso   1.00
O502   O     0.92693   0.20732   0.78474   0.00000  Uiso   1.00
O503   O     0.75000  -0.00000   0.75000   0.00000  Uiso   1.00
O504   O     0.57308   0.29267   0.21526   0.00000  Uiso   1.00
O505   O     0.70733   0.07307   0.78474   0.00000  Uiso   1.00
O506   O     0.79268   0.42692   0.21526   0.00000  Uiso   1.00
O507   O     0.57308   0.29267   0.78474   0.00000  Uiso   1.00
O508   O     0.92693   0.20732   0.21526   0.00000  Uiso   1.00
O509   O     0.79268   0.07307   0.21526   0.00000  Uiso   1.00
O510   O     0.70733   0.42692   0.78474   0.00000  Uiso   1.00
O511   O     0.92693   0.29267   0.21526   0.00000  Uiso   1.00
O512   O     0.57308   0.20732   0.78474   0.00000  Uiso   1.00
O513   O     0.70733   0.42692   0.21526   0.00000  Uiso   1.00
O514   O     0.50000   0.28035   0.38219   0.00000  Uiso   1.00
O515   O     0.79268   0.07307   0.78474   0.00000  Uiso   1.00
O516   O     0.57308   0.20732   0.21526   0.00000  Uiso   1.00
O517   O     0.92693   0.29267   0.78474   0.00000  Uiso   1.00
O518   O     0.55222   0.35953   0.11719   0.00000  Uiso   1.00
O519   O     0.52289   0.37895   0.21015   0.00000  Uiso   1.00
O520   O     0.55298   0.42837   0.14535   0.00000  Uiso   1.00
O521   O     0.96684   0.10402   0.84108   0.00000  Uiso   1.00
O522   O     0.94817   0.16523   0.86929   0.00000  Uiso   1.00
O523   O     0.91650   0.11220   0.92203   0.00000  Uiso   1.00
O524   O     0.85812   0.44579   0.11570   0.00000  Uiso   1.00
O525   O     0.50000   0.21964   0.61781   0.00000  Uiso   1.00
O526   O     0.88017   0.47450   0.20758   0.00000  Uiso   1.00
O527   O     0.92775   0.44269   0.14091   0.00000  Uiso   1.00
O528   O     0.66492   0.04831   0.86644   0.00000  Uiso   1.00
O529   O     0.62363   0.08789   0.92068   0.00000  Uiso   1.00
O530   O     0.59601   0.03683   0.85424   0.00000  Uiso   1.00
O531   O     0.94781   0.14036   0.11715   0.00000  Uiso   1.00
O532   O     0.97723   0.12118   0.21016   0.00000  Uiso   1.00
O533   O     0.94727   0.07157   0.14563   0.00000  Uiso   1.00
O534   O     0.53319   0.39601   0.84114   0.00000  Uiso   1.00
O535   O     0.55182   0.33478   0.86929   0.00000  Uiso   1.00
O536   O     0.78036  -0.00000   0.38219   0.00000  Uiso   1.00
O537   O     0.58355   0.38777   0.92206   0.00000  Uiso   1.00
O538   O     0.64178   0.05528   0.11426   0.00000  Uiso   1.00
O539   O     0.62070   0.02555   0.20589   0.00000  Uiso   1.00
O540   O     0.57232   0.05754   0.14099   0.00000  Uiso   1.00
O541   O     0.83510   0.45169   0.86643   0.00000  Uiso   1.00
O542   O     0.87648   0.41219   0.92062   0.00000  Uiso   1.00
O543   O     0.90399   0.46324   0.85408   0.00000  Uiso   1.00
O544   O     0.58075   0.14975   0.90925   0.00000  Uiso   1.00
O545   O     0.53050   0.15028   0.83779   0.00000  Uiso   1.00
O546   O     0.54941   0.08877   0.88119   0.00000  Uiso   1.00
O547   O     0.71965  -0.00000   0.61781   0.00000  Uiso   1.00
O548   O     0.95893   0.36613   0.13648   0.00000  Uiso   1.00
O549   O     0.91150   0.32150   0.11399   0.00000  Uiso   1.00
O550   O     0.90240   0.38625   0.07481   0.00000  Uiso   1.00
O551   O     0.85859   0.06645   0.89999   0.00000  Uiso   1.00
O552   O     0.86141   0.02419   0.81653   0.00000  Uiso   1.00
O553   O     0.92216   0.04623   0.86063   0.00000  Uiso   1.00
O554   O     0.62679   0.46158   0.14029   0.00000  Uiso   1.00
O555   O     0.67488   0.41808   0.11469   0.00000  Uiso   1.00
O556   O     0.61025   0.40468   0.07694   0.00000  Uiso   1.00
O557   O     0.91942   0.35050   0.90928   0.00000  Uiso   1.00
O558   O     0.50000   0.21964   0.38219   0.00000  Uiso   1.00
O559   O     0.96956   0.34977   0.83763   0.00000  Uiso   1.00
O560   O     0.95076   0.41139   0.88069   0.00000  Uiso   1.00
O561   O     0.54125   0.13546   0.13664   0.00000  Uiso   1.00
O562   O     0.59013   0.17877   0.11404   0.00000  Uiso   1.00
O563   O     0.59744   0.11385   0.07486   0.00000  Uiso   1.00
O564   O     0.64145   0.43355   0.89999   0.00000  Uiso   1.00
O565   O     0.63860   0.47582   0.81655   0.00000  Uiso   1.00
O566   O     0.57787   0.45377   0.86071   0.00000  Uiso   1.00
O567   O     0.87374   0.03814   0.14080   0.00000  Uiso   1.00
O568   O     0.82538   0.08125   0.11480   0.00000  Uiso   1.00
S569   S     0.55501   0.38506   0.16947   0.00000  Uiso   1.00
S570   S     0.91839   0.36042   0.13109   0.00000  Uiso   1.00
S571   S     0.87883   0.05735   0.84348   0.00000  Uiso   1.00
S572   S     0.63555   0.42194   0.13296   0.00000  Uiso   1.00
S573   S     0.93624   0.37043   0.85744   0.00000  Uiso   1.00
S574   S     0.58193   0.14008   0.13100   0.00000  Uiso   1.00
S575   S     0.62119   0.44265   0.84350   0.00000  Uiso   1.00
S576   S     0.86473   0.07771   0.13317   0.00000  Uiso   1.00
S577   S     0.80502   0.13500   0.66933   0.00000  Uiso   1.00
S578   S     0.68463   0.37734   0.35767   0.00000  Uiso   1.00
S579   S     0.63429   0.19195   0.66603   0.00000  Uiso   1.00
S580   S     0.93465   0.12735   0.85763   0.00000  Uiso   1.00
S581   S     0.87902   0.31799   0.36232   0.00000  Uiso   1.00
S582   S     0.69497   0.36498   0.66935   0.00000  Uiso   1.00
S583   S     0.81527   0.12272   0.35746   0.00000  Uiso   1.00
S584   S     0.86566   0.30801   0.66612   0.00000  Uiso   1.00
S585   S     0.62088   0.18187   0.36256   0.00000  Uiso   1.00
S586   S     0.81378   0.37956   0.35743   0.00000  Uiso   1.00
S587   S     0.66808   0.10992   0.63100   0.00000  Uiso   1.00
S588   S     0.62884   0.30732   0.34346   0.00000  Uiso   1.00
S589   S     0.88551   0.17198   0.63295   0.00000  Uiso   1.00
S590   S     0.68609   0.12028   0.35766   0.00000  Uiso   1.00
S591   S     0.88456   0.44230   0.16684   0.00000  Uiso   1.00
S592   S     0.83187   0.39002   0.63103   0.00000  Uiso   1.00
S593   S     0.87103   0.19276   0.34318   0.00000  Uiso   1.00
S594   S     0.61445   0.32805   0.63294   0.00000  Uiso   1.00
S595   S     0.62912   0.06813   0.86256   0.00000  Uiso   1.00
S596   S     0.94511   0.11490   0.16955   0.00000  Uiso   1.00
S597   S     0.56537   0.37265   0.85766   0.00000  Uiso   1.00
S598   S     0.61572   0.05806   0.16602   0.00000  Uiso   1.00
S599   S     0.87092   0.43191   0.86250   0.00000  Uiso   1.00
S600   S     0.56387   0.12969   0.85761   0.00000  Uiso   1.00
Zn601  Zn    0.54333   0.25000   0.20067   0.00000  Uiso   1.00
Zn602  Zn    0.70667  -0.00000   0.29933   0.00000  Uiso   1.00
Zn603  Zn    0.50000   0.20667   0.70067   0.00000  Uiso   1.00
Zn604  Zn    0.50000   0.29333   0.29933   0.00000  Uiso   1.00
Zn605  Zn    0.70667  -0.00000   0.70067   0.00000  Uiso   1.00
Zn606  Zn    0.79333  -0.00000   0.29933   0.00000  Uiso   1.00
Zn607  Zn    0.50000   0.29333   0.70067   0.00000  Uiso   1.00
Zn608  Zn    0.50000   0.20667   0.29933   0.00000  Uiso   1.00
Zn609  Zn    0.95667   0.25000   0.79933   0.00000  Uiso   1.00
Zn610  Zn    0.75000   0.45667   0.20067   0.00000  Uiso   1.00
Zn611  Zn    0.75000   0.04333   0.79933   0.00000  Uiso   1.00
Zn612  Zn    0.95667   0.25000   0.20067   0.00000  Uiso   1.00
Zn613  Zn    0.54333   0.25000   0.79933   0.00000  Uiso   1.00
Zn614  Zn    0.75000   0.04333   0.20067   0.00000  Uiso   1.00
Zn615  Zn    0.75000   0.45667   0.79933   0.00000  Uiso   1.00
Zn616  Zn    0.79333  -0.00000   0.70067   0.00000  Uiso   1.00
C617   C     0.00000   0.75000   0.02667   0.00000  Uiso   1.00
C618   C     0.00000   0.75000   0.58996   0.00000  Uiso   1.00
C619   C     0.25000   0.50000   0.41011   0.00000  Uiso   1.00
C620   C     0.25000   0.50000   0.58989   0.00000  Uiso   1.00
C621   C     0.25000   0.50000   0.91004   0.00000  Uiso   1.00
C622   C     0.25000   0.50000   0.08996   0.00000  Uiso   1.00
C623   C     0.00000   0.75000   0.91011   0.00000  Uiso   1.00
C624   C     0.00000   0.75000   0.08989   0.00000  Uiso   1.00
C625   C     0.07046   0.68027   0.25032   0.00000  Uiso   1.00
C626   C     0.42974   0.81974   0.74981   0.00000  Uiso   1.00
C627   C     0.17997   0.92986   0.24989   0.00000  Uiso   1.00
C628   C     0.00000   0.75000   0.97332   0.00000  Uiso   1.00
C629   C     0.31983   0.57017   0.74968   0.00000  Uiso   1.00
C630   C     0.42957   0.81976   0.25025   0.00000  Uiso   1.00
C631   C     0.07026   0.68026   0.74982   0.00000  Uiso   1.00
C632   C     0.32004   0.57012   0.24987   0.00000  Uiso   1.00
C633   C     0.18017   0.92983   0.74968   0.00000  Uiso   1.00
C634   C     0.07003   0.82013   0.74988   0.00000  Uiso   1.00
C635   C     0.43018   0.67983   0.24967   0.00000  Uiso   1.00
C636   C     0.17954   0.56972   0.75032   0.00000  Uiso   1.00
C637   C     0.32026   0.93026   0.24982   0.00000  Uiso   1.00
C638   C     0.42997   0.67987   0.74987   0.00000  Uiso   1.00
C639   C     0.25000   0.50000   0.02669   0.00000  Uiso   1.00
C640   C     0.06983   0.82016   0.24969   0.00000  Uiso   1.00
C641   C     0.32045   0.93027   0.75032   0.00000  Uiso   1.00
C642   C     0.17974   0.56974   0.24983   0.00000  Uiso   1.00
C643   C     0.09666   0.87625   0.20887   0.00000  Uiso   1.00
C644   C     0.40192   0.62507   0.79765   0.00000  Uiso   1.00
C645   C     0.37496   0.90155   0.20743   0.00000  Uiso   1.00
C646   C     0.12616   0.59956   0.80098   0.00000  Uiso   1.00
C647   C     0.40343   0.62367   0.20893   0.00000  Uiso   1.00
C648   C     0.09809   0.87493   0.79766   0.00000  Uiso   1.00
C649   C     0.12517   0.59861   0.20722   0.00000  Uiso   1.00
C650   C     0.25000   0.50000   0.97331   0.00000  Uiso   1.00
C651   C     0.37387   0.90046   0.80094   0.00000  Uiso   1.00
C652   C     0.09773   0.62605   0.79917   0.00000  Uiso   1.00
C653   C     0.39708   0.87067   0.20139   0.00000  Uiso   1.00
C654   C     0.37658   0.59585   0.79400   0.00000  Uiso   1.00
C655   C     0.12728   0.89890   0.20235   0.00000  Uiso   1.00
C656   C     0.40230   0.87398   0.79911   0.00000  Uiso   1.00
C657   C     0.10305   0.62950   0.20132   0.00000  Uiso   1.00
C658   C     0.12342   0.90415   0.79401   0.00000  Uiso   1.00
C659   C     0.37283   0.60097   0.20241   0.00000  Uiso   1.00
C660   C     0.34665   0.62624   0.70883   0.00000  Uiso   1.00
C661   C     0.25000   0.50000   0.52667   0.00000  Uiso   1.00
C662   C     0.15192   0.87506   0.29767   0.00000  Uiso   1.00
C663   C     0.12484   0.65140   0.70722   0.00000  Uiso   1.00
C664   C     0.37610   0.84949   0.30083   0.00000  Uiso   1.00
C665   C     0.15334   0.87376   0.70883   0.00000  Uiso   1.00
C666   C     0.34804   0.62496   0.29754   0.00000  Uiso   1.00
C667   C     0.37513   0.84857   0.70726   0.00000  Uiso   1.00
C668   C     0.12384   0.65044   0.30099   0.00000  Uiso   1.00
C669   C     0.34768   0.87598   0.29904   0.00000  Uiso   1.00
C670   C     0.14696   0.62050   0.70132   0.00000  Uiso   1.00
C671   C     0.12659   0.84583   0.29401   0.00000  Uiso   1.00
C672   C     0.25000   0.50000   0.47332   0.00000  Uiso   1.00
C673   C     0.37727   0.64891   0.70233   0.00000  Uiso   1.00
C674   C     0.15226   0.62394   0.29918   0.00000  Uiso   1.00
C675   C     0.35301   0.87947   0.70134   0.00000  Uiso   1.00
C676   C     0.37337   0.65419   0.29387   0.00000  Uiso   1.00
C677   C     0.12272   0.85110   0.70232   0.00000  Uiso   1.00
C678   C     0.15256   0.90098   0.25033   0.00000  Uiso   1.00
C679   C     0.34821   0.59787   0.75102   0.00000  Uiso   1.00
C680   C     0.40031   0.84683   0.25094   0.00000  Uiso   1.00
C681   C     0.09796   0.65192   0.75219   0.00000  Uiso   1.00
C682   C     0.34747   0.59899   0.25029   0.00000  Uiso   1.00
C683   C     0.00000   0.75000   0.52669   0.00000  Uiso   1.00
C684   C     0.15179   0.90214   0.75102   0.00000  Uiso   1.00
C685   C     0.09971   0.65319   0.25102   0.00000  Uiso   1.00
C686   C     0.40203   0.84807   0.75218   0.00000  Uiso   1.00
C687   C     0.15029   0.59681   0.75102   0.00000  Uiso   1.00
C688   C     0.34797   0.90193   0.25219   0.00000  Uiso   1.00
C689   C     0.40255   0.65099   0.75031   0.00000  Uiso   1.00
C690   C     0.09822   0.84786   0.25103   0.00000  Uiso   1.00
C691   C     0.34970   0.90319   0.75101   0.00000  Uiso   1.00
C692   C     0.15204   0.59807   0.25219   0.00000  Uiso   1.00
C693   C     0.09744   0.84902   0.75031   0.00000  Uiso   1.00
C694   C     0.00000   0.75000   0.47331   0.00000  Uiso   1.00
C695   C     0.40180   0.65212   0.25099   0.00000  Uiso   1.00
C696   C     0.00000   0.75000   0.41004   0.00000  Uiso   1.00
H697   H     0.03023   0.92975   0.12139   0.00000  Uiso   1.00
H698   H     0.37728   0.87721   0.06731   0.00000  Uiso   1.00
H699   H     0.43278   0.53706   0.82277   0.00000  Uiso   1.00
H700   H     0.11423   0.92136   0.04278   0.00000  Uiso   1.00
H701   H     0.46473   0.90653   0.91778   0.00000  Uiso   1.00
H702   H     0.08160   0.61978   0.04026   0.00000  Uiso   1.00
H703   H     0.06724   0.96296   0.82288   0.00000  Uiso   1.00
H704   H     0.38612   0.57816   0.04303   0.00000  Uiso   1.00
H705   H     0.28024   0.67964   0.62114   0.00000  Uiso   1.00
H706   H     0.18749   0.85927   0.44955   0.00000  Uiso   1.00
H707   H     0.17962   0.71495   0.61679   0.00000  Uiso   1.00
H708   H     0.43753   0.60939   0.94957   0.00000  Uiso   1.00
H709   H     0.34363   0.77497   0.39356   0.00000  Uiso   1.00
H710   H     0.21974   0.82033   0.62118   0.00000  Uiso   1.00
H711   H     0.31228   0.64090   0.44927   0.00000  Uiso   1.00
H712   H     0.32032   0.78498   0.61695   0.00000  Uiso   1.00
H713   H     0.15616   0.72496   0.39391   0.00000  Uiso   1.00
H714   H     0.28558   0.84351   0.41822   0.00000  Uiso   1.00
H715   H     0.16839   0.63022   0.54026   0.00000  Uiso   1.00
H716   H     0.18281   0.78704   0.32284   0.00000  Uiso   1.00
H717   H     0.36423   0.67137   0.54275   0.00000  Uiso   1.00
H718   H     0.21431   0.65626   0.41856   0.00000  Uiso   1.00
H719   H     0.42975   0.96549   0.11752   0.00000  Uiso   1.00
H720   H     0.33155   0.86971   0.54030   0.00000  Uiso   1.00
H721   H     0.31707   0.71295   0.32227   0.00000  Uiso   1.00
H722   H     0.13573   0.82865   0.54273   0.00000  Uiso   1.00
H723   H     0.09385   0.52503   0.89389   0.00000  Uiso   1.00
H724   H     0.46999   0.57022   0.12161   0.00000  Uiso   1.00
H725   H     0.06251   0.89068   0.94955   0.00000  Uiso   1.00
H726   H     0.07039   0.53505   0.11679   0.00000  Uiso   1.00
H727   H     0.40621   0.97502   0.89373   0.00000  Uiso   1.00
H728   H     0.03570   0.59369   0.91852   0.00000  Uiso   1.00
O729   O     0.00000   0.75000   0.25000   0.00000  Uiso   1.00
O730   O     0.00000   0.78035   0.61781   0.00000  Uiso   1.00
O731   O     0.38994   0.59498   0.07707   0.00000  Uiso   1.00
O732   O     0.30231   0.60947   0.61704   0.00000  Uiso   1.00
O733   O     0.27286   0.62884   0.70991   0.00000  Uiso   1.00
O734   O     0.30294   0.67830   0.64521   0.00000  Uiso   1.00
O735   O     0.21683   0.85400   0.34116   0.00000  Uiso   1.00
O736   O     0.19817   0.91522   0.36932   0.00000  Uiso   1.00
O737   O     0.16645   0.86221   0.42206   0.00000  Uiso   1.00
O738   O     0.10822   0.69473   0.61426   0.00000  Uiso   1.00
O739   O     0.12930   0.72445   0.70590   0.00000  Uiso   1.00
O740   O     0.17769   0.69247   0.64100   0.00000  Uiso   1.00
O741   O     0.21965   0.50000   0.38219   0.00000  Uiso   1.00
O742   O     0.41479   0.79812   0.36616   0.00000  Uiso   1.00
O743   O     0.37354   0.83770   0.42048   0.00000  Uiso   1.00
O744   O     0.34587   0.78675   0.35390   0.00000  Uiso   1.00
O745   O     0.19770   0.89052   0.61706   0.00000  Uiso   1.00
O746   O     0.22712   0.87113   0.70994   0.00000  Uiso   1.00
O747   O     0.19703   0.82168   0.64523   0.00000  Uiso   1.00
O748   O     0.28306   0.64599   0.34076   0.00000  Uiso   1.00
O749   O     0.30180   0.58484   0.36923   0.00000  Uiso   1.00
O750   O     0.33335   0.63799   0.42185   0.00000  Uiso   1.00
O751   O     0.39172   0.80519   0.61435   0.00000  Uiso   1.00
O752   O     0.28036   0.50000   0.61781   0.00000  Uiso   1.00
O753   O     0.37065   0.77552   0.70605   0.00000  Uiso   1.00
O754   O     0.32226   0.80748   0.64112   0.00000  Uiso   1.00
O755   O     0.08509   0.70172   0.36640   0.00000  Uiso   1.00
O756   O     0.12633   0.66212   0.42068   0.00000  Uiso   1.00
O757   O     0.15401   0.71315   0.35426   0.00000  Uiso   1.00
O758   O     0.33064   0.89955   0.40917   0.00000  Uiso   1.00
O759   O     0.28044   0.90020   0.33763   0.00000  Uiso   1.00
O760   O     0.29927   0.83863   0.38086   0.00000  Uiso   1.00
O761   O     0.20875   0.61454   0.63665   0.00000  Uiso   1.00
O762   O     0.15988   0.57123   0.61404   0.00000  Uiso   1.00
O763   O     0.25000   0.53035   0.88219   0.00000  Uiso   1.00
O764   O     0.15257   0.63615   0.57486   0.00000  Uiso   1.00
O765   O     0.10857   0.81639   0.39995   0.00000  Uiso   1.00
O766   O     0.11145   0.77415   0.31646   0.00000  Uiso   1.00
O767   O     0.17217   0.79621   0.36068   0.00000  Uiso   1.00
O768   O     0.37664   0.71160   0.64030   0.00000  Uiso   1.00
O769   O     0.42486   0.66824   0.61471   0.00000  Uiso   1.00
O770   O     0.36029   0.65467   0.57689   0.00000  Uiso   1.00
O771   O     0.16918   0.60024   0.40929   0.00000  Uiso   1.00
O772   O     0.21945   0.59966   0.33789   0.00000  Uiso   1.00
O773   O     0.20058   0.66119   0.38125   0.00000  Uiso   1.00
O774   O     0.25000   0.96964   0.11781   0.00000  Uiso   1.00
O775   O     0.29119   0.88537   0.63671   0.00000  Uiso   1.00
O776   O     0.34003   0.92871   0.61403   0.00000  Uiso   1.00
O777   O     0.34737   0.86378   0.57491   0.00000  Uiso   1.00
O778   O     0.39124   0.68377   0.39977   0.00000  Uiso   1.00
O779   O     0.38843   0.72590   0.31612   0.00000  Uiso   1.00
O780   O     0.32767   0.70385   0.36019   0.00000  Uiso   1.00
O781   O     0.12326   0.78842   0.64027   0.00000  Uiso   1.00
O782   O     0.07511   0.83186   0.61470   0.00000  Uiso   1.00
O783   O     0.13971   0.84533   0.57689   0.00000  Uiso   1.00
O784   O     0.03036   0.75000   0.88219   0.00000  Uiso   1.00
O785   O     0.46965   0.75000   0.11781   0.00000  Uiso   1.00
O786   O     0.25000   0.96964   0.88219   0.00000  Uiso   1.00
O787   O     0.25000   0.53035   0.11781   0.00000  Uiso   1.00
O788   O     0.46965   0.75000   0.88219   0.00000  Uiso   1.00
O789   O     0.00000   0.75000   0.75000   0.00000  Uiso   1.00
O790   O     0.03036   0.75000   0.11781   0.00000  Uiso   1.00
O791   O     0.04268   0.67692   0.28474   0.00000  Uiso   1.00
O792   O     0.45733   0.82307   0.71526   0.00000  Uiso   1.00
O793   O     0.17693   0.95732   0.28474   0.00000  Uiso   1.00
O794   O     0.32308   0.54267   0.71526   0.00000  Uiso   1.00
O795   O     0.45733   0.82307   0.28474   0.00000  Uiso   1.00
O796   O     0.04268   0.67692   0.71526   0.00000  Uiso   1.00
O797   O     0.32308   0.54267   0.28474   0.00000  Uiso   1.00
O798   O     0.17693   0.95732   0.71526   0.00000  Uiso   1.00
O799   O     0.04268   0.82307   0.71526   0.00000  Uiso   1.00
O800   O     0.25000   0.50000   0.25000   0.00000  Uiso   1.00
O801   O     0.45733   0.67692   0.28474   0.00000  Uiso   1.00
O802   O     0.17693   0.54267   0.71526   0.00000  Uiso   1.00
O803   O     0.32308   0.95732   0.28474   0.00000  Uiso   1.00
O804   O     0.45733   0.67692   0.71526   0.00000  Uiso   1.00
O805   O     0.04268   0.82307   0.28474   0.00000  Uiso   1.00
O806   O     0.32308   0.95732   0.71526   0.00000  Uiso   1.00
O807   O     0.17693   0.54267   0.28474   0.00000  Uiso   1.00
O808   O     0.29268   0.92692   0.78474   0.00000  Uiso   1.00
O809   O     0.20733   0.57307   0.21526   0.00000  Uiso   1.00
O810   O     0.42693   0.70732   0.78474   0.00000  Uiso   1.00
O811   O     0.25000   0.50000   0.75000   0.00000  Uiso   1.00
O812   O     0.07308   0.79267   0.21526   0.00000  Uiso   1.00
O813   O     0.20733   0.57307   0.78474   0.00000  Uiso   1.00
O814   O     0.29268   0.92692   0.21526   0.00000  Uiso   1.00
O815   O     0.07308   0.79267   0.78474   0.00000  Uiso   1.00
O816   O     0.42693   0.70732   0.21526   0.00000  Uiso   1.00
O817   O     0.29268   0.57307   0.21526   0.00000  Uiso   1.00
O818   O     0.20733   0.92692   0.78474   0.00000  Uiso   1.00
O819   O     0.42693   0.79267   0.21526   0.00000  Uiso   1.00
O820   O     0.07308   0.70732   0.78474   0.00000  Uiso   1.00
O821   O     0.20733   0.92692   0.21526   0.00000  Uiso   1.00
O822   O     0.00000   0.78035   0.38219   0.00000  Uiso   1.00
O823   O     0.29268   0.57307   0.78474   0.00000  Uiso   1.00
O824   O     0.07308   0.70732   0.21526   0.00000  Uiso   1.00
O825   O     0.42693   0.79267   0.78474   0.00000  Uiso   1.00
O826   O     0.05222   0.85953   0.11719   0.00000  Uiso   1.00
O827   O     0.02289   0.87895   0.21015   0.00000  Uiso   1.00
O828   O     0.05298   0.92837   0.14535   0.00000  Uiso   1.00
O829   O     0.46684   0.60402   0.84108   0.00000  Uiso   1.00
O830   O     0.44817   0.66523   0.86929   0.00000  Uiso   1.00
O831   O     0.41650   0.61220   0.92203   0.00000  Uiso   1.00
O832   O     0.35812   0.94579   0.11570   0.00000  Uiso   1.00
O833   O     0.00000   0.71964   0.61781   0.00000  Uiso   1.00
O834   O     0.38017   0.97450   0.20758   0.00000  Uiso   1.00
O835   O     0.42775   0.94269   0.14091   0.00000  Uiso   1.00
O836   O     0.16492   0.54831   0.86644   0.00000  Uiso   1.00
O837   O     0.12363   0.58789   0.92068   0.00000  Uiso   1.00
O838   O     0.09601   0.53683   0.85424   0.00000  Uiso   1.00
O839   O     0.44781   0.64036   0.11715   0.00000  Uiso   1.00
O840   O     0.47723   0.62118   0.21016   0.00000  Uiso   1.00
O841   O     0.44727   0.57157   0.14563   0.00000  Uiso   1.00
O842   O     0.03319   0.89601   0.84114   0.00000  Uiso   1.00
O843   O     0.05182   0.83478   0.86929   0.00000  Uiso   1.00
O844   O     0.28036   0.50000   0.38219   0.00000  Uiso   1.00
O845   O     0.08355   0.88777   0.92206   0.00000  Uiso   1.00
O846   O     0.14178   0.55528   0.11426   0.00000  Uiso   1.00
O847   O     0.12070   0.52555   0.20589   0.00000  Uiso   1.00
O848   O     0.07232   0.55754   0.14099   0.00000  Uiso   1.00
O849   O     0.33510   0.95169   0.86643   0.00000  Uiso   1.00
O850   O     0.37648   0.91219   0.92062   0.00000  Uiso   1.00
O851   O     0.40399   0.96324   0.85408   0.00000  Uiso   1.00
O852   O     0.08075   0.64975   0.90925   0.00000  Uiso   1.00
O853   O     0.03050   0.65028   0.83779   0.00000  Uiso   1.00
O854   O     0.04941   0.58877   0.88119   0.00000  Uiso   1.00
O855   O     0.21965   0.50000   0.61781   0.00000  Uiso   1.00
O856   O     0.45893   0.86613   0.13648   0.00000  Uiso   1.00
O857   O     0.41150   0.82150   0.11399   0.00000  Uiso   1.00
O858   O     0.40240   0.88625   0.07481   0.00000  Uiso   1.00
O859   O     0.35859   0.56645   0.89999   0.00000  Uiso   1.00
O860   O     0.36141   0.52419   0.81653   0.00000  Uiso   1.00
O861   O     0.42216   0.54623   0.86063   0.00000  Uiso   1.00
O862   O     0.12679   0.96158   0.14029   0.00000  Uiso   1.00
O863   O     0.17488   0.91808   0.11469   0.00000  Uiso   1.00
O864   O     0.11025   0.90468   0.07694   0.00000  Uiso   1.00
O865   O     0.41942   0.85050   0.90928   0.00000  Uiso   1.00
O866   O     0.00000   0.71964   0.38219   0.00000  Uiso   1.00
O867   O     0.46956   0.84977   0.83763   0.00000  Uiso   1.00
O868   O     0.45076   0.91139   0.88069   0.00000  Uiso   1.00
O869   O     0.04125   0.63546   0.13664   0.00000  Uiso   1.00
O870   O     0.09013   0.67877   0.11404   0.00000  Uiso   1.00
O871   O     0.09744   0.61385   0.07486   0.00000  Uiso   1.00
O872   O     0.14145   0.93355   0.89999   0.00000  Uiso   1.00
O873   O     0.13860   0.97582   0.81655   0.00000  Uiso   1.00
O874   O     0.07787   0.95377   0.86071   0.00000  Uiso   1.00
O875   O     0.37374   0.53814   0.14080   0.00000  Uiso   1.00
O876   O     0.32538   0.58125   0.11480   0.00000  Uiso   1.00
S877   S     0.05501   0.88506   0.16947   0.00000  Uiso   1.00
S878   S     0.41839   0.86042   0.13109   0.00000  Uiso   1.00
S879   S     0.37883   0.55735   0.84348   0.00000  Uiso   1.00
S880   S     0.13555   0.92194   0.13296   0.00000  Uiso   1.00
S881   S     0.43624   0.87043   0.85744   0.00000  Uiso   1.00
S882   S     0.08193   0.64008   0.13100   0.00000  Uiso   1.00
S883   S     0.12119   0.94265   0.84350   0.00000  Uiso   1.00
S884   S     0.36473   0.57771   0.13317   0.00000  Uiso   1.00
S885   S     0.30502   0.63500   0.66933   0.00000  Uiso   1.00
S886   S     0.18463   0.87734   0.35767   0.00000  Uiso   1.00
S887   S     0.13429   0.69195   0.66603   0.00000  Uiso   1.00
S888   S     0.43465   0.62735   0.85763   0.00000  Uiso   1.00
S889   S     0.37902   0.81799   0.36232   0.00000  Uiso   1.00
S890   S     0.19497   0.86498   0.66935   0.00000  Uiso   1.00
S891   S     0.31527   0.62272   0.35746   0.00000  Uiso   1.00
S892   S     0.36566   0.80801   0.66612   0.00000  Uiso   1.00
S893   S     0.12088   0.68187   0.36256   0.00000  Uiso   1.00
S894   S     0.31378   0.87956   0.35743   0.00000  Uiso   1.00
S895   S     0.16808   0.60992   0.63100   0.00000  Uiso   1.00
S896   S     0.12884   0.80732   0.34346   0.00000  Uiso   1.00
S897   S     0.38551   0.67198   0.63295   0.00000  Uiso   1.00
S898   S     0.18609   0.62028   0.35766   0.00000  Uiso   1.00
S899   S     0.38456   0.94230   0.16684   0.00000  Uiso   1.00
S900   S     0.33187   0.89002   0.63103   0.00000  Uiso   1.00
S901   S     0.37103   0.69276   0.34318   0.00000  Uiso   1.00
S902   S     0.11445   0.82805   0.63294   0.00000  Uiso   1.00
S903   S     0.12912   0.56813   0.86256   0.00000  Uiso   1.00
S904   S     0.44511   0.61490   0.16955   0.00000  Uiso   1.00
S905   S     0.06537   0.87265   0.85766   0.00000  Uiso   1.00
S906   S     0.11572   0.55806   0.16602   0.00000  Uiso   1.00
S907   S     0.37092   0.93191   0.86250   0.00000  Uiso   1.00
S908   S     0.06387   0.62969   0.85761   0.00000  Uiso   1.00
Zn909  Zn    0.04333   0.75000   0.20067   0.00000  Uiso   1.00
Zn910  Zn    0.20667   0.50000   0.29933   0.00000  Uiso   1.00
Zn911  Zn    0.00000   0.70667   0.70067   0.00000  Uiso   1.00
Zn912  Zn    0.00000   0.79333   0.29933   0.00000  Uiso   1.00
Zn913  Zn    0.20667   0.50000   0.70067   0.00000  Uiso   1.00
Zn914  Zn    0.29333   0.50000   0.29933   0.00000  Uiso   1.00
Zn915  Zn    0.00000   0.79333   0.70067   0.00000  Uiso   1.00
Zn916  Zn    0.00000   0.70667   0.29933   0.00000  Uiso   1.00
Zn917  Zn    0.45667   0.75000   0.79933   0.00000  Uiso   1.00
Zn918  Zn    0.25000   0.95667   0.20067   0.00000  Uiso   1.00
Zn919  Zn    0.25000   0.54333   0.79933   0.00000  Uiso   1.00
Zn920  Zn    0.45667   0.75000   0.20067   0.00000  Uiso   1.00
Zn921  Zn    0.04333   0.75000   0.79933   0.00000  Uiso   1.00
Zn922  Zn    0.25000   0.54333   0.20067   0.00000  Uiso   1.00
Zn923  Zn    0.25000   0.95667   0.79933   0.00000  Uiso   1.00
Zn924  Zn    0.29333   0.50000   0.70067   0.00000  Uiso   1.00
C925   C     0.50000   0.75000   0.02667   0.00000  Uiso   1.00
C926   C     0.50000   0.75000   0.58996   0.00000  Uiso   1.00
C927   C     0.75000   0.50000   0.41011   0.00000  Uiso   1.00
C928   C     0.75000   0.50000   0.58989   0.00000  Uiso   1.00
C929   C     0.75000   0.50000   0.91004   0.00000  Uiso   1.00
C930   C     0.75000   0.50000   0.08996   0.00000  Uiso   1.00
C931   C     0.50000   0.75000   0.91011   0.00000  Uiso   1.00
C932   C     0.50000   0.75000   0.08989   0.00000  Uiso   1.00
C933   C     0.57046   0.68027   0.25032   0.00000  Uiso   1.00
C934   C     0.92974   0.81974   0.74981   0.00000  Uiso   1.00
C935   C     0.67997   0.92986   0.24989   0.00000  Uiso   1.00
C936   C     0.50000   0.75000   0.97332   0.00000  Uiso   1.00
C937   C     0.81983   0.57017   0.74968   0.00000  Uiso   1.00
C938   C     0.92957   0.81976   0.25025   0.00000  Uiso   1.00
C939   C     0.57026   0.68026   0.74982   0.00000  Uiso   1.00
C940   C     0.82004   0.57012   0.24987   0.00000  Uiso   1.00
C941   C     0.68017   0.92983   0.74968   0.00000  Uiso   1.00
C942   C     0.57003   0.82013   0.74988   0.00000  Uiso   1.00
C943   C     0.93018   0.67983   0.24967   0.00000  Uiso   1.00
C944   C     0.67954   0.56972   0.75032   0.00000  Uiso   1.00
C945   C     0.82026   0.93026   0.24982   0.00000  Uiso   1.00
C946   C     0.92997   0.67987   0.74987   0.00000  Uiso   1.00
C947   C     0.75000   0.50000   0.02669   0.00000  Uiso   1.00
C948   C     0.56983   0.82016   0.24969   0.00000  Uiso   1.00
C949   C     0.82045   0.93027   0.75032   0.00000  Uiso   1.00
C950   C     0.67974   0.56974   0.24983   0.00000  Uiso   1.00
C951   C     0.59666   0.87625   0.20887   0.00000  Uiso   1.00
C952   C     0.90192   0.62507   0.79765   0.00000  Uiso   1.00
C953   C     0.87496   0.90155   0.20743   0.00000  Uiso   1.00
C954   C     0.62616   0.59956   0.80098   0.00000  Uiso   1.00
C955   C     0.90343   0.62367   0.20893   0.00000  Uiso   1.00
C956   C     0.59809   0.87493   0.79766   0.00000  Uiso   1.00
C957   C     0.62517   0.59861   0.20722   0.00000  Uiso   1.00
C958   C     0.75000   0.50000   0.97331   0.00000  Uiso   1.00
C959   C     0.87387   0.90046   0.80094   0.00000  Uiso   1.00
C960   C     0.59773   0.62605   0.79917   0.00000  Uiso   1.00
C961   C     0.89708   0.87067   0.20139   0.00000  Uiso   1.00
C962   C     0.87658   0.59585   0.79400   0.00000  Uiso   1.00
C963   C     0.62728   0.89890   0.20235   0.00000  Uiso   1.00
C964   C     0.90230   0.87398   0.79911   0.00000  Uiso   1.00
C965   C     0.60305   0.62950   0.20132   0.00000  Uiso   1.00
C966   C     0.62342   0.90415   0.79401   0.00000  Uiso   1.00
C967   C     0.87283   0.60097   0.20241   0.00000  Uiso   1.00
C968   C     0.84665   0.62624   0.70883   0.00000  Uiso   1.00
C969   C     0.75000   0.50000   0.52667   0.00000  Uiso   1.00
C970   C     0.65192   0.87506   0.29767   0.00000  Uiso   1.00
C971   C     0.62484   0.65140   0.70722   0.00000  Uiso   1.00
C972   C     0.87610   0.84949   0.30083   0.00000  Uiso   1.00
C973   C     0.65334   0.87376   0.70883   0.00000  Uiso   1.00
C974   C     0.84804   0.62496   0.29754   0.00000  Uiso   1.00
C975   C     0.87513   0.84857   0.70726   0.00000  Uiso   1.00
C976   C     0.62384   0.65044   0.30099   0.00000  Uiso   1.00
C977   C     0.84768   0.87598   0.29904   0.00000  Uiso   1.00
C978   C     0.64696   0.62050   0.70132   0.00000  Uiso   1.00
C979   C     0.62659   0.84583   0.29401   0.00000  Uiso   1.00
C980   C     0.75000   0.50000   0.47332   0.00000  Uiso   1.00
C981   C     0.87727   0.64891   0.70233   0.00000  Uiso   1.00
C982   C     0.65226   0.62394   0.29918   0.00000  Uiso   1.00
C983   C     0.85301   0.87947   0.70134   0.00000  Uiso   1.00
C984   C     0.87337   0.65419   0.29387   0.00000  Uiso   1.00
C985   C     0.62272   0.85110   0.70232   0.00000  Uiso   1.00
C986   C     0.65256   0.90098   0.25033   0.00000  Uiso   1.00
C987   C     0.84821   0.59787   0.75102   0.00000  Uiso   1.00
C988   C     0.90031   0.84683   0.25094   0.00000  Uiso   1.00
C989   C     0.59796   0.65192   0.75219   0.00000  Uiso   1.00
C990   C     0.84747   0.59899   0.25029   0.00000  Uiso   1.00
C991   C     0.50000   0.75000   0.52669   0.00000  Uiso   1.00
C992   C     0.65179   0.90214   0.75102   0.00000  Uiso   1.00
C993   C     0.59971   0.65319   0.25102   0.00000  Uiso   1.00
C994   C     0.90203   0.84807   0.75218   0.00000  Uiso   1.00
C995   C     0.65029   0.59681   0.75102   0.00000  Uiso   1.00
C996   C     0.84797   0.90193   0.25219   0.00000  Uiso   1.00
C997   C     0.90255   0.65099   0.75031   0.00000  Uiso   1.00
C998   C     0.59822   0.84786   0.25103   0.00000  Uiso   1.00
C999   C     0.84970   0.90319   0.75101   0.00000  Uiso   1.00
C1000  C     0.65204   0.59807   0.25219   0.00000  Uiso   1.00
C1001  C     0.59744   0.84902   0.75031   0.00000  Uiso   1.00
C1002  C     0.50000   0.75000   0.47331   0.00000  Uiso   1.00
C1003  C     0.90180   0.65212   0.25099   0.00000  Uiso   1.00
C1004  C     0.50000   0.75000   0.41004   0.00000  Uiso   1.00
H1005  H     0.53023   0.92975   0.12139   0.00000  Uiso   1.00
H1006  H     0.87728   0.87721   0.06731   0.00000  Uiso   1.00
H1007  H     0.93278   0.53706   0.82277   0.00000  Uiso   1.00
H1008  H     0.61423   0.92136   0.04278   0.00000  Uiso   1.00
H1009  H     0.96473   0.90653   0.91778   0.00000  Uiso   1.00
H1010  H     0.58160   0.61978   0.04026   0.00000  Uiso   1.00
H1011  H     0.56724   0.96296   0.82288   0.00000  Uiso   1.00
H1012  H     0.88612   0.57816   0.04303   0.00000  Uiso   1.00
H1013  H     0.78024   0.67964   0.62114   0.00000  Uiso   1.00
H1014  H     0.68749   0.85927   0.44955   0.00000  Uiso   1.00
H1015  H     0.67962   0.71495   0.61679   0.00000  Uiso   1.00
H1016  H     0.93753   0.60939   0.94957   0.00000  Uiso   1.00
H1017  H     0.84363   0.77497   0.39356   0.00000  Uiso   1.00
H1018  H     0.71974   0.82033   0.62118   0.00000  Uiso   1.00
H1019  H     0.81228   0.64090   0.44927   0.00000  Uiso   1.00
H1020  H     0.82032   0.78498   0.61695   0.00000  Uiso   1.00
H1021  H     0.65616   0.72496   0.39391   0.00000  Uiso   1.00
H1022  H     0.78558   0.84351   0.41822   0.00000  Uiso   1.00
H1023  H     0.66839   0.63022   0.54026   0.00000  Uiso   1.00
H1024  H     0.68281   0.78704   0.32284   0.00000  Uiso   1.00
H1025  H     0.86423   0.67137   0.54275   0.00000  Uiso   1.00
H1026  H     0.71431   0.65626   0.41856   0.00000  Uiso   1.00
H1027  H     0.92975   0.96549   0.11752   0.00000  Uiso   1.00
H1028  H     0.83155   0.86971   0.54030   0.00000  Uiso   1.00
H1029  H     0.81707   0.71295   0.32227   0.00000  Uiso   1.00
H1030  H     0.63573   0.82865   0.54273   0.00000  Uiso   1.00
H1031  H     0.59385   0.52503   0.89389   0.00000  Uiso   1.00
H1032  H     0.96999   0.57022   0.12161   0.00000  Uiso   1.00
H1033  H     0.56251   0.89068   0.94955   0.00000  Uiso   1.00
H1034  H     0.57039   0.53505   0.11679   0.00000  Uiso   1.00
H1035  H     0.90621   0.97502   0.89373   0.00000  Uiso   1.00
H1036  H     0.53570   0.59369   0.91852   0.00000  Uiso   1.00
O1037  O     0.50000   0.75000   0.25000   0.00000  Uiso   1.00
O1038  O     0.50000   0.78035   0.61781   0.00000  Uiso   1.00
O1039  O     0.88994   0.59498   0.07707   0.00000  Uiso   1.00
O1040  O     0.80231   0.60947   0.61704   0.00000  Uiso   1.00
O1041  O     0.77286   0.62884   0.70991   0.00000  Uiso   1.00
O1042  O     0.80294   0.67830   0.64521   0.00000  Uiso   1.00
O1043  O     0.71683   0.85400   0.34116   0.00000  Uiso   1.00
O1044  O     0.69817   0.91522   0.36932   0.00000  Uiso   1.00
O1045  O     0.66645   0.86221   0.42206   0.00000  Uiso   1.00
O1046  O     0.60822   0.69473   0.61426   0.00000  Uiso   1.00
O1047  O     0.62930   0.72445   0.70590   0.00000  Uiso   1.00
O1048  O     0.67769   0.69247   0.64100   0.00000  Uiso   1.00
O1049  O     0.71965   0.50000   0.38219   0.00000  Uiso   1.00
O1050  O     0.91479   0.79812   0.36616   0.00000  Uiso   1.00
O1051  O     0.87354   0.83770   0.42048   0.00000  Uiso   1.00
O1052  O     0.84587   0.78675   0.35390   0.00000  Uiso   1.00
O1053  O     0.69770   0.89052   0.61706   0.00000  Uiso   1.00
O1054  O     0.72712   0.87113   0.70994   0.00000  Uiso   1.00
O1055  O     0.69703   0.82168   0.64523   0.00000  Uiso   1.00
O1056  O     0.78306   0.64599   0.34076   0.00000  Uiso   1.00
O1057  O     0.80180   0.58484   0.36923   0.00000  Uiso   1.00
O1058  O     0.83335   0.63799   0.42185   0.00000  Uiso   1.00
O1059  O     0.89172   0.80519   0.61435   0.00000  Uiso   1.00
O1060  O     0.78036   0.50000   0.61781   0.00000  Uiso   1.00
O1061  O     0.87065   0.77552   0.70605   0.00000  Uiso   1.00
O1062  O     0.82226   0.80748   0.64112   0.00000  Uiso   1.00
O1063  O     0.58509   0.70172   0.36640   0.00000  Uiso   1.00
O1064  O     0.62633   0.66212   0.42068   0.00000  Uiso   1.00
O1065  O     0.65401   0.71315   0.35426   0.00000  Uiso   1.00
O1066  O     0.83064   0.89955   0.40917   0.00000  Uiso   1.00
O1067  O     0.78044   0.90020   0.33763   0.00000  Uiso   1.00
O1068  O     0.79927   0.83863   0.38086   0.00000  Uiso   1.00
O1069  O     0.70875   0.61454   0.63665   0.00000  Uiso   1.00
O1070  O     0.65988   0.57123   0.61404   0.00000  Uiso   1.00
O1071  O     0.75000   0.53035   0.88219   0.00000  Uiso   1.00
O1072  O     0.65257   0.63615   0.57486   0.00000  Uiso   1.00
O1073  O     0.60857   0.81639   0.39995   0.00000  Uiso   1.00
O1074  O     0.61145   0.77415   0.31646   0.00000  Uiso   1.00
O1075  O     0.67217   0.79621   0.36068   0.00000  Uiso   1.00
O1076  O     0.87664   0.71160   0.64030   0.00000  Uiso   1.00
O1077  O     0.92486   0.66824   0.61471   0.00000  Uiso   1.00
O1078  O     0.86029   0.65467   0.57689   0.00000  Uiso   1.00
O1079  O     0.66918   0.60024   0.40929   0.00000  Uiso   1.00
O1080  O     0.71945   0.59966   0.33789   0.00000  Uiso   1.00
O1081  O     0.70058   0.66119   0.38125   0.00000  Uiso   1.00
O1082  O     0.75000   0.96964   0.11781   0.00000  Uiso   1.00
O1083  O     0.79119   0.88537   0.63671   0.00000  Uiso   1.00
O1084  O     0.84003   0.92871   0.61403   0.00000  Uiso   1.00
O1085  O     0.84737   0.86378   0.57491   0.00000  Uiso   1.00
O1086  O     0.89124   0.68377   0.39977   0.00000  Uiso   1.00
O1087  O     0.88843   0.72590   0.31612   0.00000  Uiso   1.00
O1088  O     0.82767   0.70385   0.36019   0.00000  Uiso   1.00
O1089  O     0.62326   0.78842   0.64027   0.00000  Uiso   1.00
O1090  O     0.57511   0.83186   0.61470   0.00000  Uiso   1.00
O1091  O     0.63971   0.84533   0.57689   0.00000  Uiso   1.00
O1092  O     0.53036   0.75000   0.88219   0.00000  Uiso   1.00
O1093  O     0.96965   0.75000   0.11781   0.00000  Uiso   1.00
O1094  O     0.75000   0.96964   0.88219   0.00000  Uiso   1.00
O1095  O     0.75000   0.53035   0.11781   0.00000  Uiso   1.00
O1096  O     0.96965   0.75000   0.88219   0.00000  Uiso   1.00
O1097  O     0.50000   0.75000   0.75000   0.00000  Uiso   1.00
O1098  O     0.53036   0.75000   0.11781   0.00000  Uiso   1.00
O1099  O     0.54268   0.67692   0.28474   0.00000  Uiso   1.00
O1100  O     0.95733   0.82307   0.71526   0.00000  Uiso   1.00
O1101  O     0.67693   0.95732   0.28474   0.00000  Uiso   1.00
O1102  O     0.82308   0.54267   0.71526   0.00000  Uiso   1.00
O1103  O     0.95733   0.82307   0.28474   0.00000  Uiso   1.00
O1104  O     0.54268   0.67692   0.71526   0.00000  Uiso   1.00
O1105  O     0.82308   0.54267   0.28474   0.00000  Uiso   1.00
O1106  O     0.67693   0.95732   0.71526   0.00000  Uiso   1.00
O1107  O     0.54268   0.82307   0.71526   0.00000  Uiso   1.00
O1108  O     0.75000   0.50000   0.25000   0.00000  Uiso   1.00
O1109  O     0.95733   0.67692   0.28474   0.00000  Uiso   1.00
O1110  O     0.67693   0.54267   0.71526   0.00000  Uiso   1.00
O1111  O     0.82308   0.95732   0.28474   0.00000  Uiso   1.00
O1112  O     0.95733   0.67692   0.71526   0.00000  Uiso   1.00
O1113  O     0.54268   0.82307   0.28474   0.00000  Uiso   1.00
O1114  O     0.82308   0.95732   0.71526   0.00000  Uiso   1.00
O1115  O     0.67693   0.54267   0.28474   0.00000  Uiso   1.00
O1116  O     0.79268   0.92692   0.78474   0.00000  Uiso   1.00
O1117  O     0.70733   0.57307   0.21526   0.00000  Uiso   1.00
O1118  O     0.92693   0.70732   0.78474   0.00000  Uiso   1.00
O1119  O     0.75000   0.50000   0.75000   0.00000  Uiso   1.00
O1120  O     0.57308   0.79267   0.21526   0.00000  Uiso   1.00
O1121  O     0.70733   0.57307   0.78474   0.00000  Uiso   1.00
O1122  O     0.79268   0.92692   0.21526   0.00000  Uiso   1.00
O1123  O     0.57308   0.79267   0.78474   0.00000  Uiso   1.00
O1124  O     0.92693   0.70732   0.21526   0.00000  Uiso   1.00
O1125  O     0.79268   0.57307   0.21526   0.00000  Uiso   1.00
O1126  O     0.70733   0.92692   0.78474   0.00000  Uiso   1.00
O1127  O     0.92693   0.79267   0.21526   0.00000  Uiso   1.00
O1128  O     0.57308   0.70732   0.78474   0.00000  Uiso   1.00
O1129  O     0.70733   0.92692   0.21526   0.00000  Uiso   1.00
O1130  O     0.50000   0.78035   0.38219   0.00000  Uiso   1.00
O1131  O     0.79268   0.57307   0.78474   0.00000  Uiso   1.00
O1132  O     0.57308   0.70732   0.21526   0.00000  Uiso   1.00
O1133  O     0.92693   0.79267   0.78474   0.00000  Uiso   1.00
O1134  O     0.55222   0.85953   0.11719   0.00000  Uiso   1.00
O1135  O     0.52289   0.87895   0.21015   0.00000  Uiso   1.00
O1136  O     0.55298   0.92837   0.14535   0.00000  Uiso   1.00
O1137  O     0.96684   0.60402   0.84108   0.00000  Uiso   1.00
O1138  O     0.94817   0.66523   0.86929   0.00000  Uiso   1.00
O1139  O     0.91650   0.61220   0.92203   0.00000  Uiso   1.00
O1140  O     0.85812   0.94579   0.11570   0.00000  Uiso   1.00
O1141  O     0.50000   0.71964   0.61781   0.00000  Uiso   1.00
O1142  O     0.88017   0.97450   0.20758   0.00000  Uiso   1.00
O1143  O     0.92775   0.94269   0.14091   0.00000  Uiso   1.00
O1144  O     0.66492   0.54831   0.86644   0.00000  Uiso   1.00
O1145  O     0.62363   0.58789   0.92068   0.00000  Uiso   1.00
O1146  O     0.59601   0.53683   0.85424   0.00000  Uiso   1.00
O1147  O     0.94781   0.64036   0.11715   0.00000  Uiso   1.00
O1148  O     0.97723   0.62118   0.21016   0.00000  Uiso   1.00
O1149  O     0.94727   0.57157   0.14563   0.00000  Uiso   1.00
O1150  O     0.53319   0.89601   0.84114   0.00000  Uiso   1.00
O1151  O     0.55182   0.83478   0.86929   0.00000  Uiso   1.00
O1152  O     0.78036   0.50000   0.38219   0.00000  Uiso   1.00
O1153  O     0.58355   0.88777   0.92206   0.00000  Uiso   1.00
O1154  O     0.64178   0.55528   0.11426   0.00000  Uiso   1.00
O1155  O     0.62070   0.52555   0.20589   0.00000  Uiso   1.00
O1156  O     0.57232   0.55754   0.14099   0.00000  Uiso   1.00
O1157  O     0.83510   0.95169   0.86643   0.00000  Uiso   1.00
O1158  O     0.87648   0.91219   0.92062   0.00000  Uiso   1.00
O1159  O     0.90399   0.96324   0.85408   0.00000  Uiso   1.00
O1160  O     0.58075   0.64975   0.90925   0.00000  Uiso   1.00
O1161  O     0.53050   0.65028   0.83779   0.00000  Uiso   1.00
O1162  O     0.54941   0.58877   0.88119   0.00000  Uiso   1.00
O1163  O     0.71965   0.50000   0.61781   0.00000  Uiso   1.00
O1164  O     0.95893   0.86613   0.13648   0.00000  Uiso   1.00
O1165  O     0.91150   0.82150   0.11399   0.00000  Uiso   1.00
O1166  O     0.90240   0.88625   0.07481   0.00000  Uiso   1.00
O1167  O     0.85859   0.56645   0.89999   0.00000  Uiso   1.00
O1168  O     0.86141   0.52419   0.81653   0.00000  Uiso   1.00
O1169  O     0.92216   0.54623   0.86063   0.00000  Uiso   1.00
O1170  O     0.62679   0.96158   0.14029   0.00000  Uiso   1.00
O1171  O     0.67488   0.91808   0.11469   0.00000  Uiso   1.00
O1172  O     0.61025   0.90468   0.07694   0.00000  Uiso   1.00
O1173  O     0.91942   0.85050   0.90928   0.00000  Uiso   1.00
O1174  O     0.50000   0.71964   0.38219   0.00000  Uiso   1.00
O1175  O     0.96956   0.84977   0.83763   0.00000  Uiso   1.00
O1176  O     0.95076   0.91139   0.88069   0.00000  Uiso   1.00
O1177  O     0.54125   0.63546   0.13664   0.00000  Uiso   1.00
O1178  O     0.59013   0.67877   0.11404   0.00000  Uiso   1.00
O1179  O     0.59744   0.61385   0.07486   0.00000  Uiso   1.00
O1180  O     0.64145   0.93355   0.89999   0.00000  Uiso   1.00
O1181  O     0.63860   0.97582   0.81655   0.00000  Uiso   1.00
O1182  O     0.57787   0.95377   0.86071   0.00000  Uiso   1.00
O1183  O     0.87374   0.53814   0.14080   0.00000  Uiso   1.00
O1184  O     0.82538   0.58125   0.11480   0.00000  Uiso   1.00
S1185  S     0.55501   0.88506   0.16947   0.00000  Uiso   1.00
S1186  S     0.91839   0.86042   0.13109   0.00000  Uiso   1.00
S1187  S     0.87883   0.55735   0.84348   0.00000  Uiso   1.00
S1188  S     0.63555   0.92194   0.13296   0.00000  Uiso   1.00
S1189  S     0.93624   0.87043   0.85744   0.00000  Uiso   1.00
S1190  S     0.58193   0.64008   0.13100   0.00000  Uiso   1.00
S1191  S     0.62119   0.94265   0.84350   0.00000  Uiso   1.00
S1192  S     0.86473   0.57771   0.13317   0.00000  Uiso   1.00
S1193  S     0.80502   0.63500   0.66933   0.00000  Uiso   1.00
S1194  S     0.68463   0.87734   0.35767   0.00000  Uiso   1.00
S1195  S     0.63429   0.69195   0.66603   0.00000  Uiso   1.00
S1196  S     0.93465   0.62735   0.85763   0.00000  Uiso   1.00
S1197  S     0.87902   0.81799   0.36232   0.00000  Uiso   1.00
S1198  S     0.69497   0.86498   0.66935   0.00000  Uiso   1.00
S1199  S     0.81527   0.62272   0.35746   0.00000  Uiso   1.00
S1200  S     0.86566   0.80801   0.66612   0.00000  Uiso   1.00
S1201  S     0.62088   0.68187   0.36256   0.00000  Uiso   1.00
S1202  S     0.81378   0.87956   0.35743   0.00000  Uiso   1.00
S1203  S     0.66808   0.60992   0.63100   0.00000  Uiso   1.00
S1204  S     0.62884   0.80732   0.34346   0.00000  Uiso   1.00
S1205  S     0.88551   0.67198   0.63295   0.00000  Uiso   1.00
S1206  S     0.68609   0.62028   0.35766   0.00000  Uiso   1.00
S1207  S     0.88456   0.94230   0.16684   0.00000  Uiso   1.00
S1208  S     0.83187   0.89002   0.63103   0.00000  Uiso   1.00
S1209  S     0.87103   0.69276   0.34318   0.00000  Uiso   1.00
S1210  S     0.61445   0.82805   0.63294   0.00000  Uiso   1.00
S1211  S     0.62912   0.56813   0.86256   0.00000  Uiso   1.00
S1212  S     0.94511   0.61490   0.16955   0.00000  Uiso   1.00
S1213  S     0.56537   0.87265   0.85766   0.00000  Uiso   1.00
S1214  S     0.61572   0.55806   0.16602   0.00000  Uiso   1.00
S1215  S     0.87092   0.93191   0.86250   0.00000  Uiso   1.00
S1216  S     0.56387   0.62969   0.85761   0.00000  Uiso   1.00
Zn1217 Zn    0.54333   0.75000   0.20067   0.00000  Uiso   1.00
Zn1218 Zn    0.70667   0.50000   0.29933   0.00000  Uiso   1.00
Zn1219 Zn    0.50000   0.70667   0.70067   0.00000  Uiso   1.00
Zn1220 Zn    0.50000   0.79333   0.29933   0.00000  Uiso   1.00
Zn1221 Zn    0.70667   0.50000   0.70067   0.00000  Uiso   1.00
Zn1222 Zn    0.79333   0.50000   0.29933   0.00000  Uiso   1.00
Zn1223 Zn    0.50000   0.79333   0.70067   0.00000  Uiso   1.00
Zn1224 Zn    0.50000   0.70667   0.29933   0.00000  Uiso   1.00
Zn1225 Zn    0.95667   0.75000   0.79933   0.00000  Uiso   1.00
Zn1226 Zn    0.75000   0.95667   0.20067   0.00000  Uiso   1.00
Zn1227 Zn    0.75000   0.54333   0.79933   0.00000  Uiso   1.00
Zn1228 Zn    0.95667   0.75000   0.20067   0.00000  Uiso   1.00
Zn1229 Zn    0.54333   0.75000   0.79933   0.00000  Uiso   1.00
Zn1230 Zn    0.75000   0.54333   0.20067   0.00000  Uiso   1.00
Zn1231 Zn    0.75000   0.95667   0.79933   0.00000  Uiso   1.00
Zn1232 Zn    0.79333   0.50000   0.70067   0.00000  Uiso   1.00
loop_
_geom_bond_atom_site_label_1
_geom_bond_atom_site_label_2
_geom_bond_distance
_geom_bond_site_symmetry_2
_ccdc_geom_bond_type
C1     C8      1.414   .     S
C1     C12     1.194   1_554 S
C2     O217    1.278   .     A
C2     C67     1.416   .     S
C2     O114    1.278   .     S
C3     O228    1.273   .     A
C3     C56     1.414   .     S
C3     O125    1.273   .     A
C4     O239    1.273   .     A
C4     C45     1.414   .     S
C4     O136    1.273   .     A
C5     O786    1.278   1_545 A
C5     C34     1.416   .     S
C5     O147    1.278   .     S
C6     O774    1.278   1_545 A
C6     C23     1.416   .     S
C6     O171    1.278   .     S
C7     O168    1.273   .     A
C7     C12     1.414   .     S
C7     O480    1.273   1_455 S
C8     O477    1.273   1_455 A
C8     O174    1.273   .     S
C9     O175    1.281   .     A
C9     C69     1.461   .     S
C9     O208    1.270   .     A
C10    O209    1.269   .     A
C10    C70     1.453   .     S
C10    O176    1.277   .     A
C11    C62     1.460   .     S
C11    O177    1.280   .     A
C11    O205    1.270   .     A
C12    C1      1.194   1_556 S
C13    C63     1.454   .     S
C13    O178    1.276   .     A
C13    O207    1.270   .     A
C14    C64     1.461   .     S
C14    O203    1.270   .     A
C14    O179    1.281   .     A
C15    C65     1.453   .     S
C15    O204    1.269   .     A
C15    O180    1.277   .     A
C16    C66     1.460   .     S
C16    O201    1.270   .     A
C16    O181    1.280   .     A
C17    O182    1.276   .     A
C17    C68     1.454   .     S
C17    O202    1.270   .     A
C18    O183    1.270   .     A
C18    C77     1.460   .     S
C18    O199    1.280   .     A
C19    O200    1.276   .     A
C19    C79     1.454   .     S
C19    O185    1.270   .     A
C20    C71     1.461   .     S
C20    O186    1.270   .     A
C20    O197    1.281   .     A
C21    C72     1.453   .     S
C21    O198    1.277   .     A
C21    O187    1.269   .     A
C22    O188    1.270   .     A
C22    O194    1.280   .     A
C22    C73     1.460   .     S
C23    C34     1.194   1_554 S
C24    O196    1.276   .     A
C24    O189    1.270   .     A
C24    C74     1.454   .     S
C25    O190    1.270   .     A
C25    O192    1.280   .     A
C25    C75     1.461   .     S
C26    O191    1.269   .     A
C26    O193    1.277   .     A
C26    C76     1.453   .     S
C27    S261    1.789   .     S
C27    C74     1.408   .     A
C27    C39     1.403   .     A
C28    C73     1.425   .     A
C28    S272    1.800   .     S
C28    C38     1.421   .     A
C29    C37     1.400   .     A
C29    C72     1.406   .     A
C29    S283    1.787   .     S
C30    C71     1.428   .     A
C30    S287    1.801   .     S
C30    C36     1.424   .     A
C31    S288    1.789   .     S
C31    C43     1.403   .     A
C31    C79     1.408   .     A
C32    S289    1.800   .     S
C32    C77     1.425   .     A
C32    C42     1.421   .     A
C33    S290    1.786   .     S
C33    C41     1.400   .     A
C33    C76     1.406   .     A
C34    C23     1.194   1_556 S
C35    C40     1.424   .     A
C35    S291    1.801   .     S
C35    C75     1.428   .     A
C36    C65     1.418   .     A
C36    S292    1.805   .     S
C37    S262    1.795   .     S
C37    C64     1.418   .     A
C38    S263    1.799   .     S
C38    C63     1.416   .     A
C39    S264    1.794   .     S
C39    C62     1.419   .     A
C40    S265    1.805   .     S
C40    C70     1.417   .     A
C41    C69     1.418   .     A
C41    S266    1.795   .     S
C42    S267    1.799   .     S
C42    C68     1.416   .     A
C43    C66     1.419   .     A
C43    S268    1.794   .     S
C44    C57     1.403   .     A
C44    S269    1.789   .     S
C44    C63     1.408   .     A
C45    C56     1.194   .     T
C46    C62     1.425   .     A
C46    C55     1.421   .     A
C46    S270    1.800   .     S
C47    S271    1.786   .     S
C47    C54     1.400   .     A
C47    C65     1.406   .     A
C48    C53     1.424   .     A
C48    C64     1.428   .     A
C48    S273    1.801   .     S
C49    C68     1.408   .     A
C49    C61     1.403   .     A
C49    S274    1.789   .     S
C50    C66     1.425   .     A
C50    C60     1.421   .     A
C50    S275    1.800   .     S
C51    S276    1.786   .     S
C51    C70     1.406   .     A
C51    C59     1.400   .     A
C52    C58     1.424   .     A
C52    S277    1.801   .     S
C52    C69     1.428   .     A
C53    S278    1.805   .     S
C53    C72     1.417   .     A
C54    S279    1.795   .     S
C54    C71     1.418   .     A
C55    C74     1.416   .     A
C55    S280    1.799   .     S
C57    S281    1.794   .     S
C57    C73     1.419   .     A
C58    S282    1.806   .     S
C58    C76     1.418   .     A
C59    S284    1.795   .     S
C59    C75     1.418   .     A
C60    C79     1.416   .     A
C60    S285    1.799   .     S
C61    C77     1.419   .     A
C61    S286    1.794   .     S
C67    C78     1.194   .     T
C78    C80     1.416   .     S
C80    O206    1.278   .     S
C80    O250    1.278   .     S
H81    O212    0.991   .     S
H82    O242    0.991   .     S
H83    O245    0.991   .     S
H84    O248    0.991   .     S
H85    O252    0.991   .     S
H86    O255    0.991   .     S
H87    O258    0.991   .     S
H88    O115    0.991   .     S
H89    O118    0.991   .     S
H90    O121    0.991   .     S
H91    O124    0.991   .     S
H92    O215    0.991   .     S
H93    O128    0.991   .     S
H94    O131    0.991   .     S
H95    O134    0.991   .     S
H96    O138    0.991   .     S
H97    O141    0.991   .     S
H98    O144    0.991   .     S
H99    O148    0.991   .     S
H100   O151    0.991   .     S
H101   O154    0.991   .     S
H102   O157    0.991   .     S
H103   O219    0.991   .     S
H104   O161    0.991   .     S
H105   O164    0.991   .     S
H106   O167    0.991   .     S
H107   O222    0.991   .     S
H108   O225    0.991   .     S
H109   O229    0.991   .     S
H110   O232    0.991   .     S
H111   O235    0.991   .     S
H112   O238    0.991   .     S
O113   Zn296   1.938   .     S
O113   Zn300   1.938   .     S
O113   Zn293   1.931   .     S
O113   Zn612   1.931   1_455 S
O114   Zn299   1.914   .     S
O115   S268    1.682   .     S
O116   S269    1.503   .     D
O117   S269    1.503   .     D
O118   S269    1.682   .     S
O119   S270    1.502   .     D
O120   S270    1.500   .     D
O121   S270    1.681   .     S
O122   S271    1.503   .     D
O123   S271    1.502   .     D
O124   S271    1.683   .     S
O125   Zn294   1.914   .     S
O126   S273    1.500   .     D
O127   S273    1.503   .     D
O128   S273    1.680   .     S
O129   S274    1.503   .     D
O130   S274    1.503   .     D
O131   S274    1.682   .     S
O132   S275    1.502   .     D
O133   S275    1.500   .     D
O134   S275    1.681   .     S
O135   S276    1.503   .     D
O136   Zn308   1.914   .     S
O137   S276    1.502   .     D
O138   S276    1.683   .     S
O139   S277    1.500   .     D
O140   S277    1.503   .     D
O141   S277    1.680   .     S
O142   S278    1.503   .     D
O143   S278    1.502   .     D
O144   S278    1.679   .     S
O145   S279    1.502   .     D
O146   S279    1.502   .     D
O147   Zn303   1.914   .     S
O148   S279    1.682   .     S
O149   S280    1.503   .     D
O150   S280    1.502   .     D
O151   S280    1.680   .     S
O152   S281    1.501   .     D
O153   S281    1.502   .     D
O154   S281    1.682   .     S
O155   S282    1.503   .     D
O156   S282    1.502   .     D
O157   S282    1.679   .     S
O158   Zn302   1.914   .     S
O158   C622    1.278   .     A
O159   S284    1.502   .     D
O160   S284    1.502   .     D
O161   S284    1.682   .     S
O162   S285    1.503   .     D
O163   S285    1.502   .     D
O164   S285    1.680   .     S
O165   S286    1.501   .     D
O166   S286    1.502   .     D
O167   S286    1.682   .     S
O168   Zn305   1.914   .     S
O169   C316    1.273   .     A
O169   Zn304   1.914   .     S
O170   C621    1.278   .     A
O170   Zn307   1.914   .     S
O171   Zn306   1.914   .     S
O172   Zn301   1.914   .     S
O172   C315    1.273   .     S
O173   Zn299   1.938   .     S
O173   Zn305   1.931   .     S
O173   Zn295   1.938   .     S
O173   Zn609   1.931   1_455 S
O174   Zn293   1.914   .     S
O175   Zn300   1.933   .     S
O176   Zn607   1.933   .     S
O177   Zn910   1.937   .     S
O178   Zn308   1.937   .     S
O179   Zn604   1.933   .     S
O180   Zn295   1.933   .     S
O181   Zn298   1.937   .     S
O182   Zn913   1.937   .     S
O183   Zn299   1.933   .     S
O184   Zn306   1.938   .     S
O184   Zn298   1.931   .     S
O184   Zn294   1.931   .     S
O184   Zn918   1.938   1_545 S
O185   Zn608   1.933   .     S
O186   Zn297   1.936   .     S
O187   Zn914   1.936   .     S
O188   Zn603   1.933   .     S
O189   Zn296   1.933   .     S
O190   Zn924   1.936   .     S
O191   Zn294   1.936   .     S
O192   Zn307   1.933   .     S
O193   Zn306   1.933   .     S
O194   Zn301   1.937   .     S
O195   Zn308   1.931   .     S
O195   Zn297   1.931   .     S
O195   Zn303   1.938   .     S
O195   Zn923   1.938   1_545 S
O196   Zn293   1.937   .     S
O197   Zn303   1.933   .     S
O198   Zn302   1.933   .     S
O199   Zn305   1.937   .     S
O200   Zn304   1.937   .     S
O201   Zn306   1.933   .     S
O202   Zn307   1.933   .     S
O203   Zn304   1.936   .     S
O204   Zn305   1.936   .     S
O205   Zn302   1.933   .     S
O206   Zn296   1.914   .     S
O207   Zn303   1.933   .     S
O208   Zn293   1.936   .     S
O209   Zn301   1.936   .     S
O210   S261    1.503   .     D
O211   S261    1.503   .     D
O212   S261    1.682   .     S
O213   S272    1.502   .     D
O214   S272    1.500   .     D
O215   S272    1.681   .     S
O216   S283    1.503   .     D
O217   Zn295   1.914   .     S
O218   S283    1.502   .     D
O219   S283    1.682   .     S
O220   S287    1.500   .     D
O221   S287    1.503   .     D
O222   S287    1.680   .     S
O223   S288    1.503   .     D
O224   S288    1.503   .     D
O225   S288    1.682   .     S
O226   S289    1.502   .     D
O227   S289    1.500   .     D
O228   Zn298   1.914   .     S
O229   S289    1.681   .     S
O230   S290    1.503   .     D
O231   S290    1.502   .     D
O232   S290    1.683   .     S
O233   S291    1.500   .     D
O234   S291    1.503   .     D
O235   S291    1.680   .     S
O236   S292    1.503   .     D
O237   S292    1.502   .     D
O238   S292    1.679   .     S
O239   Zn297   1.914   .     S
O240   S262    1.501   .     D
O241   S262    1.502   .     D
O242   S262    1.682   .     S
O243   S263    1.503   .     D
O244   S263    1.502   .     D
O245   S263    1.680   .     S
O246   S264    1.501   .     D
O247   S264    1.502   .     D
O248   S264    1.682   .     S
O249   S265    1.503   .     D
O250   Zn300   1.914   .     S
O251   S265    1.502   .     D
O252   S265    1.679   .     S
O253   S266    1.502   .     D
O254   S266    1.502   .     D
O255   S266    1.682   .     S
O256   S267    1.503   .     D
O257   S267    1.502   .     D
O258   S267    1.680   .     S
O259   S268    1.501   .     D
O260   S268    1.502   .     D
Zn294  O793    1.937   1_545 S
Zn295  O496    1.933   1_455 S
Zn296  O487    1.933   1_455 S
Zn297  O798    1.937   1_545 S
Zn298  O803    1.936   1_545 S
Zn299  O484    1.933   1_455 S
Zn300  O493    1.933   1_455 S
Zn301  O481    1.931   .     S
Zn302  O800    1.938   .     S
Zn304  O421    1.931   .     S
Zn307  O811    1.938   .     S
Zn308  O806    1.936   1_545 S
C309   C316    1.414   .     S
C309   C320    1.194   1_554 S
C310   O525    1.278   .     A
C310   C375    1.416   .     S
C310   O422    1.278   .     S
C311   O536    1.273   .     A
C311   C364    1.414   .     S
C311   O433    1.273   .     A
C312   O547    1.273   .     A
C312   C353    1.414   .     S
C312   O444    1.273   .     A
C313   O1094   1.278   1_545 A
C313   C342    1.416   .     S
C313   O455    1.278   .     S
C314   O1082   1.278   1_545 A
C314   C331    1.416   .     S
C314   O479    1.278   .     S
C315   O476    1.273   .     A
C315   C320    1.414   .     S
C316   O482    1.273   .     S
C317   O483    1.281   .     A
C317   C377    1.461   .     S
C317   O516    1.270   .     A
C318   O517    1.269   .     A
C318   C378    1.453   .     S
C318   O484    1.277   .     A
C319   C370    1.460   .     S
C319   O485    1.280   .     A
C319   O513    1.270   .     A
C320   C309    1.194   1_556 S
C321   C371    1.454   .     S
C321   O486    1.276   .     A
C321   O515    1.270   .     A
C322   C372    1.461   .     S
C322   O511    1.270   .     A
C322   O487    1.281   .     A
C323   C373    1.453   .     S
C323   O512    1.269   .     A
C323   O488    1.277   .     A
C324   C374    1.460   .     S
C324   O509    1.270   .     A
C324   O489    1.280   .     A
C325   O490    1.276   .     A
C325   C376    1.454   .     S
C325   O510    1.270   .     A
C326   O491    1.270   .     A
C326   C385    1.460   .     S
C326   O507    1.280   .     A
C327   O508    1.276   .     A
C327   C387    1.454   .     S
C327   O493    1.270   .     A
C328   C379    1.461   .     S
C328   O494    1.270   .     A
C328   O505    1.281   .     A
C329   C380    1.453   .     S
C329   O506    1.277   .     A
C329   O495    1.269   .     A
C330   O496    1.270   .     A
C330   O502    1.280   .     A
C330   C381    1.460   .     S
C331   C342    1.194   1_554 S
C332   O504    1.276   .     A
C332   O497    1.270   .     A
C332   C382    1.454   .     S
C333   O498    1.270   .     A
C333   O500    1.280   .     A
C333   C383    1.461   .     S
C334   O499    1.269   .     A
C334   O501    1.277   .     A
C334   C384    1.453   .     S
C335   S569    1.789   .     S
C335   C382    1.408   .     A
C335   C347    1.403   .     A
C336   C381    1.425   .     A
C336   S580    1.800   .     S
C336   C346    1.421   .     A
C337   C345    1.400   .     A
C337   C380    1.406   .     A
C337   S591    1.787   .     S
C338   C379    1.428   .     A
C338   S595    1.801   .     S
C338   C344    1.424   .     A
C339   S596    1.789   .     S
C339   C351    1.403   .     A
C339   C387    1.408   .     A
C340   S597    1.800   .     S
C340   C385    1.425   .     A
C340   C350    1.421   .     A
C341   S598    1.786   .     S
C341   C349    1.400   .     A
C341   C384    1.406   .     A
C342   C331    1.194   1_556 S
C343   C348    1.424   .     A
C343   S599    1.801   .     S
C343   C383    1.428   .     A
C344   C373    1.418   .     A
C344   S600    1.805   .     S
C345   S570    1.795   .     S
C345   C372    1.418   .     A
C346   S571    1.799   .     S
C346   C371    1.416   .     A
C347   S572    1.794   .     S
C347   C370    1.419   .     A
C348   S573    1.805   .     S
C348   C378    1.417   .     A
C349   C377    1.418   .     A
C349   S574    1.795   .     S
C350   S575    1.799   .     S
C350   C376    1.416   .     A
C351   C374    1.419   .     A
C351   S576    1.794   .     S
C352   C365    1.403   .     A
C352   S577    1.789   .     S
C352   C371    1.408   .     A
C353   C364    1.194   .     T
C354   C370    1.425   .     A
C354   C363    1.421   .     A
C354   S578    1.800   .     S
C355   S579    1.786   .     S
C355   C362    1.400   .     A
C355   C373    1.406   .     A
C356   C361    1.424   .     A
C356   C372    1.428   .     A
C356   S581    1.801   .     S
C357   C376    1.408   .     A
C357   C369    1.403   .     A
C357   S582    1.789   .     S
C358   C374    1.425   .     A
C358   C368    1.421   .     A
C358   S583    1.800   .     S
C359   S584    1.786   .     S
C359   C378    1.406   .     A
C359   C367    1.400   .     A
C360   C366    1.424   .     A
C360   S585    1.801   .     S
C360   C377    1.428   .     A
C361   S586    1.805   .     S
C361   C380    1.417   .     A
C362   S587    1.795   .     S
C362   C379    1.418   .     A
C363   C382    1.416   .     A
C363   S588    1.799   .     S
C365   S589    1.794   .     S
C365   C381    1.419   .     A
C366   S590    1.806   .     S
C366   C384    1.418   .     A
C367   S592    1.795   .     S
C367   C383    1.418   .     A
C368   C387    1.416   .     A
C368   S593    1.799   .     S
C369   C385    1.419   .     A
C369   S594    1.794   .     S
C375   C386    1.194   .     T
C386   C388    1.416   .     S
C388   O514    1.278   .     S
C388   O558    1.278   .     S
H389   O520    0.991   .     S
H390   O550    0.991   .     S
H391   O553    0.991   .     S
H392   O556    0.991   .     S
H393   O560    0.991   .     S
H394   O563    0.991   .     S
H395   O566    0.991   .     S
H396   O423    0.991   .     S
H397   O426    0.991   .     S
H398   O429    0.991   .     S
H399   O432    0.991   .     S
H400   O523    0.991   .     S
H401   O436    0.991   .     S
H402   O439    0.991   .     S
H403   O442    0.991   .     S
H404   O446    0.991   .     S
H405   O449    0.991   .     S
H406   O452    0.991   .     S
H407   O456    0.991   .     S
H408   O459    0.991   .     S
H409   O462    0.991   .     S
H410   O465    0.991   .     S
H411   O527    0.991   .     S
H412   O469    0.991   .     S
H413   O472    0.991   .     S
H414   O475    0.991   .     S
H415   O530    0.991   .     S
H416   O533    0.991   .     S
H417   O537    0.991   .     S
H418   O540    0.991   .     S
H419   O543    0.991   .     S
H420   O546    0.991   .     S
O421   Zn604   1.938   .     S
O421   Zn608   1.938   .     S
O421   Zn601   1.931   .     S
O422   Zn607   1.914   .     S
O423   S576    1.682   .     S
O424   S577    1.503   .     D
O425   S577    1.503   .     D
O426   S577    1.682   .     S
O427   S578    1.502   .     D
O428   S578    1.500   .     D
O429   S578    1.681   .     S
O430   S579    1.503   .     D
O431   S579    1.502   .     D
O432   S579    1.683   .     S
O433   Zn602   1.914   .     S
O434   S581    1.500   .     D
O435   S581    1.503   .     D
O436   S581    1.680   .     S
O437   S582    1.503   .     D
O438   S582    1.503   .     D
O439   S582    1.682   .     S
O440   S583    1.502   .     D
O441   S583    1.500   .     D
O442   S583    1.681   .     S
O443   S584    1.503   .     D
O444   Zn616   1.914   .     S
O445   S584    1.502   .     D
O446   S584    1.683   .     S
O447   S585    1.500   .     D
O448   S585    1.503   .     D
O449   S585    1.680   .     S
O450   S586    1.503   .     D
O451   S586    1.502   .     D
O452   S586    1.679   .     S
O453   S587    1.502   .     D
O454   S587    1.502   .     D
O455   Zn611   1.914   .     S
O456   S587    1.682   .     S
O457   S588    1.503   .     D
O458   S588    1.502   .     D
O459   S588    1.680   .     S
O460   S589    1.501   .     D
O461   S589    1.502   .     D
O462   S589    1.682   .     S
O463   S590    1.503   .     D
O464   S590    1.502   .     D
O465   S590    1.679   .     S
O466   Zn610   1.914   .     S
O466   C930    1.278   .     A
O467   S592    1.502   .     D
O468   S592    1.502   .     D
O469   S592    1.682   .     S
O470   S593    1.503   .     D
O471   S593    1.502   .     D
O472   S593    1.680   .     S
O473   S594    1.501   .     D
O474   S594    1.502   .     D
O475   S594    1.682   .     S
O476   Zn613   1.914   .     S
O477   C8      1.273   1_655 A
O477   Zn612   1.914   .     S
O478   C929    1.278   .     A
O478   Zn615   1.914   .     S
O479   Zn614   1.914   .     S
O480   Zn609   1.914   .     S
O480   C7      1.273   1_655 S
O481   Zn607   1.938   .     S
O481   Zn613   1.931   .     S
O481   Zn603   1.938   .     S
O482   Zn601   1.914   .     S
O483   Zn608   1.933   .     S
O484   Zn299   1.933   1_655 S
O485   Zn1218  1.937   .     S
O486   Zn616   1.937   .     S
O487   Zn296   1.933   1_655 S
O488   Zn603   1.933   .     S
O489   Zn606   1.937   .     S
O490   Zn1221  1.937   .     S
O491   Zn607   1.933   .     S
O492   Zn614   1.938   .     S
O492   Zn606   1.931   .     S
O492   Zn602   1.931   .     S
O492   Zn1226  1.938   1_545 S
O493   Zn300   1.933   1_655 S
O494   Zn605   1.936   .     S
O495   Zn1222  1.936   .     S
O496   Zn295   1.933   1_655 S
O497   Zn604   1.933   .     S
O498   Zn1232  1.936   .     S
O499   Zn602   1.936   .     S
O500   Zn615   1.933   .     S
O501   Zn614   1.933   .     S
O502   Zn609   1.937   .     S
O503   Zn616   1.931   .     S
O503   Zn605   1.931   .     S
O503   Zn611   1.938   .     S
O503   Zn1231  1.938   1_545 S
O504   Zn601   1.937   .     S
O505   Zn611   1.933   .     S
O506   Zn610   1.933   .     S
O507   Zn613   1.937   .     S
O508   Zn612   1.937   .     S
O509   Zn614   1.933   .     S
O510   Zn615   1.933   .     S
O511   Zn612   1.936   .     S
O512   Zn613   1.936   .     S
O513   Zn610   1.933   .     S
O514   Zn604   1.914   .     S
O515   Zn611   1.933   .     S
O516   Zn601   1.936   .     S
O517   Zn609   1.936   .     S
O518   S569    1.503   .     D
O519   S569    1.503   .     D
O520   S569    1.682   .     S
O521   S580    1.502   .     D
O522   S580    1.500   .     D
O523   S580    1.681   .     S
O524   S591    1.503   .     D
O525   Zn603   1.914   .     S
O526   S591    1.502   .     D
O527   S591    1.682   .     S
O528   S595    1.500   .     D
O529   S595    1.503   .     D
O530   S595    1.680   .     S
O531   S596    1.503   .     D
O532   S596    1.503   .     D
O533   S596    1.682   .     S
O534   S597    1.502   .     D
O535   S597    1.500   .     D
O536   Zn606   1.914   .     S
O537   S597    1.681   .     S
O538   S598    1.503   .     D
O539   S598    1.502   .     D
O540   S598    1.683   .     S
O541   S599    1.500   .     D
O542   S599    1.503   .     D
O543   S599    1.680   .     S
O544   S600    1.503   .     D
O545   S600    1.502   .     D
O546   S600    1.679   .     S
O547   Zn605   1.914   .     S
O548   S570    1.501   .     D
O549   S570    1.502   .     D
O550   S570    1.682   .     S
O551   S571    1.503   .     D
O552   S571    1.502   .     D
O553   S571    1.680   .     S
O554   S572    1.501   .     D
O555   S572    1.502   .     D
O556   S572    1.682   .     S
O557   S573    1.503   .     D
O558   Zn608   1.914   .     S
O559   S573    1.502   .     D
O560   S573    1.679   .     S
O561   S574    1.502   .     D
O562   S574    1.502   .     D
O563   S574    1.682   .     S
O564   S575    1.503   .     D
O565   S575    1.502   .     D
O566   S575    1.680   .     S
O567   S576    1.501   .     D
O568   S576    1.502   .     D
Zn602  O1101   1.937   1_545 S
Zn605  O1106   1.937   1_545 S
Zn606  O1111   1.936   1_545 S
Zn609  O173    1.931   1_655 S
Zn610  O1108   1.938   .     S
Zn612  O113    1.931   1_655 S
Zn615  O1119   1.938   .     S
Zn616  O1114   1.936   1_545 S
C617   C624    1.414   .     S
C617   C628    1.194   1_554 S
C618   O833    1.278   .     A
C618   C683    1.416   .     S
C618   O730    1.278   .     S
C619   O844    1.273   .     A
C619   C672    1.414   .     S
C619   O741    1.273   .     A
C620   O855    1.273   .     A
C620   C661    1.414   .     S
C620   O752    1.273   .     A
C621   C650    1.416   .     S
C621   O763    1.278   .     S
C622   C639    1.416   .     S
C622   O787    1.278   .     S
C623   O784    1.273   .     A
C623   C628    1.414   .     S
C623   O1096   1.273   1_455 S
C624   O1093   1.273   1_455 A
C624   O790    1.273   .     S
C625   O791    1.281   .     A
C625   C685    1.461   .     S
C625   O824    1.270   .     A
C626   O825    1.269   .     A
C626   C686    1.453   .     S
C626   O792    1.277   .     A
C627   C678    1.460   .     S
C627   O793    1.280   .     A
C627   O821    1.270   .     A
C628   C617    1.194   1_556 S
C629   C679    1.454   .     S
C629   O794    1.276   .     A
C629   O823    1.270   .     A
C630   C680    1.461   .     S
C630   O819    1.270   .     A
C630   O795    1.281   .     A
C631   C681    1.453   .     S
C631   O820    1.269   .     A
C631   O796    1.277   .     A
C632   C682    1.460   .     S
C632   O817    1.270   .     A
C632   O797    1.280   .     A
C633   O798    1.276   .     A
C633   C684    1.454   .     S
C633   O818    1.270   .     A
C634   O799    1.270   .     A
C634   C693    1.460   .     S
C634   O815    1.280   .     A
C635   O816    1.276   .     A
C635   C695    1.454   .     S
C635   O801    1.270   .     A
C636   C687    1.461   .     S
C636   O802    1.270   .     A
C636   O813    1.281   .     A
C637   C688    1.453   .     S
C637   O814    1.277   .     A
C637   O803    1.269   .     A
C638   O804    1.270   .     A
C638   O810    1.280   .     A
C638   C689    1.460   .     S
C639   C650    1.194   1_554 S
C640   O812    1.276   .     A
C640   O805    1.270   .     A
C640   C690    1.454   .     S
C641   O806    1.270   .     A
C641   O808    1.280   .     A
C641   C691    1.461   .     S
C642   O807    1.269   .     A
C642   O809    1.277   .     A
C642   C692    1.453   .     S
C643   S877    1.789   .     S
C643   C690    1.408   .     A
C643   C655    1.403   .     A
C644   C689    1.425   .     A
C644   S888    1.800   .     S
C644   C654    1.421   .     A
C645   C653    1.400   .     A
C645   C688    1.406   .     A
C645   S899    1.787   .     S
C646   C687    1.428   .     A
C646   S903    1.801   .     S
C646   C652    1.424   .     A
C647   S904    1.789   .     S
C647   C659    1.403   .     A
C647   C695    1.408   .     A
C648   S905    1.800   .     S
C648   C693    1.425   .     A
C648   C658    1.421   .     A
C649   S906    1.786   .     S
C649   C657    1.400   .     A
C649   C692    1.406   .     A
C650   C639    1.194   1_556 S
C651   C656    1.424   .     A
C651   S907    1.801   .     S
C651   C691    1.428   .     A
C652   C681    1.418   .     A
C652   S908    1.805   .     S
C653   S878    1.795   .     S
C653   C680    1.418   .     A
C654   S879    1.799   .     S
C654   C679    1.416   .     A
C655   S880    1.794   .     S
C655   C678    1.419   .     A
C656   S881    1.805   .     S
C656   C686    1.417   .     A
C657   C685    1.418   .     A
C657   S882    1.795   .     S
C658   S883    1.799   .     S
C658   C684    1.416   .     A
C659   C682    1.419   .     A
C659   S884    1.794   .     S
C660   C673    1.403   .     A
C660   S885    1.789   .     S
C660   C679    1.408   .     A
C661   C672    1.194   .     T
C662   C678    1.425   .     A
C662   C671    1.421   .     A
C662   S886    1.800   .     S
C663   S887    1.786   .     S
C663   C670    1.400   .     A
C663   C681    1.406   .     A
C664   C669    1.424   .     A
C664   C680    1.428   .     A
C664   S889    1.801   .     S
C665   C684    1.408   .     A
C665   C677    1.403   .     A
C665   S890    1.789   .     S
C666   C682    1.425   .     A
C666   C676    1.421   .     A
C666   S891    1.800   .     S
C667   S892    1.786   .     S
C667   C686    1.406   .     A
C667   C675    1.400   .     A
C668   C674    1.424   .     A
C668   S893    1.801   .     S
C668   C685    1.428   .     A
C669   S894    1.805   .     S
C669   C688    1.417   .     A
C670   S895    1.795   .     S
C670   C687    1.418   .     A
C671   C690    1.416   .     A
C671   S896    1.799   .     S
C673   S897    1.794   .     S
C673   C689    1.419   .     A
C674   S898    1.806   .     S
C674   C692    1.418   .     A
C675   S900    1.795   .     S
C675   C691    1.418   .     A
C676   C695    1.416   .     A
C676   S901    1.799   .     S
C677   C693    1.419   .     A
C677   S902    1.794   .     S
C683   C694    1.194   .     T
C694   C696    1.416   .     S
C696   O822    1.278   .     S
C696   O866    1.278   .     S
H697   O828    0.991   .     S
H698   O858    0.991   .     S
H699   O861    0.991   .     S
H700   O864    0.991   .     S
H701   O868    0.991   .     S
H702   O871    0.991   .     S
H703   O874    0.991   .     S
H704   O731    0.991   .     S
H705   O734    0.991   .     S
H706   O737    0.991   .     S
H707   O740    0.991   .     S
H708   O831    0.991   .     S
H709   O744    0.991   .     S
H710   O747    0.991   .     S
H711   O750    0.991   .     S
H712   O754    0.991   .     S
H713   O757    0.991   .     S
H714   O760    0.991   .     S
H715   O764    0.991   .     S
H716   O767    0.991   .     S
H717   O770    0.991   .     S
H718   O773    0.991   .     S
H719   O835    0.991   .     S
H720   O777    0.991   .     S
H721   O780    0.991   .     S
H722   O783    0.991   .     S
H723   O838    0.991   .     S
H724   O841    0.991   .     S
H725   O845    0.991   .     S
H726   O848    0.991   .     S
H727   O851    0.991   .     S
H728   O854    0.991   .     S
O729   Zn912   1.938   .     S
O729   Zn916   1.938   .     S
O729   Zn909   1.931   .     S
O729   Zn1228  1.931   1_455 S
O730   Zn915   1.914   .     S
O731   S884    1.682   .     S
O732   S885    1.503   .     D
O733   S885    1.503   .     D
O734   S885    1.682   .     S
O735   S886    1.502   .     D
O736   S886    1.500   .     D
O737   S886    1.681   .     S
O738   S887    1.503   .     D
O739   S887    1.502   .     D
O740   S887    1.683   .     S
O741   Zn910   1.914   .     S
O742   S889    1.500   .     D
O743   S889    1.503   .     D
O744   S889    1.680   .     S
O745   S890    1.503   .     D
O746   S890    1.503   .     D
O747   S890    1.682   .     S
O748   S891    1.502   .     D
O749   S891    1.500   .     D
O750   S891    1.681   .     S
O751   S892    1.503   .     D
O752   Zn924   1.914   .     S
O753   S892    1.502   .     D
O754   S892    1.683   .     S
O755   S893    1.500   .     D
O756   S893    1.503   .     D
O757   S893    1.680   .     S
O758   S894    1.503   .     D
O759   S894    1.502   .     D
O760   S894    1.679   .     S
O761   S895    1.502   .     D
O762   S895    1.502   .     D
O763   Zn919   1.914   .     S
O764   S895    1.682   .     S
O765   S896    1.503   .     D
O766   S896    1.502   .     D
O767   S896    1.680   .     S
O768   S897    1.501   .     D
O769   S897    1.502   .     D
O770   S897    1.682   .     S
O771   S898    1.503   .     D
O772   S898    1.502   .     D
O773   S898    1.679   .     S
O774   Zn918   1.914   .     S
O774   C6      1.278   1_565 A
O775   S900    1.502   .     D
O776   S900    1.502   .     D
O777   S900    1.682   .     S
O778   S901    1.503   .     D
O779   S901    1.502   .     D
O780   S901    1.680   .     S
O781   S902    1.501   .     D
O782   S902    1.502   .     D
O783   S902    1.682   .     S
O784   Zn921   1.914   .     S
O785   C932    1.273   .     A
O785   Zn920   1.914   .     S
O786   C5      1.278   1_565 A
O786   Zn923   1.914   .     S
O787   Zn922   1.914   .     S
O788   Zn917   1.914   .     S
O788   C931    1.273   .     S
O789   Zn915   1.938   .     S
O789   Zn921   1.931   .     S
O789   Zn911   1.938   .     S
O789   Zn1225  1.931   1_455 S
O790   Zn909   1.914   .     S
O791   Zn916   1.933   .     S
O792   Zn1223  1.933   .     S
O793   Zn294   1.937   1_565 S
O794   Zn924   1.937   .     S
O795   Zn1220  1.933   .     S
O796   Zn911   1.933   .     S
O797   Zn914   1.937   .     S
O798   Zn297   1.937   1_565 S
O799   Zn915   1.933   .     S
O800   Zn922   1.938   .     S
O800   Zn914   1.931   .     S
O800   Zn910   1.931   .     S
O801   Zn1224  1.933   .     S
O802   Zn913   1.936   .     S
O803   Zn298   1.936   1_565 S
O804   Zn1219  1.933   .     S
O805   Zn912   1.933   .     S
O806   Zn308   1.936   1_565 S
O807   Zn910   1.936   .     S
O808   Zn923   1.933   .     S
O809   Zn922   1.933   .     S
O810   Zn917   1.937   .     S
O811   Zn924   1.931   .     S
O811   Zn913   1.931   .     S
O811   Zn919   1.938   .     S
O812   Zn909   1.937   .     S
O813   Zn919   1.933   .     S
O814   Zn918   1.933   .     S
O815   Zn921   1.937   .     S
O816   Zn920   1.937   .     S
O817   Zn922   1.933   .     S
O818   Zn923   1.933   .     S
O819   Zn920   1.936   .     S
O820   Zn921   1.936   .     S
O821   Zn918   1.933   .     S
O822   Zn912   1.914   .     S
O823   Zn919   1.933   .     S
O824   Zn909   1.936   .     S
O825   Zn917   1.936   .     S
O826   S877    1.503   .     D
O827   S877    1.503   .     D
O828   S877    1.682   .     S
O829   S888    1.502   .     D
O830   S888    1.500   .     D
O831   S888    1.681   .     S
O832   S899    1.503   .     D
O833   Zn911   1.914   .     S
O834   S899    1.502   .     D
O835   S899    1.682   .     S
O836   S903    1.500   .     D
O837   S903    1.503   .     D
O838   S903    1.680   .     S
O839   S904    1.503   .     D
O840   S904    1.503   .     D
O841   S904    1.682   .     S
O842   S905    1.502   .     D
O843   S905    1.500   .     D
O844   Zn914   1.914   .     S
O845   S905    1.681   .     S
O846   S906    1.503   .     D
O847   S906    1.502   .     D
O848   S906    1.683   .     S
O849   S907    1.500   .     D
O850   S907    1.503   .     D
O851   S907    1.680   .     S
O852   S908    1.503   .     D
O853   S908    1.502   .     D
O854   S908    1.679   .     S
O855   Zn913   1.914   .     S
O856   S878    1.501   .     D
O857   S878    1.502   .     D
O858   S878    1.682   .     S
O859   S879    1.503   .     D
O860   S879    1.502   .     D
O861   S879    1.680   .     S
O862   S880    1.501   .     D
O863   S880    1.502   .     D
O864   S880    1.682   .     S
O865   S881    1.503   .     D
O866   Zn916   1.914   .     S
O867   S881    1.502   .     D
O868   S881    1.679   .     S
O869   S882    1.502   .     D
O870   S882    1.502   .     D
O871   S882    1.682   .     S
O872   S883    1.503   .     D
O873   S883    1.502   .     D
O874   S883    1.680   .     S
O875   S884    1.501   .     D
O876   S884    1.502   .     D
Zn911  O1112   1.933   1_455 S
Zn912  O1103   1.933   1_455 S
Zn915  O1100   1.933   1_455 S
Zn916  O1109   1.933   1_455 S
Zn917  O1097   1.931   .     S
Zn918  O184    1.938   1_565 S
Zn920  O1037   1.931   .     S
Zn923  O195    1.938   1_565 S
C925   C932    1.414   .     S
C925   C936    1.194   1_554 S
C926   O1141   1.278   .     A
C926   C991    1.416   .     S
C926   O1038   1.278   .     S
C927   O1152   1.273   .     A
C927   C980    1.414   .     S
C927   O1049   1.273   .     A
C928   O1163   1.273   .     A
C928   C969    1.414   .     S
C928   O1060   1.273   .     A
C929   C958    1.416   .     S
C929   O1071   1.278   .     S
C930   C947    1.416   .     S
C930   O1095   1.278   .     S
C931   O1092   1.273   .     A
C931   C936    1.414   .     S
C932   O1098   1.273   .     S
C933   O1099   1.281   .     A
C933   C993    1.461   .     S
C933   O1132   1.270   .     A
C934   O1133   1.269   .     A
C934   C994    1.453   .     S
C934   O1100   1.277   .     A
C935   C986    1.460   .     S
C935   O1101   1.280   .     A
C935   O1129   1.270   .     A
C936   C925    1.194   1_556 S
C937   C987    1.454   .     S
C937   O1102   1.276   .     A
C937   O1131   1.270   .     A
C938   C988    1.461   .     S
C938   O1127   1.270   .     A
C938   O1103   1.281   .     A
C939   C989    1.453   .     S
C939   O1128   1.269   .     A
C939   O1104   1.277   .     A
C940   C990    1.460   .     S
C940   O1125   1.270   .     A
C940   O1105   1.280   .     A
C941   O1106   1.276   .     A
C941   C992    1.454   .     S
C941   O1126   1.270   .     A
C942   O1107   1.270   .     A
C942   C1001   1.460   .     S
C942   O1123   1.280   .     A
C943   O1124   1.276   .     A
C943   C1003   1.454   .     S
C943   O1109   1.270   .     A
C944   C995    1.461   .     S
C944   O1110   1.270   .     A
C944   O1121   1.281   .     A
C945   C996    1.453   .     S
C945   O1122   1.277   .     A
C945   O1111   1.269   .     A
C946   O1112   1.270   .     A
C946   O1118   1.280   .     A
C946   C997    1.460   .     S
C947   C958    1.194   1_554 S
C948   O1120   1.276   .     A
C948   O1113   1.270   .     A
C948   C998    1.454   .     S
C949   O1114   1.270   .     A
C949   O1116   1.280   .     A
C949   C999    1.461   .     S
C950   O1115   1.269   .     A
C950   O1117   1.277   .     A
C950   C1000   1.453   .     S
C951   S1185   1.789   .     S
C951   C998    1.408   .     A
C951   C963    1.403   .     A
C952   C997    1.425   .     A
C952   S1196   1.800   .     S
C952   C962    1.421   .     A
C953   C961    1.400   .     A
C953   C996    1.406   .     A
C953   S1207   1.787   .     S
C954   C995    1.428   .     A
C954   S1211   1.801   .     S
C954   C960    1.424   .     A
C955   S1212   1.789   .     S
C955   C967    1.403   .     A
C955   C1003   1.408   .     A
C956   S1213   1.800   .     S
C956   C1001   1.425   .     A
C956   C966    1.421   .     A
C957   S1214   1.786   .     S
C957   C965    1.400   .     A
C957   C1000   1.406   .     A
C958   C947    1.194   1_556 S
C959   C964    1.424   .     A
C959   S1215   1.801   .     S
C959   C999    1.428   .     A
C960   C989    1.418   .     A
C960   S1216   1.805   .     S
C961   S1186   1.795   .     S
C961   C988    1.418   .     A
C962   S1187   1.799   .     S
C962   C987    1.416   .     A
C963   S1188   1.794   .     S
C963   C986    1.419   .     A
C964   S1189   1.805   .     S
C964   C994    1.417   .     A
C965   C993    1.418   .     A
C965   S1190   1.795   .     S
C966   S1191   1.799   .     S
C966   C992    1.416   .     A
C967   C990    1.419   .     A
C967   S1192   1.794   .     S
C968   C981    1.403   .     A
C968   S1193   1.789   .     S
C968   C987    1.408   .     A
C969   C980    1.194   .     T
C970   C986    1.425   .     A
C970   C979    1.421   .     A
C970   S1194   1.800   .     S
C971   S1195   1.786   .     S
C971   C978    1.400   .     A
C971   C989    1.406   .     A
C972   C977    1.424   .     A
C972   C988    1.428   .     A
C972   S1197   1.801   .     S
C973   C992    1.408   .     A
C973   C985    1.403   .     A
C973   S1198   1.789   .     S
C974   C990    1.425   .     A
C974   C984    1.421   .     A
C974   S1199   1.800   .     S
C975   S1200   1.786   .     S
C975   C994    1.406   .     A
C975   C983    1.400   .     A
C976   C982    1.424   .     A
C976   S1201   1.801   .     S
C976   C993    1.428   .     A
C977   S1202   1.805   .     S
C977   C996    1.417   .     A
C978   S1203   1.795   .     S
C978   C995    1.418   .     A
C979   C998    1.416   .     A
C979   S1204   1.799   .     S
C981   S1205   1.794   .     S
C981   C997    1.419   .     A
C982   S1206   1.806   .     S
C982   C1000   1.418   .     A
C983   S1208   1.795   .     S
C983   C999    1.418   .     A
C984   C1003   1.416   .     A
C984   S1209   1.799   .     S
C985   C1001   1.419   .     A
C985   S1210   1.794   .     S
C991   C1002   1.194   .     T
C1002  C1004   1.416   .     S
C1004  O1130   1.278   .     S
C1004  O1174   1.278   .     S
H1005  O1136   0.991   .     S
H1006  O1166   0.991   .     S
H1007  O1169   0.991   .     S
H1008  O1172   0.991   .     S
H1009  O1176   0.991   .     S
H1010  O1179   0.991   .     S
H1011  O1182   0.991   .     S
H1012  O1039   0.991   .     S
H1013  O1042   0.991   .     S
H1014  O1045   0.991   .     S
H1015  O1048   0.991   .     S
H1016  O1139   0.991   .     S
H1017  O1052   0.991   .     S
H1018  O1055   0.991   .     S
H1019  O1058   0.991   .     S
H1020  O1062   0.991   .     S
H1021  O1065   0.991   .     S
H1022  O1068   0.991   .     S
H1023  O1072   0.991   .     S
H1024  O1075   0.991   .     S
H1025  O1078   0.991   .     S
H1026  O1081   0.991   .     S
H1027  O1143   0.991   .     S
H1028  O1085   0.991   .     S
H1029  O1088   0.991   .     S
H1030  O1091   0.991   .     S
H1031  O1146   0.991   .     S
H1032  O1149   0.991   .     S
H1033  O1153   0.991   .     S
H1034  O1156   0.991   .     S
H1035  O1159   0.991   .     S
H1036  O1162   0.991   .     S
O1037  Zn1220  1.938   .     S
O1037  Zn1224  1.938   .     S
O1037  Zn1217  1.931   .     S
O1038  Zn1223  1.914   .     S
O1039  S1192   1.682   .     S
O1040  S1193   1.503   .     D
O1041  S1193   1.503   .     D
O1042  S1193   1.682   .     S
O1043  S1194   1.502   .     D
O1044  S1194   1.500   .     D
O1045  S1194   1.681   .     S
O1046  S1195   1.503   .     D
O1047  S1195   1.502   .     D
O1048  S1195   1.683   .     S
O1049  Zn1218  1.914   .     S
O1050  S1197   1.500   .     D
O1051  S1197   1.503   .     D
O1052  S1197   1.680   .     S
O1053  S1198   1.503   .     D
O1054  S1198   1.503   .     D
O1055  S1198   1.682   .     S
O1056  S1199   1.502   .     D
O1057  S1199   1.500   .     D
O1058  S1199   1.681   .     S
O1059  S1200   1.503   .     D
O1060  Zn1232  1.914   .     S
O1061  S1200   1.502   .     D
O1062  S1200   1.683   .     S
O1063  S1201   1.500   .     D
O1064  S1201   1.503   .     D
O1065  S1201   1.680   .     S
O1066  S1202   1.503   .     D
O1067  S1202   1.502   .     D
O1068  S1202   1.679   .     S
O1069  S1203   1.502   .     D
O1070  S1203   1.502   .     D
O1071  Zn1227  1.914   .     S
O1072  S1203   1.682   .     S
O1073  S1204   1.503   .     D
O1074  S1204   1.502   .     D
O1075  S1204   1.680   .     S
O1076  S1205   1.501   .     D
O1077  S1205   1.502   .     D
O1078  S1205   1.682   .     S
O1079  S1206   1.503   .     D
O1080  S1206   1.502   .     D
O1081  S1206   1.679   .     S
O1082  Zn1226  1.914   .     S
O1082  C314    1.278   1_565 A
O1083  S1208   1.502   .     D
O1084  S1208   1.502   .     D
O1085  S1208   1.682   .     S
O1086  S1209   1.503   .     D
O1087  S1209   1.502   .     D
O1088  S1209   1.680   .     S
O1089  S1210   1.501   .     D
O1090  S1210   1.502   .     D
O1091  S1210   1.682   .     S
O1092  Zn1229  1.914   .     S
O1093  C624    1.273   1_655 A
O1093  Zn1228  1.914   .     S
O1094  C313    1.278   1_565 A
O1094  Zn1231  1.914   .     S
O1095  Zn1230  1.914   .     S
O1096  Zn1225  1.914   .     S
O1096  C623    1.273   1_655 S
O1097  Zn1223  1.938   .     S
O1097  Zn1229  1.931   .     S
O1097  Zn1219  1.938   .     S
O1098  Zn1217  1.914   .     S
O1099  Zn1224  1.933   .     S
O1100  Zn915   1.933   1_655 S
O1101  Zn602   1.937   1_565 S
O1102  Zn1232  1.937   .     S
O1103  Zn912   1.933   1_655 S
O1104  Zn1219  1.933   .     S
O1105  Zn1222  1.937   .     S
O1106  Zn605   1.937   1_565 S
O1107  Zn1223  1.933   .     S
O1108  Zn1230  1.938   .     S
O1108  Zn1222  1.931   .     S
O1108  Zn1218  1.931   .     S
O1109  Zn916   1.933   1_655 S
O1110  Zn1221  1.936   .     S
O1111  Zn606   1.936   1_565 S
O1112  Zn911   1.933   1_655 S
O1113  Zn1220  1.933   .     S
O1114  Zn616   1.936   1_565 S
O1115  Zn1218  1.936   .     S
O1116  Zn1231  1.933   .     S
O1117  Zn1230  1.933   .     S
O1118  Zn1225  1.937   .     S
O1119  Zn1232  1.931   .     S
O1119  Zn1221  1.931   .     S
O1119  Zn1227  1.938   .     S
O1120  Zn1217  1.937   .     S
O1121  Zn1227  1.933   .     S
O1122  Zn1226  1.933   .     S
O1123  Zn1229  1.937   .     S
O1124  Zn1228  1.937   .     S
O1125  Zn1230  1.933   .     S
O1126  Zn1231  1.933   .     S
O1127  Zn1228  1.936   .     S
O1128  Zn1229  1.936   .     S
O1129  Zn1226  1.933   .     S
O1130  Zn1220  1.914   .     S
O1131  Zn1227  1.933   .     S
O1132  Zn1217  1.936   .     S
O1133  Zn1225  1.936   .     S
O1134  S1185   1.503   .     D
O1135  S1185   1.503   .     D
O1136  S1185   1.682   .     S
O1137  S1196   1.502   .     D
O1138  S1196   1.500   .     D
O1139  S1196   1.681   .     S
O1140  S1207   1.503   .     D
O1141  Zn1219  1.914   .     S
O1142  S1207   1.502   .     D
O1143  S1207   1.682   .     S
O1144  S1211   1.500   .     D
O1145  S1211   1.503   .     D
O1146  S1211   1.680   .     S
O1147  S1212   1.503   .     D
O1148  S1212   1.503   .     D
O1149  S1212   1.682   .     S
O1150  S1213   1.502   .     D
O1151  S1213   1.500   .     D
O1152  Zn1222  1.914   .     S
O1153  S1213   1.681   .     S
O1154  S1214   1.503   .     D
O1155  S1214   1.502   .     D
O1156  S1214   1.683   .     S
O1157  S1215   1.500   .     D
O1158  S1215   1.503   .     D
O1159  S1215   1.680   .     S
O1160  S1216   1.503   .     D
O1161  S1216   1.502   .     D
O1162  S1216   1.679   .     S
O1163  Zn1221  1.914   .     S
O1164  S1186   1.501   .     D
O1165  S1186   1.502   .     D
O1166  S1186   1.682   .     S
O1167  S1187   1.503   .     D
O1168  S1187   1.502   .     D
O1169  S1187   1.680   .     S
O1170  S1188   1.501   .     D
O1171  S1188   1.502   .     D
O1172  S1188   1.682   .     S
O1173  S1189   1.503   .     D
O1174  Zn1224  1.914   .     S
O1175  S1189   1.502   .     D
O1176  S1189   1.679   .     S
O1177  S1190   1.502   .     D
O1178  S1190   1.502   .     D
O1179  S1190   1.682   .     S
O1180  S1191   1.503   .     D
O1181  S1191   1.502   .     D
O1182  S1191   1.680   .     S
O1183  S1192   1.501   .     D
O1184  S1192   1.502   .     D
Zn1225 O789    1.931   1_655 S
Zn1226 O492    1.938   1_565 S
Zn1228 O729    1.931   1_655 S
Zn1231 O503    1.938   1_565 S
