data_str_m3_o1_o2_pcu_sym.127
_audit_creation_date              2020-01-03
_audit_creation_method            'Materials Studio'
_symmetry_space_group_name_H-M    'P1'
_symmetry_Int_Tables_number       1
_symmetry_cell_setting            triclinic
loop_
_symmetry_equiv_pos_as_xyz
  x,y,z
_cell_length_a                    32.0924
_cell_length_b                    29.5397
_cell_length_c                    29.9379
_cell_angle_alpha                 90.2825
_cell_angle_beta                  90.0655
_cell_angle_gamma                 90.0082
loop_
_atom_site_label
_atom_site_type_symbol
_atom_site_fract_x
_atom_site_fract_y
_atom_site_fract_z
_atom_site_U_iso_or_equiv
_atom_site_adp_type
_atom_site_occupancy
C1     C     0.08676   0.16664   0.25000   0.00000  Uiso   1.00
C2     C     0.24660   0.16662   0.25004   0.00000  Uiso   1.00
C3     C     0.16663   0.16660   0.16418   0.00000  Uiso   1.00
C4     C     0.16591   0.16680   0.33603   0.00000  Uiso   1.00
C5     C     0.19309   0.02411   0.27719   0.00000  Uiso   1.00
C6     C     0.14023   0.30922   0.22283   0.00000  Uiso   1.00
C7     C     0.14024   0.02384   0.22282   0.00000  Uiso   1.00
C8     C     0.19308   0.30949   0.27720   0.00000  Uiso   1.00
C9     C     0.02166   0.13655   0.22144   0.00000  Uiso   1.00
C10    C     0.31181   0.19574   0.27954   0.00000  Uiso   1.00
C11    C     0.31178   0.13626   0.22169   0.00000  Uiso   1.00
C12    C     0.02172   0.19565   0.27963   0.00000  Uiso   1.00
C13    C     0.20382   0.16199   0.04695   0.00000  Uiso   1.00
C14    C     0.13814   0.13643   0.45291   0.00000  Uiso   1.00
C15    C     0.19137   0.19493   0.45390   0.00000  Uiso   1.00
C16    C     0.12820   0.16740   0.04787   0.00000  Uiso   1.00
C17    C     0.20503   0.16385   0.09305   0.00000  Uiso   1.00
C18    C     0.13645   0.13799   0.40680   0.00000  Uiso   1.00
C19    C     0.19127   0.19618   0.40748   0.00000  Uiso   1.00
C20    C     0.12854   0.16853   0.09434   0.00000  Uiso   1.00
C21    C     0.16696   0.16649   0.11655   0.00000  Uiso   1.00
C22    C     0.16411   0.16721   0.38402   0.00000  Uiso   1.00
C23    C     0.16571   0.16411   0.02449   0.00000  Uiso   1.00
C24    C     0.16528   0.16485   0.47628   0.00000  Uiso   1.00
C25    C     0.29078   0.16637   0.25026   0.00000  Uiso   1.00
C26    C     0.04264   0.16645   0.25021   0.00000  Uiso   1.00
H27    H     0.21423   0.04238   0.29893   0.00000  Uiso   1.00
H28    H     0.11909   0.29095   0.20109   0.00000  Uiso   1.00
H29    H     0.11913   0.04189   0.20106   0.00000  Uiso   1.00
H30    H     0.21419   0.29144   0.29897   0.00000  Uiso   1.00
H31    H     0.23278   0.15943   0.02851   0.00000  Uiso   1.00
H32    H     0.11772   0.11345   0.47061   0.00000  Uiso   1.00
H33    H     0.21173   0.21735   0.47262   0.00000  Uiso   1.00
H34    H     0.09893   0.16982   0.02993   0.00000  Uiso   1.00
N35    N     0.16667   0.28573   0.25000   0.00000  Uiso   1.00
N36    N     0.16667   0.04760   0.25000   0.00000  Uiso   1.00
O37    O     0.10559   0.20487   0.24999   0.00000  Uiso   1.00
O38    O     0.22774   0.12846   0.25000   0.00000  Uiso   1.00
O39    O     0.22774   0.20487   0.25000   0.00000  Uiso   1.00
O40    O     0.10559   0.12846   0.24999   0.00000  Uiso   1.00
O41    O     0.16666   0.20489   0.18453   0.00000  Uiso   1.00
O42    O     0.16667   0.12845   0.31547   0.00000  Uiso   1.00
O43    O     0.16667   0.20489   0.31547   0.00000  Uiso   1.00
O44    O     0.16666   0.12845   0.18453   0.00000  Uiso   1.00
Zn45   Zn    0.16667   0.21771   0.25000   0.00000  Uiso   1.00
Zn46   Zn    0.16667   0.11563   0.25000   0.00000  Uiso   1.00
O47    O     0.24373   0.16341   0.11333   0.00000  Uiso   1.00
H48    H     0.24090   0.17005   0.14557   0.00000  Uiso   1.00
O49    O     0.10711   0.11117   0.38565   0.00000  Uiso   1.00
H50    H     0.10035   0.12433   0.35619   0.00000  Uiso   1.00
O51    O     0.21785   0.22453   0.38441   0.00000  Uiso   1.00
H52    H     0.23482   0.24221   0.40601   0.00000  Uiso   1.00
O53    O     0.09213   0.17201   0.11874   0.00000  Uiso   1.00
H54    H     0.06809   0.17308   0.09791   0.00000  Uiso   1.00
N55    N     0.04455   0.10745   0.19167   0.00000  Uiso   1.00
H56    H     0.03600   0.11464   0.15878   0.00000  Uiso   1.00
H57    H     0.03693   0.07380   0.19858   0.00000  Uiso   1.00
N58    N     0.28891   0.22423   0.30986   0.00000  Uiso   1.00
H59    H     0.29679   0.25799   0.30386   0.00000  Uiso   1.00
H60    H     0.29725   0.21606   0.34259   0.00000  Uiso   1.00
N61    N     0.28894   0.10608   0.19287   0.00000  Uiso   1.00
H62    H     0.29764   0.11194   0.15979   0.00000  Uiso   1.00
H63    H     0.29664   0.07276   0.20106   0.00000  Uiso   1.00
N64    N     0.04474   0.22383   0.31020   0.00000  Uiso   1.00
H65    H     0.03665   0.21524   0.34288   0.00000  Uiso   1.00
H66    H     0.03682   0.25765   0.30462   0.00000  Uiso   1.00
C67    C     0.42010   0.16664   0.25000   0.00000  Uiso   1.00
C68    C     0.57994   0.16662   0.25004   0.00000  Uiso   1.00
C69    C     0.49996   0.16660   0.16418   0.00000  Uiso   1.00
C70    C     0.49925   0.16680   0.33603   0.00000  Uiso   1.00
C71    C     0.52643   0.02411   0.27719   0.00000  Uiso   1.00
C72    C     0.47356   0.30922   0.22283   0.00000  Uiso   1.00
C73    C     0.47357   0.02384   0.22282   0.00000  Uiso   1.00
C74    C     0.52642   0.30949   0.27720   0.00000  Uiso   1.00
C75    C     0.35499   0.13655   0.22144   0.00000  Uiso   1.00
C76    C     0.64514   0.19574   0.27954   0.00000  Uiso   1.00
C77    C     0.64511   0.13626   0.22169   0.00000  Uiso   1.00
C78    C     0.35506   0.19565   0.27963   0.00000  Uiso   1.00
C79    C     0.53715   0.16199   0.04695   0.00000  Uiso   1.00
C80    C     0.47147   0.13643   0.45291   0.00000  Uiso   1.00
C81    C     0.52471   0.19493   0.45390   0.00000  Uiso   1.00
C82    C     0.46153   0.16740   0.04787   0.00000  Uiso   1.00
C83    C     0.53836   0.16385   0.09305   0.00000  Uiso   1.00
C84    C     0.46978   0.13799   0.40680   0.00000  Uiso   1.00
C85    C     0.52461   0.19618   0.40748   0.00000  Uiso   1.00
C86    C     0.46188   0.16853   0.09434   0.00000  Uiso   1.00
C87    C     0.50029   0.16649   0.11655   0.00000  Uiso   1.00
C88    C     0.49744   0.16721   0.38402   0.00000  Uiso   1.00
C89    C     0.49905   0.16411   0.02449   0.00000  Uiso   1.00
C90    C     0.49861   0.16485   0.47628   0.00000  Uiso   1.00
C91    C     0.62411   0.16637   0.25026   0.00000  Uiso   1.00
C92    C     0.37598   0.16645   0.25021   0.00000  Uiso   1.00
H93    H     0.54756   0.04238   0.29893   0.00000  Uiso   1.00
H94    H     0.45242   0.29095   0.20109   0.00000  Uiso   1.00
H95    H     0.45246   0.04189   0.20106   0.00000  Uiso   1.00
H96    H     0.54752   0.29144   0.29897   0.00000  Uiso   1.00
H97    H     0.56612   0.15943   0.02851   0.00000  Uiso   1.00
H98    H     0.45105   0.11345   0.47061   0.00000  Uiso   1.00
H99    H     0.54506   0.21735   0.47262   0.00000  Uiso   1.00
H100   H     0.43227   0.16982   0.02993   0.00000  Uiso   1.00
N101   N     0.50000   0.28573   0.25000   0.00000  Uiso   1.00
N102   N     0.50000   0.04760   0.25000   0.00000  Uiso   1.00
O103   O     0.43892   0.20487   0.24999   0.00000  Uiso   1.00
O104   O     0.56108   0.12846   0.25000   0.00000  Uiso   1.00
O105   O     0.56108   0.20487   0.25000   0.00000  Uiso   1.00
O106   O     0.43892   0.12846   0.24999   0.00000  Uiso   1.00
O107   O     0.50000   0.20489   0.18453   0.00000  Uiso   1.00
O108   O     0.50000   0.12845   0.31547   0.00000  Uiso   1.00
O109   O     0.50000   0.20489   0.31547   0.00000  Uiso   1.00
O110   O     0.50000   0.12845   0.18453   0.00000  Uiso   1.00
Zn111  Zn    0.50000   0.21771   0.25000   0.00000  Uiso   1.00
Zn112  Zn    0.50000   0.11563   0.25000   0.00000  Uiso   1.00
O113   O     0.57706   0.16341   0.11333   0.00000  Uiso   1.00
H114   H     0.57424   0.17005   0.14557   0.00000  Uiso   1.00
O115   O     0.44045   0.11117   0.38565   0.00000  Uiso   1.00
H116   H     0.43368   0.12433   0.35619   0.00000  Uiso   1.00
O117   O     0.55118   0.22453   0.38441   0.00000  Uiso   1.00
H118   H     0.56815   0.24221   0.40601   0.00000  Uiso   1.00
O119   O     0.42546   0.17201   0.11874   0.00000  Uiso   1.00
H120   H     0.40143   0.17308   0.09791   0.00000  Uiso   1.00
N121   N     0.37789   0.10745   0.19167   0.00000  Uiso   1.00
H122   H     0.36934   0.11464   0.15878   0.00000  Uiso   1.00
H123   H     0.37026   0.07380   0.19858   0.00000  Uiso   1.00
N124   N     0.62225   0.22423   0.30986   0.00000  Uiso   1.00
H125   H     0.63012   0.25799   0.30386   0.00000  Uiso   1.00
H126   H     0.63058   0.21606   0.34259   0.00000  Uiso   1.00
N127   N     0.62228   0.10608   0.19287   0.00000  Uiso   1.00
H128   H     0.63098   0.11194   0.15979   0.00000  Uiso   1.00
H129   H     0.62997   0.07276   0.20106   0.00000  Uiso   1.00
N130   N     0.37807   0.22383   0.31020   0.00000  Uiso   1.00
H131   H     0.36998   0.21524   0.34288   0.00000  Uiso   1.00
H132   H     0.37015   0.25765   0.30462   0.00000  Uiso   1.00
C133   C     0.75343   0.16664   0.25000   0.00000  Uiso   1.00
C134   C     0.91327   0.16662   0.25004   0.00000  Uiso   1.00
C135   C     0.83329   0.16660   0.16418   0.00000  Uiso   1.00
C136   C     0.83258   0.16680   0.33603   0.00000  Uiso   1.00
C137   C     0.85976   0.02411   0.27719   0.00000  Uiso   1.00
C138   C     0.80690   0.30922   0.22283   0.00000  Uiso   1.00
C139   C     0.80690   0.02384   0.22282   0.00000  Uiso   1.00
C140   C     0.85975   0.30949   0.27720   0.00000  Uiso   1.00
C141   C     0.68832   0.13655   0.22144   0.00000  Uiso   1.00
C142   C     0.97847   0.19574   0.27954   0.00000  Uiso   1.00
C143   C     0.97844   0.13626   0.22169   0.00000  Uiso   1.00
C144   C     0.68839   0.19565   0.27963   0.00000  Uiso   1.00
C145   C     0.87048   0.16199   0.04695   0.00000  Uiso   1.00
C146   C     0.80481   0.13643   0.45291   0.00000  Uiso   1.00
C147   C     0.85804   0.19493   0.45390   0.00000  Uiso   1.00
C148   C     0.79486   0.16740   0.04787   0.00000  Uiso   1.00
C149   C     0.87169   0.16385   0.09305   0.00000  Uiso   1.00
C150   C     0.80311   0.13799   0.40680   0.00000  Uiso   1.00
C151   C     0.85794   0.19618   0.40748   0.00000  Uiso   1.00
C152   C     0.79521   0.16853   0.09434   0.00000  Uiso   1.00
C153   C     0.83363   0.16649   0.11655   0.00000  Uiso   1.00
C154   C     0.83078   0.16721   0.38402   0.00000  Uiso   1.00
C155   C     0.83238   0.16411   0.02449   0.00000  Uiso   1.00
C156   C     0.83194   0.16485   0.47628   0.00000  Uiso   1.00
C157   C     0.95745   0.16637   0.25026   0.00000  Uiso   1.00
C158   C     0.70931   0.16645   0.25021   0.00000  Uiso   1.00
H159   H     0.88089   0.04238   0.29893   0.00000  Uiso   1.00
H160   H     0.78576   0.29095   0.20109   0.00000  Uiso   1.00
H161   H     0.78579   0.04189   0.20106   0.00000  Uiso   1.00
H162   H     0.88086   0.29144   0.29897   0.00000  Uiso   1.00
H163   H     0.89945   0.15943   0.02851   0.00000  Uiso   1.00
H164   H     0.78439   0.11345   0.47061   0.00000  Uiso   1.00
H165   H     0.87839   0.21735   0.47262   0.00000  Uiso   1.00
H166   H     0.76560   0.16982   0.02993   0.00000  Uiso   1.00
N167   N     0.83333   0.28573   0.25000   0.00000  Uiso   1.00
N168   N     0.83333   0.04760   0.25000   0.00000  Uiso   1.00
O169   O     0.77226   0.20487   0.24999   0.00000  Uiso   1.00
O170   O     0.89441   0.12846   0.25000   0.00000  Uiso   1.00
O171   O     0.89441   0.20487   0.25000   0.00000  Uiso   1.00
O172   O     0.77226   0.12846   0.24999   0.00000  Uiso   1.00
O173   O     0.83333   0.20489   0.18453   0.00000  Uiso   1.00
O174   O     0.83334   0.12845   0.31547   0.00000  Uiso   1.00
O175   O     0.83334   0.20489   0.31547   0.00000  Uiso   1.00
O176   O     0.83333   0.12845   0.18453   0.00000  Uiso   1.00
Zn177  Zn    0.83333   0.21771   0.25000   0.00000  Uiso   1.00
Zn178  Zn    0.83333   0.11563   0.25000   0.00000  Uiso   1.00
O179   O     0.91040   0.16341   0.11333   0.00000  Uiso   1.00
H180   H     0.90757   0.17005   0.14557   0.00000  Uiso   1.00
O181   O     0.77378   0.11117   0.38565   0.00000  Uiso   1.00
H182   H     0.76701   0.12433   0.35619   0.00000  Uiso   1.00
O183   O     0.88452   0.22453   0.38441   0.00000  Uiso   1.00
H184   H     0.90148   0.24221   0.40601   0.00000  Uiso   1.00
O185   O     0.75879   0.17201   0.11874   0.00000  Uiso   1.00
H186   H     0.73476   0.17308   0.09791   0.00000  Uiso   1.00
N187   N     0.71122   0.10745   0.19167   0.00000  Uiso   1.00
H188   H     0.70267   0.11464   0.15878   0.00000  Uiso   1.00
H189   H     0.70360   0.07380   0.19858   0.00000  Uiso   1.00
N190   N     0.95558   0.22423   0.30986   0.00000  Uiso   1.00
H191   H     0.96345   0.25799   0.30386   0.00000  Uiso   1.00
H192   H     0.96391   0.21606   0.34259   0.00000  Uiso   1.00
N193   N     0.95561   0.10608   0.19287   0.00000  Uiso   1.00
H194   H     0.96431   0.11194   0.15979   0.00000  Uiso   1.00
H195   H     0.96330   0.07276   0.20106   0.00000  Uiso   1.00
N196   N     0.71141   0.22383   0.31020   0.00000  Uiso   1.00
H197   H     0.70332   0.21524   0.34288   0.00000  Uiso   1.00
H198   H     0.70348   0.25765   0.30462   0.00000  Uiso   1.00
C199   C     0.08676   0.49997   0.25000   0.00000  Uiso   1.00
C200   C     0.24660   0.49995   0.25004   0.00000  Uiso   1.00
C201   C     0.16663   0.49993   0.16418   0.00000  Uiso   1.00
C202   C     0.16591   0.50013   0.33603   0.00000  Uiso   1.00
C203   C     0.19309   0.35745   0.27719   0.00000  Uiso   1.00
C204   C     0.14023   0.64255   0.22283   0.00000  Uiso   1.00
C205   C     0.14024   0.35717   0.22282   0.00000  Uiso   1.00
C206   C     0.19308   0.64283   0.27720   0.00000  Uiso   1.00
C207   C     0.02166   0.46988   0.22144   0.00000  Uiso   1.00
C208   C     0.31181   0.52908   0.27954   0.00000  Uiso   1.00
C209   C     0.31178   0.46959   0.22169   0.00000  Uiso   1.00
C210   C     0.02172   0.52898   0.27963   0.00000  Uiso   1.00
C211   C     0.20382   0.49532   0.04695   0.00000  Uiso   1.00
C212   C     0.13814   0.46976   0.45291   0.00000  Uiso   1.00
C213   C     0.19137   0.52826   0.45390   0.00000  Uiso   1.00
C214   C     0.12820   0.50073   0.04787   0.00000  Uiso   1.00
C215   C     0.20503   0.49718   0.09305   0.00000  Uiso   1.00
C216   C     0.13645   0.47132   0.40680   0.00000  Uiso   1.00
C217   C     0.19127   0.52951   0.40748   0.00000  Uiso   1.00
C218   C     0.12854   0.50186   0.09434   0.00000  Uiso   1.00
C219   C     0.16696   0.49982   0.11655   0.00000  Uiso   1.00
C220   C     0.16411   0.50054   0.38402   0.00000  Uiso   1.00
C221   C     0.16571   0.49744   0.02449   0.00000  Uiso   1.00
C222   C     0.16528   0.49818   0.47628   0.00000  Uiso   1.00
C223   C     0.29078   0.49970   0.25026   0.00000  Uiso   1.00
C224   C     0.04264   0.49978   0.25021   0.00000  Uiso   1.00
H225   H     0.21423   0.37572   0.29893   0.00000  Uiso   1.00
H226   H     0.11909   0.62428   0.20109   0.00000  Uiso   1.00
H227   H     0.11913   0.37522   0.20106   0.00000  Uiso   1.00
H228   H     0.21419   0.62478   0.29897   0.00000  Uiso   1.00
H229   H     0.23278   0.49277   0.02851   0.00000  Uiso   1.00
H230   H     0.11772   0.44679   0.47061   0.00000  Uiso   1.00
H231   H     0.21173   0.55068   0.47262   0.00000  Uiso   1.00
H232   H     0.09893   0.50316   0.02993   0.00000  Uiso   1.00
N233   N     0.16667   0.61907   0.25000   0.00000  Uiso   1.00
N234   N     0.16667   0.38093   0.25000   0.00000  Uiso   1.00
O235   O     0.10559   0.53821   0.24999   0.00000  Uiso   1.00
O236   O     0.22774   0.46179   0.25000   0.00000  Uiso   1.00
O237   O     0.22774   0.53821   0.25000   0.00000  Uiso   1.00
O238   O     0.10559   0.46179   0.24999   0.00000  Uiso   1.00
O239   O     0.16666   0.53822   0.18453   0.00000  Uiso   1.00
O240   O     0.16667   0.46178   0.31547   0.00000  Uiso   1.00
O241   O     0.16667   0.53822   0.31547   0.00000  Uiso   1.00
O242   O     0.16666   0.46178   0.18453   0.00000  Uiso   1.00
Zn243  Zn    0.16667   0.55104   0.25000   0.00000  Uiso   1.00
Zn244  Zn    0.16667   0.44896   0.25000   0.00000  Uiso   1.00
O245   O     0.24373   0.49675   0.11333   0.00000  Uiso   1.00
H246   H     0.24090   0.50338   0.14557   0.00000  Uiso   1.00
O247   O     0.10711   0.44450   0.38565   0.00000  Uiso   1.00
H248   H     0.10035   0.45766   0.35619   0.00000  Uiso   1.00
O249   O     0.21785   0.55786   0.38441   0.00000  Uiso   1.00
H250   H     0.23482   0.57554   0.40601   0.00000  Uiso   1.00
O251   O     0.09213   0.50534   0.11874   0.00000  Uiso   1.00
H252   H     0.06809   0.50641   0.09791   0.00000  Uiso   1.00
N253   N     0.04455   0.44078   0.19167   0.00000  Uiso   1.00
H254   H     0.03600   0.44797   0.15878   0.00000  Uiso   1.00
H255   H     0.03693   0.40714   0.19858   0.00000  Uiso   1.00
N256   N     0.28891   0.55757   0.30986   0.00000  Uiso   1.00
H257   H     0.29679   0.59132   0.30386   0.00000  Uiso   1.00
H258   H     0.29725   0.54939   0.34259   0.00000  Uiso   1.00
N259   N     0.28894   0.43942   0.19287   0.00000  Uiso   1.00
H260   H     0.29764   0.44527   0.15979   0.00000  Uiso   1.00
H261   H     0.29664   0.40610   0.20106   0.00000  Uiso   1.00
N262   N     0.04474   0.55717   0.31020   0.00000  Uiso   1.00
H263   H     0.03665   0.54858   0.34288   0.00000  Uiso   1.00
H264   H     0.03682   0.59099   0.30462   0.00000  Uiso   1.00
C265   C     0.42010   0.49997   0.25000   0.00000  Uiso   1.00
C266   C     0.57994   0.49995   0.25004   0.00000  Uiso   1.00
C267   C     0.49996   0.49993   0.16418   0.00000  Uiso   1.00
C268   C     0.49925   0.50013   0.33603   0.00000  Uiso   1.00
C269   C     0.52643   0.35745   0.27719   0.00000  Uiso   1.00
C270   C     0.47356   0.64255   0.22283   0.00000  Uiso   1.00
C271   C     0.47357   0.35717   0.22282   0.00000  Uiso   1.00
C272   C     0.52642   0.64283   0.27720   0.00000  Uiso   1.00
C273   C     0.35499   0.46988   0.22144   0.00000  Uiso   1.00
C274   C     0.64514   0.52908   0.27954   0.00000  Uiso   1.00
C275   C     0.64511   0.46959   0.22169   0.00000  Uiso   1.00
C276   C     0.35506   0.52898   0.27963   0.00000  Uiso   1.00
C277   C     0.53715   0.49532   0.04695   0.00000  Uiso   1.00
C278   C     0.47147   0.46976   0.45291   0.00000  Uiso   1.00
C279   C     0.52471   0.52826   0.45390   0.00000  Uiso   1.00
C280   C     0.46153   0.50073   0.04787   0.00000  Uiso   1.00
C281   C     0.53836   0.49718   0.09305   0.00000  Uiso   1.00
C282   C     0.46978   0.47132   0.40680   0.00000  Uiso   1.00
C283   C     0.52461   0.52951   0.40748   0.00000  Uiso   1.00
C284   C     0.46188   0.50186   0.09434   0.00000  Uiso   1.00
C285   C     0.50029   0.49982   0.11655   0.00000  Uiso   1.00
C286   C     0.49744   0.50054   0.38402   0.00000  Uiso   1.00
C287   C     0.49905   0.49744   0.02449   0.00000  Uiso   1.00
C288   C     0.49861   0.49818   0.47628   0.00000  Uiso   1.00
C289   C     0.62411   0.49970   0.25026   0.00000  Uiso   1.00
C290   C     0.37598   0.49978   0.25021   0.00000  Uiso   1.00
H291   H     0.54756   0.37572   0.29893   0.00000  Uiso   1.00
H292   H     0.45242   0.62428   0.20109   0.00000  Uiso   1.00
H293   H     0.45246   0.37522   0.20106   0.00000  Uiso   1.00
H294   H     0.54752   0.62478   0.29897   0.00000  Uiso   1.00
H295   H     0.56612   0.49277   0.02851   0.00000  Uiso   1.00
H296   H     0.45105   0.44679   0.47061   0.00000  Uiso   1.00
H297   H     0.54506   0.55068   0.47262   0.00000  Uiso   1.00
H298   H     0.43227   0.50316   0.02993   0.00000  Uiso   1.00
N299   N     0.50000   0.61907   0.25000   0.00000  Uiso   1.00
N300   N     0.50000   0.38093   0.25000   0.00000  Uiso   1.00
O301   O     0.43892   0.53821   0.24999   0.00000  Uiso   1.00
O302   O     0.56108   0.46179   0.25000   0.00000  Uiso   1.00
O303   O     0.56108   0.53821   0.25000   0.00000  Uiso   1.00
O304   O     0.43892   0.46179   0.24999   0.00000  Uiso   1.00
O305   O     0.50000   0.53822   0.18453   0.00000  Uiso   1.00
O306   O     0.50000   0.46178   0.31547   0.00000  Uiso   1.00
O307   O     0.50000   0.53822   0.31547   0.00000  Uiso   1.00
O308   O     0.50000   0.46178   0.18453   0.00000  Uiso   1.00
Zn309  Zn    0.50000   0.55104   0.25000   0.00000  Uiso   1.00
Zn310  Zn    0.50000   0.44896   0.25000   0.00000  Uiso   1.00
O311   O     0.57706   0.49675   0.11333   0.00000  Uiso   1.00
H312   H     0.57424   0.50338   0.14557   0.00000  Uiso   1.00
O313   O     0.44045   0.44450   0.38565   0.00000  Uiso   1.00
H314   H     0.43368   0.45766   0.35619   0.00000  Uiso   1.00
O315   O     0.55118   0.55786   0.38441   0.00000  Uiso   1.00
H316   H     0.56815   0.57554   0.40601   0.00000  Uiso   1.00
O317   O     0.42546   0.50534   0.11874   0.00000  Uiso   1.00
H318   H     0.40143   0.50641   0.09791   0.00000  Uiso   1.00
N319   N     0.37789   0.44078   0.19167   0.00000  Uiso   1.00
H320   H     0.36934   0.44797   0.15878   0.00000  Uiso   1.00
H321   H     0.37026   0.40714   0.19858   0.00000  Uiso   1.00
N322   N     0.62225   0.55757   0.30986   0.00000  Uiso   1.00
H323   H     0.63012   0.59132   0.30386   0.00000  Uiso   1.00
H324   H     0.63058   0.54939   0.34259   0.00000  Uiso   1.00
N325   N     0.62228   0.43942   0.19287   0.00000  Uiso   1.00
H326   H     0.63098   0.44527   0.15979   0.00000  Uiso   1.00
H327   H     0.62997   0.40610   0.20106   0.00000  Uiso   1.00
N328   N     0.37807   0.55717   0.31020   0.00000  Uiso   1.00
H329   H     0.36998   0.54858   0.34288   0.00000  Uiso   1.00
H330   H     0.37015   0.59099   0.30462   0.00000  Uiso   1.00
C331   C     0.75343   0.49997   0.25000   0.00000  Uiso   1.00
C332   C     0.91327   0.49995   0.25004   0.00000  Uiso   1.00
C333   C     0.83329   0.49993   0.16418   0.00000  Uiso   1.00
C334   C     0.83258   0.50013   0.33603   0.00000  Uiso   1.00
C335   C     0.85976   0.35745   0.27719   0.00000  Uiso   1.00
C336   C     0.80690   0.64255   0.22283   0.00000  Uiso   1.00
C337   C     0.80690   0.35717   0.22282   0.00000  Uiso   1.00
C338   C     0.85975   0.64283   0.27720   0.00000  Uiso   1.00
C339   C     0.68832   0.46988   0.22144   0.00000  Uiso   1.00
C340   C     0.97847   0.52908   0.27954   0.00000  Uiso   1.00
C341   C     0.97844   0.46959   0.22169   0.00000  Uiso   1.00
C342   C     0.68839   0.52898   0.27963   0.00000  Uiso   1.00
C343   C     0.87048   0.49532   0.04695   0.00000  Uiso   1.00
C344   C     0.80481   0.46976   0.45291   0.00000  Uiso   1.00
C345   C     0.85804   0.52826   0.45390   0.00000  Uiso   1.00
C346   C     0.79486   0.50073   0.04787   0.00000  Uiso   1.00
C347   C     0.87169   0.49718   0.09305   0.00000  Uiso   1.00
C348   C     0.80311   0.47132   0.40680   0.00000  Uiso   1.00
C349   C     0.85794   0.52951   0.40748   0.00000  Uiso   1.00
C350   C     0.79521   0.50186   0.09434   0.00000  Uiso   1.00
C351   C     0.83363   0.49982   0.11655   0.00000  Uiso   1.00
C352   C     0.83078   0.50054   0.38402   0.00000  Uiso   1.00
C353   C     0.83238   0.49744   0.02449   0.00000  Uiso   1.00
C354   C     0.83194   0.49818   0.47628   0.00000  Uiso   1.00
C355   C     0.95745   0.49970   0.25026   0.00000  Uiso   1.00
C356   C     0.70931   0.49978   0.25021   0.00000  Uiso   1.00
H357   H     0.88089   0.37572   0.29893   0.00000  Uiso   1.00
H358   H     0.78576   0.62428   0.20109   0.00000  Uiso   1.00
H359   H     0.78579   0.37522   0.20106   0.00000  Uiso   1.00
H360   H     0.88086   0.62478   0.29897   0.00000  Uiso   1.00
H361   H     0.89945   0.49277   0.02851   0.00000  Uiso   1.00
H362   H     0.78439   0.44679   0.47061   0.00000  Uiso   1.00
H363   H     0.87839   0.55068   0.47262   0.00000  Uiso   1.00
H364   H     0.76560   0.50316   0.02993   0.00000  Uiso   1.00
N365   N     0.83333   0.61907   0.25000   0.00000  Uiso   1.00
N366   N     0.83333   0.38093   0.25000   0.00000  Uiso   1.00
O367   O     0.77226   0.53821   0.24999   0.00000  Uiso   1.00
O368   O     0.89441   0.46179   0.25000   0.00000  Uiso   1.00
O369   O     0.89441   0.53821   0.25000   0.00000  Uiso   1.00
O370   O     0.77226   0.46179   0.24999   0.00000  Uiso   1.00
O371   O     0.83333   0.53822   0.18453   0.00000  Uiso   1.00
O372   O     0.83334   0.46178   0.31547   0.00000  Uiso   1.00
O373   O     0.83334   0.53822   0.31547   0.00000  Uiso   1.00
O374   O     0.83333   0.46178   0.18453   0.00000  Uiso   1.00
Zn375  Zn    0.83333   0.55104   0.25000   0.00000  Uiso   1.00
Zn376  Zn    0.83333   0.44896   0.25000   0.00000  Uiso   1.00
O377   O     0.91040   0.49675   0.11333   0.00000  Uiso   1.00
H378   H     0.90757   0.50338   0.14557   0.00000  Uiso   1.00
O379   O     0.77378   0.44450   0.38565   0.00000  Uiso   1.00
H380   H     0.76701   0.45766   0.35619   0.00000  Uiso   1.00
O381   O     0.88452   0.55786   0.38441   0.00000  Uiso   1.00
H382   H     0.90148   0.57554   0.40601   0.00000  Uiso   1.00
O383   O     0.75879   0.50534   0.11874   0.00000  Uiso   1.00
H384   H     0.73476   0.50641   0.09791   0.00000  Uiso   1.00
N385   N     0.71122   0.44078   0.19167   0.00000  Uiso   1.00
H386   H     0.70267   0.44797   0.15878   0.00000  Uiso   1.00
H387   H     0.70360   0.40714   0.19858   0.00000  Uiso   1.00
N388   N     0.95558   0.55757   0.30986   0.00000  Uiso   1.00
H389   H     0.96345   0.59132   0.30386   0.00000  Uiso   1.00
H390   H     0.96391   0.54939   0.34259   0.00000  Uiso   1.00
N391   N     0.95561   0.43942   0.19287   0.00000  Uiso   1.00
H392   H     0.96431   0.44527   0.15979   0.00000  Uiso   1.00
H393   H     0.96330   0.40610   0.20106   0.00000  Uiso   1.00
N394   N     0.71141   0.55717   0.31020   0.00000  Uiso   1.00
H395   H     0.70332   0.54858   0.34288   0.00000  Uiso   1.00
H396   H     0.70348   0.59099   0.30462   0.00000  Uiso   1.00
C397   C     0.08676   0.83330   0.25000   0.00000  Uiso   1.00
C398   C     0.24660   0.83329   0.25004   0.00000  Uiso   1.00
C399   C     0.16663   0.83326   0.16418   0.00000  Uiso   1.00
C400   C     0.16591   0.83347   0.33603   0.00000  Uiso   1.00
C401   C     0.19309   0.69078   0.27719   0.00000  Uiso   1.00
C402   C     0.14023   0.97589   0.22283   0.00000  Uiso   1.00
C403   C     0.14024   0.69051   0.22282   0.00000  Uiso   1.00
C404   C     0.19308   0.97616   0.27720   0.00000  Uiso   1.00
C405   C     0.02166   0.80322   0.22144   0.00000  Uiso   1.00
C406   C     0.31181   0.86241   0.27954   0.00000  Uiso   1.00
C407   C     0.31178   0.80292   0.22169   0.00000  Uiso   1.00
C408   C     0.02172   0.86232   0.27963   0.00000  Uiso   1.00
C409   C     0.20382   0.82865   0.04695   0.00000  Uiso   1.00
C410   C     0.13814   0.80309   0.45291   0.00000  Uiso   1.00
C411   C     0.19137   0.86159   0.45390   0.00000  Uiso   1.00
C412   C     0.12820   0.83406   0.04787   0.00000  Uiso   1.00
C413   C     0.20503   0.83051   0.09305   0.00000  Uiso   1.00
C414   C     0.13645   0.80466   0.40680   0.00000  Uiso   1.00
C415   C     0.19127   0.86284   0.40748   0.00000  Uiso   1.00
C416   C     0.12854   0.83519   0.09434   0.00000  Uiso   1.00
C417   C     0.16696   0.83315   0.11655   0.00000  Uiso   1.00
C418   C     0.16411   0.83388   0.38402   0.00000  Uiso   1.00
C419   C     0.16571   0.83077   0.02449   0.00000  Uiso   1.00
C420   C     0.16528   0.83151   0.47628   0.00000  Uiso   1.00
C421   C     0.29078   0.83304   0.25026   0.00000  Uiso   1.00
C422   C     0.04264   0.83311   0.25021   0.00000  Uiso   1.00
H423   H     0.21423   0.70905   0.29893   0.00000  Uiso   1.00
H424   H     0.11909   0.95762   0.20109   0.00000  Uiso   1.00
H425   H     0.11913   0.70855   0.20106   0.00000  Uiso   1.00
H426   H     0.21419   0.95811   0.29897   0.00000  Uiso   1.00
H427   H     0.23278   0.82610   0.02851   0.00000  Uiso   1.00
H428   H     0.11772   0.78012   0.47061   0.00000  Uiso   1.00
H429   H     0.21173   0.88402   0.47262   0.00000  Uiso   1.00
H430   H     0.09893   0.83649   0.02993   0.00000  Uiso   1.00
N431   N     0.16667   0.95240   0.25000   0.00000  Uiso   1.00
N432   N     0.16667   0.71427   0.25000   0.00000  Uiso   1.00
O433   O     0.10559   0.87154   0.24999   0.00000  Uiso   1.00
O434   O     0.22774   0.79513   0.25000   0.00000  Uiso   1.00
O435   O     0.22774   0.87154   0.25000   0.00000  Uiso   1.00
O436   O     0.10559   0.79513   0.24999   0.00000  Uiso   1.00
O437   O     0.16666   0.87155   0.18453   0.00000  Uiso   1.00
O438   O     0.16667   0.79511   0.31547   0.00000  Uiso   1.00
O439   O     0.16667   0.87155   0.31547   0.00000  Uiso   1.00
O440   O     0.16666   0.79511   0.18453   0.00000  Uiso   1.00
Zn441  Zn    0.16667   0.88437   0.25000   0.00000  Uiso   1.00
Zn442  Zn    0.16667   0.78229   0.25000   0.00000  Uiso   1.00
O443   O     0.24373   0.83008   0.11333   0.00000  Uiso   1.00
H444   H     0.24090   0.83672   0.14557   0.00000  Uiso   1.00
O445   O     0.10711   0.77783   0.38565   0.00000  Uiso   1.00
H446   H     0.10035   0.79100   0.35619   0.00000  Uiso   1.00
O447   O     0.21785   0.89119   0.38441   0.00000  Uiso   1.00
H448   H     0.23482   0.90888   0.40601   0.00000  Uiso   1.00
O449   O     0.09213   0.83868   0.11874   0.00000  Uiso   1.00
H450   H     0.06809   0.83975   0.09791   0.00000  Uiso   1.00
N451   N     0.04455   0.77411   0.19167   0.00000  Uiso   1.00
H452   H     0.03600   0.78130   0.15878   0.00000  Uiso   1.00
H453   H     0.03693   0.74047   0.19858   0.00000  Uiso   1.00
N454   N     0.28891   0.89090   0.30986   0.00000  Uiso   1.00
H455   H     0.29679   0.92465   0.30386   0.00000  Uiso   1.00
H456   H     0.29725   0.88273   0.34259   0.00000  Uiso   1.00
N457   N     0.28894   0.77275   0.19287   0.00000  Uiso   1.00
H458   H     0.29764   0.77860   0.15979   0.00000  Uiso   1.00
H459   H     0.29664   0.73943   0.20106   0.00000  Uiso   1.00
N460   N     0.04474   0.89050   0.31020   0.00000  Uiso   1.00
H461   H     0.03665   0.88191   0.34288   0.00000  Uiso   1.00
H462   H     0.03682   0.92432   0.30462   0.00000  Uiso   1.00
C463   C     0.42010   0.83330   0.25000   0.00000  Uiso   1.00
C464   C     0.57994   0.83329   0.25004   0.00000  Uiso   1.00
C465   C     0.49996   0.83326   0.16418   0.00000  Uiso   1.00
C466   C     0.49925   0.83347   0.33603   0.00000  Uiso   1.00
C467   C     0.52643   0.69078   0.27719   0.00000  Uiso   1.00
C468   C     0.47356   0.97589   0.22283   0.00000  Uiso   1.00
C469   C     0.47357   0.69051   0.22282   0.00000  Uiso   1.00
C470   C     0.52642   0.97616   0.27720   0.00000  Uiso   1.00
C471   C     0.35499   0.80322   0.22144   0.00000  Uiso   1.00
C472   C     0.64514   0.86241   0.27954   0.00000  Uiso   1.00
C473   C     0.64511   0.80292   0.22169   0.00000  Uiso   1.00
C474   C     0.35506   0.86232   0.27963   0.00000  Uiso   1.00
C475   C     0.53715   0.82865   0.04695   0.00000  Uiso   1.00
C476   C     0.47147   0.80309   0.45291   0.00000  Uiso   1.00
C477   C     0.52471   0.86159   0.45390   0.00000  Uiso   1.00
C478   C     0.46153   0.83406   0.04787   0.00000  Uiso   1.00
C479   C     0.53836   0.83051   0.09305   0.00000  Uiso   1.00
C480   C     0.46978   0.80466   0.40680   0.00000  Uiso   1.00
C481   C     0.52461   0.86284   0.40748   0.00000  Uiso   1.00
C482   C     0.46188   0.83519   0.09434   0.00000  Uiso   1.00
C483   C     0.50029   0.83315   0.11655   0.00000  Uiso   1.00
C484   C     0.49744   0.83388   0.38402   0.00000  Uiso   1.00
C485   C     0.49905   0.83077   0.02449   0.00000  Uiso   1.00
C486   C     0.49861   0.83151   0.47628   0.00000  Uiso   1.00
C487   C     0.62411   0.83304   0.25026   0.00000  Uiso   1.00
C488   C     0.37598   0.83311   0.25021   0.00000  Uiso   1.00
H489   H     0.54756   0.70905   0.29893   0.00000  Uiso   1.00
H490   H     0.45242   0.95762   0.20109   0.00000  Uiso   1.00
H491   H     0.45246   0.70855   0.20106   0.00000  Uiso   1.00
H492   H     0.54752   0.95811   0.29897   0.00000  Uiso   1.00
H493   H     0.56612   0.82610   0.02851   0.00000  Uiso   1.00
H494   H     0.45105   0.78012   0.47061   0.00000  Uiso   1.00
H495   H     0.54506   0.88402   0.47262   0.00000  Uiso   1.00
H496   H     0.43227   0.83649   0.02993   0.00000  Uiso   1.00
N497   N     0.50000   0.95240   0.25000   0.00000  Uiso   1.00
N498   N     0.50000   0.71427   0.25000   0.00000  Uiso   1.00
O499   O     0.43892   0.87154   0.24999   0.00000  Uiso   1.00
O500   O     0.56108   0.79513   0.25000   0.00000  Uiso   1.00
O501   O     0.56108   0.87154   0.25000   0.00000  Uiso   1.00
O502   O     0.43892   0.79513   0.24999   0.00000  Uiso   1.00
O503   O     0.50000   0.87155   0.18453   0.00000  Uiso   1.00
O504   O     0.50000   0.79511   0.31547   0.00000  Uiso   1.00
O505   O     0.50000   0.87155   0.31547   0.00000  Uiso   1.00
O506   O     0.50000   0.79511   0.18453   0.00000  Uiso   1.00
Zn507  Zn    0.50000   0.88437   0.25000   0.00000  Uiso   1.00
Zn508  Zn    0.50000   0.78229   0.25000   0.00000  Uiso   1.00
O509   O     0.57706   0.83008   0.11333   0.00000  Uiso   1.00
H510   H     0.57424   0.83672   0.14557   0.00000  Uiso   1.00
O511   O     0.44045   0.77783   0.38565   0.00000  Uiso   1.00
H512   H     0.43368   0.79100   0.35619   0.00000  Uiso   1.00
O513   O     0.55118   0.89119   0.38441   0.00000  Uiso   1.00
H514   H     0.56815   0.90888   0.40601   0.00000  Uiso   1.00
O515   O     0.42546   0.83868   0.11874   0.00000  Uiso   1.00
H516   H     0.40143   0.83975   0.09791   0.00000  Uiso   1.00
N517   N     0.37789   0.77411   0.19167   0.00000  Uiso   1.00
H518   H     0.36934   0.78130   0.15878   0.00000  Uiso   1.00
H519   H     0.37026   0.74047   0.19858   0.00000  Uiso   1.00
N520   N     0.62225   0.89090   0.30986   0.00000  Uiso   1.00
H521   H     0.63012   0.92465   0.30386   0.00000  Uiso   1.00
H522   H     0.63058   0.88273   0.34259   0.00000  Uiso   1.00
N523   N     0.62228   0.77275   0.19287   0.00000  Uiso   1.00
H524   H     0.63098   0.77860   0.15979   0.00000  Uiso   1.00
H525   H     0.62997   0.73943   0.20106   0.00000  Uiso   1.00
N526   N     0.37807   0.89050   0.31020   0.00000  Uiso   1.00
H527   H     0.36998   0.88191   0.34288   0.00000  Uiso   1.00
H528   H     0.37015   0.92432   0.30462   0.00000  Uiso   1.00
C529   C     0.75343   0.83330   0.25000   0.00000  Uiso   1.00
C530   C     0.91327   0.83329   0.25004   0.00000  Uiso   1.00
C531   C     0.83329   0.83326   0.16418   0.00000  Uiso   1.00
C532   C     0.83258   0.83347   0.33603   0.00000  Uiso   1.00
C533   C     0.85976   0.69078   0.27719   0.00000  Uiso   1.00
C534   C     0.80690   0.97589   0.22283   0.00000  Uiso   1.00
C535   C     0.80690   0.69051   0.22282   0.00000  Uiso   1.00
C536   C     0.85975   0.97616   0.27720   0.00000  Uiso   1.00
C537   C     0.68832   0.80322   0.22144   0.00000  Uiso   1.00
C538   C     0.97847   0.86241   0.27954   0.00000  Uiso   1.00
C539   C     0.97844   0.80292   0.22169   0.00000  Uiso   1.00
C540   C     0.68839   0.86232   0.27963   0.00000  Uiso   1.00
C541   C     0.87048   0.82865   0.04695   0.00000  Uiso   1.00
C542   C     0.80481   0.80309   0.45291   0.00000  Uiso   1.00
C543   C     0.85804   0.86159   0.45390   0.00000  Uiso   1.00
C544   C     0.79486   0.83406   0.04787   0.00000  Uiso   1.00
C545   C     0.87169   0.83051   0.09305   0.00000  Uiso   1.00
C546   C     0.80311   0.80466   0.40680   0.00000  Uiso   1.00
C547   C     0.85794   0.86284   0.40748   0.00000  Uiso   1.00
C548   C     0.79521   0.83519   0.09434   0.00000  Uiso   1.00
C549   C     0.83363   0.83315   0.11655   0.00000  Uiso   1.00
C550   C     0.83078   0.83388   0.38402   0.00000  Uiso   1.00
C551   C     0.83238   0.83077   0.02449   0.00000  Uiso   1.00
C552   C     0.83194   0.83151   0.47628   0.00000  Uiso   1.00
C553   C     0.95745   0.83304   0.25026   0.00000  Uiso   1.00
C554   C     0.70931   0.83311   0.25021   0.00000  Uiso   1.00
H555   H     0.88089   0.70905   0.29893   0.00000  Uiso   1.00
H556   H     0.78576   0.95762   0.20109   0.00000  Uiso   1.00
H557   H     0.78579   0.70855   0.20106   0.00000  Uiso   1.00
H558   H     0.88086   0.95811   0.29897   0.00000  Uiso   1.00
H559   H     0.89945   0.82610   0.02851   0.00000  Uiso   1.00
H560   H     0.78439   0.78012   0.47061   0.00000  Uiso   1.00
H561   H     0.87839   0.88402   0.47262   0.00000  Uiso   1.00
H562   H     0.76560   0.83649   0.02993   0.00000  Uiso   1.00
N563   N     0.83333   0.95240   0.25000   0.00000  Uiso   1.00
N564   N     0.83333   0.71427   0.25000   0.00000  Uiso   1.00
O565   O     0.77226   0.87154   0.24999   0.00000  Uiso   1.00
O566   O     0.89441   0.79513   0.25000   0.00000  Uiso   1.00
O567   O     0.89441   0.87154   0.25000   0.00000  Uiso   1.00
O568   O     0.77226   0.79513   0.24999   0.00000  Uiso   1.00
O569   O     0.83333   0.87155   0.18453   0.00000  Uiso   1.00
O570   O     0.83334   0.79511   0.31547   0.00000  Uiso   1.00
O571   O     0.83334   0.87155   0.31547   0.00000  Uiso   1.00
O572   O     0.83333   0.79511   0.18453   0.00000  Uiso   1.00
Zn573  Zn    0.83333   0.88437   0.25000   0.00000  Uiso   1.00
Zn574  Zn    0.83333   0.78229   0.25000   0.00000  Uiso   1.00
O575   O     0.91040   0.83008   0.11333   0.00000  Uiso   1.00
H576   H     0.90757   0.83672   0.14557   0.00000  Uiso   1.00
O577   O     0.77378   0.77783   0.38565   0.00000  Uiso   1.00
H578   H     0.76701   0.79100   0.35619   0.00000  Uiso   1.00
O579   O     0.88452   0.89119   0.38441   0.00000  Uiso   1.00
H580   H     0.90148   0.90888   0.40601   0.00000  Uiso   1.00
O581   O     0.75879   0.83868   0.11874   0.00000  Uiso   1.00
H582   H     0.73476   0.83975   0.09791   0.00000  Uiso   1.00
N583   N     0.71122   0.77411   0.19167   0.00000  Uiso   1.00
H584   H     0.70267   0.78130   0.15878   0.00000  Uiso   1.00
H585   H     0.70360   0.74047   0.19858   0.00000  Uiso   1.00
N586   N     0.95558   0.89090   0.30986   0.00000  Uiso   1.00
H587   H     0.96345   0.92465   0.30386   0.00000  Uiso   1.00
H588   H     0.96391   0.88273   0.34259   0.00000  Uiso   1.00
N589   N     0.95561   0.77275   0.19287   0.00000  Uiso   1.00
H590   H     0.96431   0.77860   0.15979   0.00000  Uiso   1.00
H591   H     0.96330   0.73943   0.20106   0.00000  Uiso   1.00
N592   N     0.71141   0.89050   0.31020   0.00000  Uiso   1.00
H593   H     0.70332   0.88191   0.34288   0.00000  Uiso   1.00
H594   H     0.70348   0.92432   0.30462   0.00000  Uiso   1.00
C595   C     0.08676   0.16664   0.75000   0.00000  Uiso   1.00
C596   C     0.24660   0.16662   0.75004   0.00000  Uiso   1.00
C597   C     0.16663   0.16660   0.66418   0.00000  Uiso   1.00
C598   C     0.16591   0.16680   0.83603   0.00000  Uiso   1.00
C599   C     0.19309   0.02411   0.77719   0.00000  Uiso   1.00
C600   C     0.14023   0.30922   0.72283   0.00000  Uiso   1.00
C601   C     0.14024   0.02384   0.72282   0.00000  Uiso   1.00
C602   C     0.19308   0.30949   0.77720   0.00000  Uiso   1.00
C603   C     0.02166   0.13655   0.72144   0.00000  Uiso   1.00
C604   C     0.31181   0.19574   0.77954   0.00000  Uiso   1.00
C605   C     0.31178   0.13626   0.72169   0.00000  Uiso   1.00
C606   C     0.02172   0.19565   0.77963   0.00000  Uiso   1.00
C607   C     0.20382   0.16199   0.54695   0.00000  Uiso   1.00
C608   C     0.13814   0.13643   0.95291   0.00000  Uiso   1.00
C609   C     0.19137   0.19493   0.95390   0.00000  Uiso   1.00
C610   C     0.12820   0.16740   0.54787   0.00000  Uiso   1.00
C611   C     0.20503   0.16385   0.59305   0.00000  Uiso   1.00
C612   C     0.13645   0.13799   0.90680   0.00000  Uiso   1.00
C613   C     0.19127   0.19618   0.90748   0.00000  Uiso   1.00
C614   C     0.12854   0.16853   0.59434   0.00000  Uiso   1.00
C615   C     0.16696   0.16649   0.61655   0.00000  Uiso   1.00
C616   C     0.16411   0.16721   0.88402   0.00000  Uiso   1.00
C617   C     0.16571   0.16411   0.52449   0.00000  Uiso   1.00
C618   C     0.16528   0.16485   0.97628   0.00000  Uiso   1.00
C619   C     0.29078   0.16637   0.75026   0.00000  Uiso   1.00
C620   C     0.04264   0.16645   0.75021   0.00000  Uiso   1.00
H621   H     0.21423   0.04238   0.79893   0.00000  Uiso   1.00
H622   H     0.11909   0.29095   0.70109   0.00000  Uiso   1.00
H623   H     0.11913   0.04189   0.70106   0.00000  Uiso   1.00
H624   H     0.21419   0.29144   0.79897   0.00000  Uiso   1.00
H625   H     0.23278   0.15943   0.52851   0.00000  Uiso   1.00
H626   H     0.11772   0.11345   0.97061   0.00000  Uiso   1.00
H627   H     0.21173   0.21735   0.97262   0.00000  Uiso   1.00
H628   H     0.09893   0.16982   0.52993   0.00000  Uiso   1.00
N629   N     0.16667   0.28573   0.75000   0.00000  Uiso   1.00
N630   N     0.16667   0.04760   0.75000   0.00000  Uiso   1.00
O631   O     0.10559   0.20487   0.74999   0.00000  Uiso   1.00
O632   O     0.22774   0.12846   0.75000   0.00000  Uiso   1.00
O633   O     0.22774   0.20487   0.75000   0.00000  Uiso   1.00
O634   O     0.10559   0.12846   0.74999   0.00000  Uiso   1.00
O635   O     0.16666   0.20489   0.68453   0.00000  Uiso   1.00
O636   O     0.16667   0.12845   0.81547   0.00000  Uiso   1.00
O637   O     0.16667   0.20489   0.81547   0.00000  Uiso   1.00
O638   O     0.16666   0.12845   0.68453   0.00000  Uiso   1.00
Zn639  Zn    0.16667   0.21771   0.75000   0.00000  Uiso   1.00
Zn640  Zn    0.16667   0.11563   0.75000   0.00000  Uiso   1.00
O641   O     0.24373   0.16341   0.61333   0.00000  Uiso   1.00
H642   H     0.24090   0.17005   0.64557   0.00000  Uiso   1.00
O643   O     0.10711   0.11117   0.88565   0.00000  Uiso   1.00
H644   H     0.10035   0.12433   0.85619   0.00000  Uiso   1.00
O645   O     0.21785   0.22453   0.88441   0.00000  Uiso   1.00
H646   H     0.23482   0.24221   0.90601   0.00000  Uiso   1.00
O647   O     0.09213   0.17201   0.61874   0.00000  Uiso   1.00
H648   H     0.06809   0.17308   0.59791   0.00000  Uiso   1.00
N649   N     0.04455   0.10745   0.69167   0.00000  Uiso   1.00
H650   H     0.03600   0.11464   0.65878   0.00000  Uiso   1.00
H651   H     0.03693   0.07380   0.69858   0.00000  Uiso   1.00
N652   N     0.28891   0.22423   0.80986   0.00000  Uiso   1.00
H653   H     0.29679   0.25799   0.80386   0.00000  Uiso   1.00
H654   H     0.29725   0.21606   0.84259   0.00000  Uiso   1.00
N655   N     0.28894   0.10608   0.69287   0.00000  Uiso   1.00
H656   H     0.29764   0.11194   0.65979   0.00000  Uiso   1.00
H657   H     0.29664   0.07276   0.70106   0.00000  Uiso   1.00
N658   N     0.04474   0.22383   0.81020   0.00000  Uiso   1.00
H659   H     0.03665   0.21524   0.84288   0.00000  Uiso   1.00
H660   H     0.03682   0.25765   0.80462   0.00000  Uiso   1.00
C661   C     0.42010   0.16664   0.75000   0.00000  Uiso   1.00
C662   C     0.57994   0.16662   0.75004   0.00000  Uiso   1.00
C663   C     0.49996   0.16660   0.66418   0.00000  Uiso   1.00
C664   C     0.49925   0.16680   0.83603   0.00000  Uiso   1.00
C665   C     0.52643   0.02411   0.77719   0.00000  Uiso   1.00
C666   C     0.47356   0.30922   0.72283   0.00000  Uiso   1.00
C667   C     0.47357   0.02384   0.72282   0.00000  Uiso   1.00
C668   C     0.52642   0.30949   0.77720   0.00000  Uiso   1.00
C669   C     0.35499   0.13655   0.72144   0.00000  Uiso   1.00
C670   C     0.64514   0.19574   0.77954   0.00000  Uiso   1.00
C671   C     0.64511   0.13626   0.72169   0.00000  Uiso   1.00
C672   C     0.35506   0.19565   0.77963   0.00000  Uiso   1.00
C673   C     0.53715   0.16199   0.54695   0.00000  Uiso   1.00
C674   C     0.47147   0.13643   0.95291   0.00000  Uiso   1.00
C675   C     0.52471   0.19493   0.95390   0.00000  Uiso   1.00
C676   C     0.46153   0.16740   0.54787   0.00000  Uiso   1.00
C677   C     0.53836   0.16385   0.59305   0.00000  Uiso   1.00
C678   C     0.46978   0.13799   0.90680   0.00000  Uiso   1.00
C679   C     0.52461   0.19618   0.90748   0.00000  Uiso   1.00
C680   C     0.46188   0.16853   0.59434   0.00000  Uiso   1.00
C681   C     0.50029   0.16649   0.61655   0.00000  Uiso   1.00
C682   C     0.49744   0.16721   0.88402   0.00000  Uiso   1.00
C683   C     0.49905   0.16411   0.52449   0.00000  Uiso   1.00
C684   C     0.49861   0.16485   0.97628   0.00000  Uiso   1.00
C685   C     0.62411   0.16637   0.75026   0.00000  Uiso   1.00
C686   C     0.37598   0.16645   0.75021   0.00000  Uiso   1.00
H687   H     0.54756   0.04238   0.79893   0.00000  Uiso   1.00
H688   H     0.45242   0.29095   0.70109   0.00000  Uiso   1.00
H689   H     0.45246   0.04189   0.70106   0.00000  Uiso   1.00
H690   H     0.54752   0.29144   0.79897   0.00000  Uiso   1.00
H691   H     0.56612   0.15943   0.52851   0.00000  Uiso   1.00
H692   H     0.45105   0.11345   0.97061   0.00000  Uiso   1.00
H693   H     0.54506   0.21735   0.97262   0.00000  Uiso   1.00
H694   H     0.43227   0.16982   0.52993   0.00000  Uiso   1.00
N695   N     0.50000   0.28573   0.75000   0.00000  Uiso   1.00
N696   N     0.50000   0.04760   0.75000   0.00000  Uiso   1.00
O697   O     0.43892   0.20487   0.74999   0.00000  Uiso   1.00
O698   O     0.56108   0.12846   0.75000   0.00000  Uiso   1.00
O699   O     0.56108   0.20487   0.75000   0.00000  Uiso   1.00
O700   O     0.43892   0.12846   0.74999   0.00000  Uiso   1.00
O701   O     0.50000   0.20489   0.68453   0.00000  Uiso   1.00
O702   O     0.50000   0.12845   0.81547   0.00000  Uiso   1.00
O703   O     0.50000   0.20489   0.81547   0.00000  Uiso   1.00
O704   O     0.50000   0.12845   0.68453   0.00000  Uiso   1.00
Zn705  Zn    0.50000   0.21771   0.75000   0.00000  Uiso   1.00
Zn706  Zn    0.50000   0.11563   0.75000   0.00000  Uiso   1.00
O707   O     0.57706   0.16341   0.61333   0.00000  Uiso   1.00
H708   H     0.57424   0.17005   0.64557   0.00000  Uiso   1.00
O709   O     0.44045   0.11117   0.88565   0.00000  Uiso   1.00
H710   H     0.43368   0.12433   0.85619   0.00000  Uiso   1.00
O711   O     0.55118   0.22453   0.88441   0.00000  Uiso   1.00
H712   H     0.56815   0.24221   0.90601   0.00000  Uiso   1.00
O713   O     0.42546   0.17201   0.61874   0.00000  Uiso   1.00
H714   H     0.40143   0.17308   0.59791   0.00000  Uiso   1.00
N715   N     0.37789   0.10745   0.69167   0.00000  Uiso   1.00
H716   H     0.36934   0.11464   0.65878   0.00000  Uiso   1.00
H717   H     0.37026   0.07380   0.69858   0.00000  Uiso   1.00
N718   N     0.62225   0.22423   0.80986   0.00000  Uiso   1.00
H719   H     0.63012   0.25799   0.80386   0.00000  Uiso   1.00
H720   H     0.63058   0.21606   0.84259   0.00000  Uiso   1.00
N721   N     0.62228   0.10608   0.69287   0.00000  Uiso   1.00
H722   H     0.63098   0.11194   0.65979   0.00000  Uiso   1.00
H723   H     0.62997   0.07276   0.70106   0.00000  Uiso   1.00
N724   N     0.37807   0.22383   0.81020   0.00000  Uiso   1.00
H725   H     0.36998   0.21524   0.84288   0.00000  Uiso   1.00
H726   H     0.37015   0.25765   0.80462   0.00000  Uiso   1.00
C727   C     0.75343   0.16664   0.75000   0.00000  Uiso   1.00
C728   C     0.91327   0.16662   0.75004   0.00000  Uiso   1.00
C729   C     0.83329   0.16660   0.66418   0.00000  Uiso   1.00
C730   C     0.83258   0.16680   0.83603   0.00000  Uiso   1.00
C731   C     0.85976   0.02411   0.77719   0.00000  Uiso   1.00
C732   C     0.80690   0.30922   0.72283   0.00000  Uiso   1.00
C733   C     0.80690   0.02384   0.72282   0.00000  Uiso   1.00
C734   C     0.85975   0.30949   0.77720   0.00000  Uiso   1.00
C735   C     0.68832   0.13655   0.72144   0.00000  Uiso   1.00
C736   C     0.97847   0.19574   0.77954   0.00000  Uiso   1.00
C737   C     0.97844   0.13626   0.72169   0.00000  Uiso   1.00
C738   C     0.68839   0.19565   0.77963   0.00000  Uiso   1.00
C739   C     0.87048   0.16199   0.54695   0.00000  Uiso   1.00
C740   C     0.80481   0.13643   0.95291   0.00000  Uiso   1.00
C741   C     0.85804   0.19493   0.95390   0.00000  Uiso   1.00
C742   C     0.79486   0.16740   0.54787   0.00000  Uiso   1.00
C743   C     0.87169   0.16385   0.59305   0.00000  Uiso   1.00
C744   C     0.80311   0.13799   0.90680   0.00000  Uiso   1.00
C745   C     0.85794   0.19618   0.90748   0.00000  Uiso   1.00
C746   C     0.79521   0.16853   0.59434   0.00000  Uiso   1.00
C747   C     0.83363   0.16649   0.61655   0.00000  Uiso   1.00
C748   C     0.83078   0.16721   0.88402   0.00000  Uiso   1.00
C749   C     0.83238   0.16411   0.52449   0.00000  Uiso   1.00
C750   C     0.83194   0.16485   0.97628   0.00000  Uiso   1.00
C751   C     0.95745   0.16637   0.75026   0.00000  Uiso   1.00
C752   C     0.70931   0.16645   0.75021   0.00000  Uiso   1.00
H753   H     0.88089   0.04238   0.79893   0.00000  Uiso   1.00
H754   H     0.78576   0.29095   0.70109   0.00000  Uiso   1.00
H755   H     0.78579   0.04189   0.70106   0.00000  Uiso   1.00
H756   H     0.88086   0.29144   0.79897   0.00000  Uiso   1.00
H757   H     0.89945   0.15943   0.52851   0.00000  Uiso   1.00
H758   H     0.78439   0.11345   0.97061   0.00000  Uiso   1.00
H759   H     0.87839   0.21735   0.97262   0.00000  Uiso   1.00
H760   H     0.76560   0.16982   0.52993   0.00000  Uiso   1.00
N761   N     0.83333   0.28573   0.75000   0.00000  Uiso   1.00
N762   N     0.83333   0.04760   0.75000   0.00000  Uiso   1.00
O763   O     0.77226   0.20487   0.74999   0.00000  Uiso   1.00
O764   O     0.89441   0.12846   0.75000   0.00000  Uiso   1.00
O765   O     0.89441   0.20487   0.75000   0.00000  Uiso   1.00
O766   O     0.77226   0.12846   0.74999   0.00000  Uiso   1.00
O767   O     0.83333   0.20489   0.68453   0.00000  Uiso   1.00
O768   O     0.83334   0.12845   0.81547   0.00000  Uiso   1.00
O769   O     0.83334   0.20489   0.81547   0.00000  Uiso   1.00
O770   O     0.83333   0.12845   0.68453   0.00000  Uiso   1.00
Zn771  Zn    0.83333   0.21771   0.75000   0.00000  Uiso   1.00
Zn772  Zn    0.83333   0.11563   0.75000   0.00000  Uiso   1.00
O773   O     0.91040   0.16341   0.61333   0.00000  Uiso   1.00
H774   H     0.90757   0.17005   0.64557   0.00000  Uiso   1.00
O775   O     0.77378   0.11117   0.88565   0.00000  Uiso   1.00
H776   H     0.76701   0.12433   0.85619   0.00000  Uiso   1.00
O777   O     0.88452   0.22453   0.88441   0.00000  Uiso   1.00
H778   H     0.90148   0.24221   0.90601   0.00000  Uiso   1.00
O779   O     0.75879   0.17201   0.61874   0.00000  Uiso   1.00
H780   H     0.73476   0.17308   0.59791   0.00000  Uiso   1.00
N781   N     0.71122   0.10745   0.69167   0.00000  Uiso   1.00
H782   H     0.70267   0.11464   0.65878   0.00000  Uiso   1.00
H783   H     0.70360   0.07380   0.69858   0.00000  Uiso   1.00
N784   N     0.95558   0.22423   0.80986   0.00000  Uiso   1.00
H785   H     0.96345   0.25799   0.80386   0.00000  Uiso   1.00
H786   H     0.96391   0.21606   0.84259   0.00000  Uiso   1.00
N787   N     0.95561   0.10608   0.69287   0.00000  Uiso   1.00
H788   H     0.96431   0.11194   0.65979   0.00000  Uiso   1.00
H789   H     0.96330   0.07276   0.70106   0.00000  Uiso   1.00
N790   N     0.71141   0.22383   0.81020   0.00000  Uiso   1.00
H791   H     0.70332   0.21524   0.84288   0.00000  Uiso   1.00
H792   H     0.70348   0.25765   0.80462   0.00000  Uiso   1.00
C793   C     0.08676   0.49997   0.75000   0.00000  Uiso   1.00
C794   C     0.24660   0.49995   0.75004   0.00000  Uiso   1.00
C795   C     0.16663   0.49993   0.66418   0.00000  Uiso   1.00
C796   C     0.16591   0.50013   0.83603   0.00000  Uiso   1.00
C797   C     0.19309   0.35745   0.77719   0.00000  Uiso   1.00
C798   C     0.14023   0.64255   0.72283   0.00000  Uiso   1.00
C799   C     0.14024   0.35717   0.72282   0.00000  Uiso   1.00
C800   C     0.19308   0.64283   0.77720   0.00000  Uiso   1.00
C801   C     0.02166   0.46988   0.72144   0.00000  Uiso   1.00
C802   C     0.31181   0.52908   0.77954   0.00000  Uiso   1.00
C803   C     0.31178   0.46959   0.72169   0.00000  Uiso   1.00
C804   C     0.02172   0.52898   0.77963   0.00000  Uiso   1.00
C805   C     0.20382   0.49532   0.54695   0.00000  Uiso   1.00
C806   C     0.13814   0.46976   0.95291   0.00000  Uiso   1.00
C807   C     0.19137   0.52826   0.95390   0.00000  Uiso   1.00
C808   C     0.12820   0.50073   0.54787   0.00000  Uiso   1.00
C809   C     0.20503   0.49718   0.59305   0.00000  Uiso   1.00
C810   C     0.13645   0.47132   0.90680   0.00000  Uiso   1.00
C811   C     0.19127   0.52951   0.90748   0.00000  Uiso   1.00
C812   C     0.12854   0.50186   0.59434   0.00000  Uiso   1.00
C813   C     0.16696   0.49982   0.61655   0.00000  Uiso   1.00
C814   C     0.16411   0.50054   0.88402   0.00000  Uiso   1.00
C815   C     0.16571   0.49744   0.52449   0.00000  Uiso   1.00
C816   C     0.16528   0.49818   0.97628   0.00000  Uiso   1.00
C817   C     0.29078   0.49970   0.75026   0.00000  Uiso   1.00
C818   C     0.04264   0.49978   0.75021   0.00000  Uiso   1.00
H819   H     0.21423   0.37572   0.79893   0.00000  Uiso   1.00
H820   H     0.11909   0.62428   0.70109   0.00000  Uiso   1.00
H821   H     0.11913   0.37522   0.70106   0.00000  Uiso   1.00
H822   H     0.21419   0.62478   0.79897   0.00000  Uiso   1.00
H823   H     0.23278   0.49277   0.52851   0.00000  Uiso   1.00
H824   H     0.11772   0.44679   0.97061   0.00000  Uiso   1.00
H825   H     0.21173   0.55068   0.97262   0.00000  Uiso   1.00
H826   H     0.09893   0.50316   0.52993   0.00000  Uiso   1.00
N827   N     0.16667   0.61907   0.75000   0.00000  Uiso   1.00
N828   N     0.16667   0.38093   0.75000   0.00000  Uiso   1.00
O829   O     0.10559   0.53821   0.74999   0.00000  Uiso   1.00
O830   O     0.22774   0.46179   0.75000   0.00000  Uiso   1.00
O831   O     0.22774   0.53821   0.75000   0.00000  Uiso   1.00
O832   O     0.10559   0.46179   0.74999   0.00000  Uiso   1.00
O833   O     0.16666   0.53822   0.68453   0.00000  Uiso   1.00
O834   O     0.16667   0.46178   0.81547   0.00000  Uiso   1.00
O835   O     0.16667   0.53822   0.81547   0.00000  Uiso   1.00
O836   O     0.16666   0.46178   0.68453   0.00000  Uiso   1.00
Zn837  Zn    0.16667   0.55104   0.75000   0.00000  Uiso   1.00
Zn838  Zn    0.16667   0.44896   0.75000   0.00000  Uiso   1.00
O839   O     0.24373   0.49675   0.61333   0.00000  Uiso   1.00
H840   H     0.24090   0.50338   0.64557   0.00000  Uiso   1.00
O841   O     0.10711   0.44450   0.88565   0.00000  Uiso   1.00
H842   H     0.10035   0.45766   0.85619   0.00000  Uiso   1.00
O843   O     0.21785   0.55786   0.88441   0.00000  Uiso   1.00
H844   H     0.23482   0.57554   0.90601   0.00000  Uiso   1.00
O845   O     0.09213   0.50534   0.61874   0.00000  Uiso   1.00
H846   H     0.06809   0.50641   0.59791   0.00000  Uiso   1.00
N847   N     0.04455   0.44078   0.69167   0.00000  Uiso   1.00
H848   H     0.03600   0.44797   0.65878   0.00000  Uiso   1.00
H849   H     0.03693   0.40714   0.69858   0.00000  Uiso   1.00
N850   N     0.28891   0.55757   0.80986   0.00000  Uiso   1.00
H851   H     0.29679   0.59132   0.80386   0.00000  Uiso   1.00
H852   H     0.29725   0.54939   0.84259   0.00000  Uiso   1.00
N853   N     0.28894   0.43942   0.69287   0.00000  Uiso   1.00
H854   H     0.29764   0.44527   0.65979   0.00000  Uiso   1.00
H855   H     0.29664   0.40610   0.70106   0.00000  Uiso   1.00
N856   N     0.04474   0.55717   0.81020   0.00000  Uiso   1.00
H857   H     0.03665   0.54858   0.84288   0.00000  Uiso   1.00
H858   H     0.03682   0.59099   0.80462   0.00000  Uiso   1.00
C859   C     0.42010   0.49997   0.75000   0.00000  Uiso   1.00
C860   C     0.57994   0.49995   0.75004   0.00000  Uiso   1.00
C861   C     0.49996   0.49993   0.66418   0.00000  Uiso   1.00
C862   C     0.49925   0.50013   0.83603   0.00000  Uiso   1.00
C863   C     0.52643   0.35745   0.77719   0.00000  Uiso   1.00
C864   C     0.47356   0.64255   0.72283   0.00000  Uiso   1.00
C865   C     0.47357   0.35717   0.72282   0.00000  Uiso   1.00
C866   C     0.52642   0.64283   0.77720   0.00000  Uiso   1.00
C867   C     0.35499   0.46988   0.72144   0.00000  Uiso   1.00
C868   C     0.64514   0.52908   0.77954   0.00000  Uiso   1.00
C869   C     0.64511   0.46959   0.72169   0.00000  Uiso   1.00
C870   C     0.35506   0.52898   0.77963   0.00000  Uiso   1.00
C871   C     0.53715   0.49532   0.54695   0.00000  Uiso   1.00
C872   C     0.47147   0.46976   0.95291   0.00000  Uiso   1.00
C873   C     0.52471   0.52826   0.95390   0.00000  Uiso   1.00
C874   C     0.46153   0.50073   0.54787   0.00000  Uiso   1.00
C875   C     0.53836   0.49718   0.59305   0.00000  Uiso   1.00
C876   C     0.46978   0.47132   0.90680   0.00000  Uiso   1.00
C877   C     0.52461   0.52951   0.90748   0.00000  Uiso   1.00
C878   C     0.46188   0.50186   0.59434   0.00000  Uiso   1.00
C879   C     0.50029   0.49982   0.61655   0.00000  Uiso   1.00
C880   C     0.49744   0.50054   0.88402   0.00000  Uiso   1.00
C881   C     0.49905   0.49744   0.52449   0.00000  Uiso   1.00
C882   C     0.49861   0.49818   0.97628   0.00000  Uiso   1.00
C883   C     0.62411   0.49970   0.75026   0.00000  Uiso   1.00
C884   C     0.37598   0.49978   0.75021   0.00000  Uiso   1.00
H885   H     0.54756   0.37572   0.79893   0.00000  Uiso   1.00
H886   H     0.45242   0.62428   0.70109   0.00000  Uiso   1.00
H887   H     0.45246   0.37522   0.70106   0.00000  Uiso   1.00
H888   H     0.54752   0.62478   0.79897   0.00000  Uiso   1.00
H889   H     0.56612   0.49277   0.52851   0.00000  Uiso   1.00
H890   H     0.45105   0.44679   0.97061   0.00000  Uiso   1.00
H891   H     0.54506   0.55068   0.97262   0.00000  Uiso   1.00
H892   H     0.43227   0.50316   0.52993   0.00000  Uiso   1.00
N893   N     0.50000   0.61907   0.75000   0.00000  Uiso   1.00
N894   N     0.50000   0.38093   0.75000   0.00000  Uiso   1.00
O895   O     0.43892   0.53821   0.74999   0.00000  Uiso   1.00
O896   O     0.56108   0.46179   0.75000   0.00000  Uiso   1.00
O897   O     0.56108   0.53821   0.75000   0.00000  Uiso   1.00
O898   O     0.43892   0.46179   0.74999   0.00000  Uiso   1.00
O899   O     0.50000   0.53822   0.68453   0.00000  Uiso   1.00
O900   O     0.50000   0.46178   0.81547   0.00000  Uiso   1.00
O901   O     0.50000   0.53822   0.81547   0.00000  Uiso   1.00
O902   O     0.50000   0.46178   0.68453   0.00000  Uiso   1.00
Zn903  Zn    0.50000   0.55104   0.75000   0.00000  Uiso   1.00
Zn904  Zn    0.50000   0.44896   0.75000   0.00000  Uiso   1.00
O905   O     0.57706   0.49675   0.61333   0.00000  Uiso   1.00
H906   H     0.57424   0.50338   0.64557   0.00000  Uiso   1.00
O907   O     0.44045   0.44450   0.88565   0.00000  Uiso   1.00
H908   H     0.43368   0.45766   0.85619   0.00000  Uiso   1.00
O909   O     0.55118   0.55786   0.88441   0.00000  Uiso   1.00
H910   H     0.56815   0.57554   0.90601   0.00000  Uiso   1.00
O911   O     0.42546   0.50534   0.61874   0.00000  Uiso   1.00
H912   H     0.40143   0.50641   0.59791   0.00000  Uiso   1.00
N913   N     0.37789   0.44078   0.69167   0.00000  Uiso   1.00
H914   H     0.36934   0.44797   0.65878   0.00000  Uiso   1.00
H915   H     0.37026   0.40714   0.69858   0.00000  Uiso   1.00
N916   N     0.62225   0.55757   0.80986   0.00000  Uiso   1.00
H917   H     0.63012   0.59132   0.80386   0.00000  Uiso   1.00
H918   H     0.63058   0.54939   0.84259   0.00000  Uiso   1.00
N919   N     0.62228   0.43942   0.69287   0.00000  Uiso   1.00
H920   H     0.63098   0.44527   0.65979   0.00000  Uiso   1.00
H921   H     0.62997   0.40610   0.70106   0.00000  Uiso   1.00
N922   N     0.37807   0.55717   0.81020   0.00000  Uiso   1.00
H923   H     0.36998   0.54858   0.84288   0.00000  Uiso   1.00
H924   H     0.37015   0.59099   0.80462   0.00000  Uiso   1.00
C925   C     0.75343   0.49997   0.75000   0.00000  Uiso   1.00
C926   C     0.91327   0.49995   0.75004   0.00000  Uiso   1.00
C927   C     0.83329   0.49993   0.66418   0.00000  Uiso   1.00
C928   C     0.83258   0.50013   0.83603   0.00000  Uiso   1.00
C929   C     0.85976   0.35745   0.77719   0.00000  Uiso   1.00
C930   C     0.80690   0.64255   0.72283   0.00000  Uiso   1.00
C931   C     0.80690   0.35717   0.72282   0.00000  Uiso   1.00
C932   C     0.85975   0.64283   0.77720   0.00000  Uiso   1.00
C933   C     0.68832   0.46988   0.72144   0.00000  Uiso   1.00
C934   C     0.97847   0.52908   0.77954   0.00000  Uiso   1.00
C935   C     0.97844   0.46959   0.72169   0.00000  Uiso   1.00
C936   C     0.68839   0.52898   0.77963   0.00000  Uiso   1.00
C937   C     0.87048   0.49532   0.54695   0.00000  Uiso   1.00
C938   C     0.80481   0.46976   0.95291   0.00000  Uiso   1.00
C939   C     0.85804   0.52826   0.95390   0.00000  Uiso   1.00
C940   C     0.79486   0.50073   0.54787   0.00000  Uiso   1.00
C941   C     0.87169   0.49718   0.59305   0.00000  Uiso   1.00
C942   C     0.80311   0.47132   0.90680   0.00000  Uiso   1.00
C943   C     0.85794   0.52951   0.90748   0.00000  Uiso   1.00
C944   C     0.79521   0.50186   0.59434   0.00000  Uiso   1.00
C945   C     0.83363   0.49982   0.61655   0.00000  Uiso   1.00
C946   C     0.83078   0.50054   0.88402   0.00000  Uiso   1.00
C947   C     0.83238   0.49744   0.52449   0.00000  Uiso   1.00
C948   C     0.83194   0.49818   0.97628   0.00000  Uiso   1.00
C949   C     0.95745   0.49970   0.75026   0.00000  Uiso   1.00
C950   C     0.70931   0.49978   0.75021   0.00000  Uiso   1.00
H951   H     0.88089   0.37572   0.79893   0.00000  Uiso   1.00
H952   H     0.78576   0.62428   0.70109   0.00000  Uiso   1.00
H953   H     0.78579   0.37522   0.70106   0.00000  Uiso   1.00
H954   H     0.88086   0.62478   0.79897   0.00000  Uiso   1.00
H955   H     0.89945   0.49277   0.52851   0.00000  Uiso   1.00
H956   H     0.78439   0.44679   0.97061   0.00000  Uiso   1.00
H957   H     0.87839   0.55068   0.97262   0.00000  Uiso   1.00
H958   H     0.76560   0.50316   0.52993   0.00000  Uiso   1.00
N959   N     0.83333   0.61907   0.75000   0.00000  Uiso   1.00
N960   N     0.83333   0.38093   0.75000   0.00000  Uiso   1.00
O961   O     0.77226   0.53821   0.74999   0.00000  Uiso   1.00
O962   O     0.89441   0.46179   0.75000   0.00000  Uiso   1.00
O963   O     0.89441   0.53821   0.75000   0.00000  Uiso   1.00
O964   O     0.77226   0.46179   0.74999   0.00000  Uiso   1.00
O965   O     0.83333   0.53822   0.68453   0.00000  Uiso   1.00
O966   O     0.83334   0.46178   0.81547   0.00000  Uiso   1.00
O967   O     0.83334   0.53822   0.81547   0.00000  Uiso   1.00
O968   O     0.83333   0.46178   0.68453   0.00000  Uiso   1.00
Zn969  Zn    0.83333   0.55104   0.75000   0.00000  Uiso   1.00
Zn970  Zn    0.83333   0.44896   0.75000   0.00000  Uiso   1.00
O971   O     0.91040   0.49675   0.61333   0.00000  Uiso   1.00
H972   H     0.90757   0.50338   0.64557   0.00000  Uiso   1.00
O973   O     0.77378   0.44450   0.88565   0.00000  Uiso   1.00
H974   H     0.76701   0.45766   0.85619   0.00000  Uiso   1.00
O975   O     0.88452   0.55786   0.88441   0.00000  Uiso   1.00
H976   H     0.90148   0.57554   0.90601   0.00000  Uiso   1.00
O977   O     0.75879   0.50534   0.61874   0.00000  Uiso   1.00
H978   H     0.73476   0.50641   0.59791   0.00000  Uiso   1.00
N979   N     0.71122   0.44078   0.69167   0.00000  Uiso   1.00
H980   H     0.70267   0.44797   0.65878   0.00000  Uiso   1.00
H981   H     0.70360   0.40714   0.69858   0.00000  Uiso   1.00
N982   N     0.95558   0.55757   0.80986   0.00000  Uiso   1.00
H983   H     0.96345   0.59132   0.80386   0.00000  Uiso   1.00
H984   H     0.96391   0.54939   0.84259   0.00000  Uiso   1.00
N985   N     0.95561   0.43942   0.69287   0.00000  Uiso   1.00
H986   H     0.96431   0.44527   0.65979   0.00000  Uiso   1.00
H987   H     0.96330   0.40610   0.70106   0.00000  Uiso   1.00
N988   N     0.71141   0.55717   0.81020   0.00000  Uiso   1.00
H989   H     0.70332   0.54858   0.84288   0.00000  Uiso   1.00
H990   H     0.70348   0.59099   0.80462   0.00000  Uiso   1.00
C991   C     0.08676   0.83330   0.75000   0.00000  Uiso   1.00
C992   C     0.24660   0.83329   0.75004   0.00000  Uiso   1.00
C993   C     0.16663   0.83326   0.66418   0.00000  Uiso   1.00
C994   C     0.16591   0.83347   0.83603   0.00000  Uiso   1.00
C995   C     0.19309   0.69078   0.77719   0.00000  Uiso   1.00
C996   C     0.14023   0.97589   0.72283   0.00000  Uiso   1.00
C997   C     0.14024   0.69051   0.72282   0.00000  Uiso   1.00
C998   C     0.19308   0.97616   0.77720   0.00000  Uiso   1.00
C999   C     0.02166   0.80322   0.72144   0.00000  Uiso   1.00
C1000  C     0.31181   0.86241   0.77954   0.00000  Uiso   1.00
C1001  C     0.31178   0.80292   0.72169   0.00000  Uiso   1.00
C1002  C     0.02172   0.86232   0.77963   0.00000  Uiso   1.00
C1003  C     0.20382   0.82865   0.54695   0.00000  Uiso   1.00
C1004  C     0.13814   0.80309   0.95291   0.00000  Uiso   1.00
C1005  C     0.19137   0.86159   0.95390   0.00000  Uiso   1.00
C1006  C     0.12820   0.83406   0.54787   0.00000  Uiso   1.00
C1007  C     0.20503   0.83051   0.59305   0.00000  Uiso   1.00
C1008  C     0.13645   0.80466   0.90680   0.00000  Uiso   1.00
C1009  C     0.19127   0.86284   0.90748   0.00000  Uiso   1.00
C1010  C     0.12854   0.83519   0.59434   0.00000  Uiso   1.00
C1011  C     0.16696   0.83315   0.61655   0.00000  Uiso   1.00
C1012  C     0.16411   0.83388   0.88402   0.00000  Uiso   1.00
C1013  C     0.16571   0.83077   0.52449   0.00000  Uiso   1.00
C1014  C     0.16528   0.83151   0.97628   0.00000  Uiso   1.00
C1015  C     0.29078   0.83304   0.75026   0.00000  Uiso   1.00
C1016  C     0.04264   0.83311   0.75021   0.00000  Uiso   1.00
H1017  H     0.21423   0.70905   0.79893   0.00000  Uiso   1.00
H1018  H     0.11909   0.95762   0.70109   0.00000  Uiso   1.00
H1019  H     0.11913   0.70855   0.70106   0.00000  Uiso   1.00
H1020  H     0.21419   0.95811   0.79897   0.00000  Uiso   1.00
H1021  H     0.23278   0.82610   0.52851   0.00000  Uiso   1.00
H1022  H     0.11772   0.78012   0.97061   0.00000  Uiso   1.00
H1023  H     0.21173   0.88402   0.97262   0.00000  Uiso   1.00
H1024  H     0.09893   0.83649   0.52993   0.00000  Uiso   1.00
N1025  N     0.16667   0.95240   0.75000   0.00000  Uiso   1.00
N1026  N     0.16667   0.71427   0.75000   0.00000  Uiso   1.00
O1027  O     0.10559   0.87154   0.74999   0.00000  Uiso   1.00
O1028  O     0.22774   0.79513   0.75000   0.00000  Uiso   1.00
O1029  O     0.22774   0.87154   0.75000   0.00000  Uiso   1.00
O1030  O     0.10559   0.79513   0.74999   0.00000  Uiso   1.00
O1031  O     0.16666   0.87155   0.68453   0.00000  Uiso   1.00
O1032  O     0.16667   0.79511   0.81547   0.00000  Uiso   1.00
O1033  O     0.16667   0.87155   0.81547   0.00000  Uiso   1.00
O1034  O     0.16666   0.79511   0.68453   0.00000  Uiso   1.00
Zn1035 Zn    0.16667   0.88437   0.75000   0.00000  Uiso   1.00
Zn1036 Zn    0.16667   0.78229   0.75000   0.00000  Uiso   1.00
O1037  O     0.24373   0.83008   0.61333   0.00000  Uiso   1.00
H1038  H     0.24090   0.83672   0.64557   0.00000  Uiso   1.00
O1039  O     0.10711   0.77783   0.88565   0.00000  Uiso   1.00
H1040  H     0.10035   0.79100   0.85619   0.00000  Uiso   1.00
O1041  O     0.21785   0.89119   0.88441   0.00000  Uiso   1.00
H1042  H     0.23482   0.90888   0.90601   0.00000  Uiso   1.00
O1043  O     0.09213   0.83868   0.61874   0.00000  Uiso   1.00
H1044  H     0.06809   0.83975   0.59791   0.00000  Uiso   1.00
N1045  N     0.04455   0.77411   0.69167   0.00000  Uiso   1.00
H1046  H     0.03600   0.78130   0.65878   0.00000  Uiso   1.00
H1047  H     0.03693   0.74047   0.69858   0.00000  Uiso   1.00
N1048  N     0.28891   0.89090   0.80986   0.00000  Uiso   1.00
H1049  H     0.29679   0.92465   0.80386   0.00000  Uiso   1.00
H1050  H     0.29725   0.88273   0.84259   0.00000  Uiso   1.00
N1051  N     0.28894   0.77275   0.69287   0.00000  Uiso   1.00
H1052  H     0.29764   0.77860   0.65979   0.00000  Uiso   1.00
H1053  H     0.29664   0.73943   0.70106   0.00000  Uiso   1.00
N1054  N     0.04474   0.89050   0.81020   0.00000  Uiso   1.00
H1055  H     0.03665   0.88191   0.84288   0.00000  Uiso   1.00
H1056  H     0.03682   0.92432   0.80462   0.00000  Uiso   1.00
C1057  C     0.42010   0.83330   0.75000   0.00000  Uiso   1.00
C1058  C     0.57994   0.83329   0.75004   0.00000  Uiso   1.00
C1059  C     0.49996   0.83326   0.66418   0.00000  Uiso   1.00
C1060  C     0.49925   0.83347   0.83603   0.00000  Uiso   1.00
C1061  C     0.52643   0.69078   0.77719   0.00000  Uiso   1.00
C1062  C     0.47356   0.97589   0.72283   0.00000  Uiso   1.00
C1063  C     0.47357   0.69051   0.72282   0.00000  Uiso   1.00
C1064  C     0.52642   0.97616   0.77720   0.00000  Uiso   1.00
C1065  C     0.35499   0.80322   0.72144   0.00000  Uiso   1.00
C1066  C     0.64514   0.86241   0.77954   0.00000  Uiso   1.00
C1067  C     0.64511   0.80292   0.72169   0.00000  Uiso   1.00
C1068  C     0.35506   0.86232   0.77963   0.00000  Uiso   1.00
C1069  C     0.53715   0.82865   0.54695   0.00000  Uiso   1.00
C1070  C     0.47147   0.80309   0.95291   0.00000  Uiso   1.00
C1071  C     0.52471   0.86159   0.95390   0.00000  Uiso   1.00
C1072  C     0.46153   0.83406   0.54787   0.00000  Uiso   1.00
C1073  C     0.53836   0.83051   0.59305   0.00000  Uiso   1.00
C1074  C     0.46978   0.80466   0.90680   0.00000  Uiso   1.00
C1075  C     0.52461   0.86284   0.90748   0.00000  Uiso   1.00
C1076  C     0.46188   0.83519   0.59434   0.00000  Uiso   1.00
C1077  C     0.50029   0.83315   0.61655   0.00000  Uiso   1.00
C1078  C     0.49744   0.83388   0.88402   0.00000  Uiso   1.00
C1079  C     0.49905   0.83077   0.52449   0.00000  Uiso   1.00
C1080  C     0.49861   0.83151   0.97628   0.00000  Uiso   1.00
C1081  C     0.62411   0.83304   0.75026   0.00000  Uiso   1.00
C1082  C     0.37598   0.83311   0.75021   0.00000  Uiso   1.00
H1083  H     0.54756   0.70905   0.79893   0.00000  Uiso   1.00
H1084  H     0.45242   0.95762   0.70109   0.00000  Uiso   1.00
H1085  H     0.45246   0.70855   0.70106   0.00000  Uiso   1.00
H1086  H     0.54752   0.95811   0.79897   0.00000  Uiso   1.00
H1087  H     0.56612   0.82610   0.52851   0.00000  Uiso   1.00
H1088  H     0.45105   0.78012   0.97061   0.00000  Uiso   1.00
H1089  H     0.54506   0.88402   0.97262   0.00000  Uiso   1.00
H1090  H     0.43227   0.83649   0.52993   0.00000  Uiso   1.00
N1091  N     0.50000   0.95240   0.75000   0.00000  Uiso   1.00
N1092  N     0.50000   0.71427   0.75000   0.00000  Uiso   1.00
O1093  O     0.43892   0.87154   0.74999   0.00000  Uiso   1.00
O1094  O     0.56108   0.79513   0.75000   0.00000  Uiso   1.00
O1095  O     0.56108   0.87154   0.75000   0.00000  Uiso   1.00
O1096  O     0.43892   0.79513   0.74999   0.00000  Uiso   1.00
O1097  O     0.50000   0.87155   0.68453   0.00000  Uiso   1.00
O1098  O     0.50000   0.79511   0.81547   0.00000  Uiso   1.00
O1099  O     0.50000   0.87155   0.81547   0.00000  Uiso   1.00
O1100  O     0.50000   0.79511   0.68453   0.00000  Uiso   1.00
Zn1101 Zn    0.50000   0.88437   0.75000   0.00000  Uiso   1.00
Zn1102 Zn    0.50000   0.78229   0.75000   0.00000  Uiso   1.00
O1103  O     0.57706   0.83008   0.61333   0.00000  Uiso   1.00
H1104  H     0.57424   0.83672   0.64557   0.00000  Uiso   1.00
O1105  O     0.44045   0.77783   0.88565   0.00000  Uiso   1.00
H1106  H     0.43368   0.79100   0.85619   0.00000  Uiso   1.00
O1107  O     0.55118   0.89119   0.88441   0.00000  Uiso   1.00
H1108  H     0.56815   0.90888   0.90601   0.00000  Uiso   1.00
O1109  O     0.42546   0.83868   0.61874   0.00000  Uiso   1.00
H1110  H     0.40143   0.83975   0.59791   0.00000  Uiso   1.00
N1111  N     0.37789   0.77411   0.69167   0.00000  Uiso   1.00
H1112  H     0.36934   0.78130   0.65878   0.00000  Uiso   1.00
H1113  H     0.37026   0.74047   0.69858   0.00000  Uiso   1.00
N1114  N     0.62225   0.89090   0.80986   0.00000  Uiso   1.00
H1115  H     0.63012   0.92465   0.80386   0.00000  Uiso   1.00
H1116  H     0.63058   0.88273   0.84259   0.00000  Uiso   1.00
N1117  N     0.62228   0.77275   0.69287   0.00000  Uiso   1.00
H1118  H     0.63098   0.77860   0.65979   0.00000  Uiso   1.00
H1119  H     0.62997   0.73943   0.70106   0.00000  Uiso   1.00
N1120  N     0.37807   0.89050   0.81020   0.00000  Uiso   1.00
H1121  H     0.36998   0.88191   0.84288   0.00000  Uiso   1.00
H1122  H     0.37015   0.92432   0.80462   0.00000  Uiso   1.00
C1123  C     0.75343   0.83330   0.75000   0.00000  Uiso   1.00
C1124  C     0.91327   0.83329   0.75004   0.00000  Uiso   1.00
C1125  C     0.83329   0.83326   0.66418   0.00000  Uiso   1.00
C1126  C     0.83258   0.83347   0.83603   0.00000  Uiso   1.00
C1127  C     0.85976   0.69078   0.77719   0.00000  Uiso   1.00
C1128  C     0.80690   0.97589   0.72283   0.00000  Uiso   1.00
C1129  C     0.80690   0.69051   0.72282   0.00000  Uiso   1.00
C1130  C     0.85975   0.97616   0.77720   0.00000  Uiso   1.00
C1131  C     0.68832   0.80322   0.72144   0.00000  Uiso   1.00
C1132  C     0.97847   0.86241   0.77954   0.00000  Uiso   1.00
C1133  C     0.97844   0.80292   0.72169   0.00000  Uiso   1.00
C1134  C     0.68839   0.86232   0.77963   0.00000  Uiso   1.00
C1135  C     0.87048   0.82865   0.54695   0.00000  Uiso   1.00
C1136  C     0.80481   0.80309   0.95291   0.00000  Uiso   1.00
C1137  C     0.85804   0.86159   0.95390   0.00000  Uiso   1.00
C1138  C     0.79486   0.83406   0.54787   0.00000  Uiso   1.00
C1139  C     0.87169   0.83051   0.59305   0.00000  Uiso   1.00
C1140  C     0.80311   0.80466   0.90680   0.00000  Uiso   1.00
C1141  C     0.85794   0.86284   0.90748   0.00000  Uiso   1.00
C1142  C     0.79521   0.83519   0.59434   0.00000  Uiso   1.00
C1143  C     0.83363   0.83315   0.61655   0.00000  Uiso   1.00
C1144  C     0.83078   0.83388   0.88402   0.00000  Uiso   1.00
C1145  C     0.83238   0.83077   0.52449   0.00000  Uiso   1.00
C1146  C     0.83194   0.83151   0.97628   0.00000  Uiso   1.00
C1147  C     0.95745   0.83304   0.75026   0.00000  Uiso   1.00
C1148  C     0.70931   0.83311   0.75021   0.00000  Uiso   1.00
H1149  H     0.88089   0.70905   0.79893   0.00000  Uiso   1.00
H1150  H     0.78576   0.95762   0.70109   0.00000  Uiso   1.00
H1151  H     0.78579   0.70855   0.70106   0.00000  Uiso   1.00
H1152  H     0.88086   0.95811   0.79897   0.00000  Uiso   1.00
H1153  H     0.89945   0.82610   0.52851   0.00000  Uiso   1.00
H1154  H     0.78439   0.78012   0.97061   0.00000  Uiso   1.00
H1155  H     0.87839   0.88402   0.97262   0.00000  Uiso   1.00
H1156  H     0.76560   0.83649   0.52993   0.00000  Uiso   1.00
N1157  N     0.83333   0.95240   0.75000   0.00000  Uiso   1.00
N1158  N     0.83333   0.71427   0.75000   0.00000  Uiso   1.00
O1159  O     0.77226   0.87154   0.74999   0.00000  Uiso   1.00
O1160  O     0.89441   0.79513   0.75000   0.00000  Uiso   1.00
O1161  O     0.89441   0.87154   0.75000   0.00000  Uiso   1.00
O1162  O     0.77226   0.79513   0.74999   0.00000  Uiso   1.00
O1163  O     0.83333   0.87155   0.68453   0.00000  Uiso   1.00
O1164  O     0.83334   0.79511   0.81547   0.00000  Uiso   1.00
O1165  O     0.83334   0.87155   0.81547   0.00000  Uiso   1.00
O1166  O     0.83333   0.79511   0.68453   0.00000  Uiso   1.00
Zn1167 Zn    0.83333   0.88437   0.75000   0.00000  Uiso   1.00
Zn1168 Zn    0.83333   0.78229   0.75000   0.00000  Uiso   1.00
O1169  O     0.91040   0.83008   0.61333   0.00000  Uiso   1.00
H1170  H     0.90757   0.83672   0.64557   0.00000  Uiso   1.00
O1171  O     0.77378   0.77783   0.88565   0.00000  Uiso   1.00
H1172  H     0.76701   0.79100   0.85619   0.00000  Uiso   1.00
O1173  O     0.88452   0.89119   0.88441   0.00000  Uiso   1.00
H1174  H     0.90148   0.90888   0.90601   0.00000  Uiso   1.00
O1175  O     0.75879   0.83868   0.61874   0.00000  Uiso   1.00
H1176  H     0.73476   0.83975   0.59791   0.00000  Uiso   1.00
N1177  N     0.71122   0.77411   0.69167   0.00000  Uiso   1.00
H1178  H     0.70267   0.78130   0.65878   0.00000  Uiso   1.00
H1179  H     0.70360   0.74047   0.69858   0.00000  Uiso   1.00
N1180  N     0.95558   0.89090   0.80986   0.00000  Uiso   1.00
H1181  H     0.96345   0.92465   0.80386   0.00000  Uiso   1.00
H1182  H     0.96391   0.88273   0.84259   0.00000  Uiso   1.00
N1183  N     0.95561   0.77275   0.69287   0.00000  Uiso   1.00
H1184  H     0.96431   0.77860   0.65979   0.00000  Uiso   1.00
H1185  H     0.96330   0.73943   0.70106   0.00000  Uiso   1.00
N1186  N     0.71141   0.89050   0.81020   0.00000  Uiso   1.00
H1187  H     0.70332   0.88191   0.84288   0.00000  Uiso   1.00
H1188  H     0.70348   0.92432   0.80462   0.00000  Uiso   1.00
loop_
_geom_bond_atom_site_label_1
_geom_bond_atom_site_label_2
_geom_bond_distance
_geom_bond_site_symmetry_2
_ccdc_geom_bond_type
C1     O37     1.281   .     A
C1     C26     1.416   .     S
C1     O40     1.279   .     A
C2     C25     1.418   .     S
C2     O38     1.279   .     A
C2     O39     1.282   .     A
C3     O41     1.282   .     A
C3     O44     1.284   .     A
C3     C21     1.426   .     S
C4     O43     1.285   .     A
C4     C22     1.438   .     S
C4     O42     1.287   .     A
C5     N36     1.366   .     A
C5     H27     1.082   .     S
C5     C404    1.417   1_545 S
C6     N35     1.366   .     A
C6     H28     1.082   .     S
C6     C205    1.417   .     S
C7     N36     1.366   .     A
C7     H29     1.082   .     S
C7     C402    1.417   1_545 S
C8     H30     1.082   .     S
C8     N35     1.366   .     A
C8     C203    1.417   .     S
C9     N55     1.438   .     S
C9     C26     1.402   .     A
C9     C143    1.387   1_455 S
C10    C25     1.403   .     A
C10    N58     1.437   .     S
C10    C78     1.388   .     S
C11    N61     1.438   .     S
C11    C25     1.404   .     A
C11    C75     1.387   .     S
C12    N64     1.438   .     S
C12    C26     1.402   .     A
C12    C142    1.388   1_455 S
C13    C17     1.382   .     A
C13    C23     1.396   .     A
C13    H31     1.084   .     S
C14    C18     1.382   .     A
C14    C24     1.395   .     A
C14    H32     1.084   .     S
C15    C19     1.390   .     A
C15    C24     1.395   .     A
C15    H33     1.084   .     S
C16    C20     1.392   .     A
C16    C23     1.397   .     A
C16    H34     1.084   .     S
C17    C21     1.412   .     A
C17    O47     1.382   .     S
C18    C22     1.416   .     A
C18    O49     1.381   .     S
C19    O51     1.383   .     S
C19    C22     1.406   .     A
C20    C21     1.402   .     A
C20    O53     1.382   .     S
C23    C618    1.444   1_554 S
C24    C617    1.444   .     S
N35    Zn45    2.009   .     S
N36    Zn46    2.009   .     S
O37    Zn45    1.996   .     S
O38    Zn46    1.996   .     S
O39    Zn45    1.996   .     S
O40    Zn46    1.996   .     S
O41    Zn45    1.994   .     S
O42    Zn46    1.994   .     S
O43    Zn45    1.998   .     S
O44    Zn46    1.998   .     S
O47    H48     0.988   .     S
O49    H50     0.990   .     S
O51    H52     0.992   .     S
O53    H54     0.992   .     S
N55    H56     1.045   .     S
N55    H57     1.045   .     S
N58    H59     1.045   .     S
N58    H60     1.045   .     S
N61    H62     1.044   .     S
N61    H63     1.045   .     S
N64    H65     1.045   .     S
N64    H66     1.045   .     S
C67    O103    1.281   .     A
C67    C92     1.416   .     S
C67    O106    1.279   .     A
C68    C91     1.418   .     S
C68    O104    1.279   .     A
C68    O105    1.282   .     A
C69    O107    1.282   .     A
C69    O110    1.284   .     A
C69    C87     1.426   .     S
C70    O109    1.285   .     A
C70    C88     1.438   .     S
C70    O108    1.287   .     A
C71    N102    1.366   .     A
C71    H93     1.082   .     S
C71    C470    1.417   1_545 S
C72    N101    1.366   .     A
C72    H94     1.082   .     S
C72    C271    1.417   .     S
C73    N102    1.366   .     A
C73    H95     1.082   .     S
C73    C468    1.417   1_545 S
C74    H96     1.082   .     S
C74    N101    1.366   .     A
C74    C269    1.417   .     S
C75    N121    1.438   .     S
C75    C92     1.402   .     A
C76    C91     1.403   .     A
C76    N124    1.437   .     S
C76    C144    1.388   .     S
C77    N127    1.438   .     S
C77    C91     1.404   .     A
C77    C141    1.387   .     S
C78    N130    1.438   .     S
C78    C92     1.402   .     A
C79    C83     1.382   .     A
C79    C89     1.396   .     A
C79    H97     1.084   .     S
C80    C84     1.382   .     A
C80    C90     1.395   .     A
C80    H98     1.084   .     S
C81    C85     1.390   .     A
C81    C90     1.395   .     A
C81    H99     1.084   .     S
C82    C86     1.392   .     A
C82    C89     1.397   .     A
C82    H100    1.084   .     S
C83    C87     1.412   .     A
C83    O113    1.382   .     S
C84    C88     1.416   .     A
C84    O115    1.381   .     S
C85    O117    1.383   .     S
C85    C88     1.406   .     A
C86    C87     1.402   .     A
C86    O119    1.382   .     S
C89    C684    1.444   1_554 S
C90    C683    1.444   .     S
N101   Zn111   2.009   .     S
N102   Zn112   2.009   .     S
O103   Zn111   1.996   .     S
O104   Zn112   1.996   .     S
O105   Zn111   1.996   .     S
O106   Zn112   1.996   .     S
O107   Zn111   1.994   .     S
O108   Zn112   1.994   .     S
O109   Zn111   1.998   .     S
O110   Zn112   1.998   .     S
O113   H114    0.988   .     S
O115   H116    0.990   .     S
O117   H118    0.992   .     S
O119   H120    0.992   .     S
N121   H122    1.045   .     S
N121   H123    1.045   .     S
N124   H125    1.045   .     S
N124   H126    1.045   .     S
N127   H128    1.044   .     S
N127   H129    1.045   .     S
N130   H131    1.045   .     S
N130   H132    1.045   .     S
C133   O169    1.281   .     A
C133   C158    1.416   .     S
C133   O172    1.279   .     A
C134   C157    1.418   .     S
C134   O170    1.279   .     A
C134   O171    1.282   .     A
C135   O173    1.282   .     A
C135   O176    1.284   .     A
C135   C153    1.426   .     S
C136   O175    1.285   .     A
C136   C154    1.438   .     S
C136   O174    1.287   .     A
C137   N168    1.366   .     A
C137   H159    1.082   .     S
C137   C536    1.417   1_545 S
C138   N167    1.366   .     A
C138   H160    1.082   .     S
C138   C337    1.417   .     S
C139   N168    1.366   .     A
C139   H161    1.082   .     S
C139   C534    1.417   1_545 S
C140   H162    1.082   .     S
C140   N167    1.366   .     A
C140   C335    1.417   .     S
C141   N187    1.438   .     S
C141   C158    1.402   .     A
C142   C157    1.403   .     A
C142   N190    1.437   .     S
C142   C12     1.388   1_655 S
C143   N193    1.438   .     S
C143   C157    1.404   .     A
C143   C9      1.387   1_655 S
C144   N196    1.438   .     S
C144   C158    1.402   .     A
C145   C149    1.382   .     A
C145   C155    1.396   .     A
C145   H163    1.084   .     S
C146   C150    1.382   .     A
C146   C156    1.395   .     A
C146   H164    1.084   .     S
C147   C151    1.390   .     A
C147   C156    1.395   .     A
C147   H165    1.084   .     S
C148   C152    1.392   .     A
C148   C155    1.397   .     A
C148   H166    1.084   .     S
C149   C153    1.412   .     A
C149   O179    1.382   .     S
C150   C154    1.416   .     A
C150   O181    1.381   .     S
C151   O183    1.383   .     S
C151   C154    1.406   .     A
C152   C153    1.402   .     A
C152   O185    1.382   .     S
C155   C750    1.444   1_554 S
C156   C749    1.444   .     S
N167   Zn177   2.009   .     S
N168   Zn178   2.009   .     S
O169   Zn177   1.996   .     S
O170   Zn178   1.996   .     S
O171   Zn177   1.996   .     S
O172   Zn178   1.996   .     S
O173   Zn177   1.994   .     S
O174   Zn178   1.994   .     S
O175   Zn177   1.998   .     S
O176   Zn178   1.998   .     S
O179   H180    0.988   .     S
O181   H182    0.990   .     S
O183   H184    0.992   .     S
O185   H186    0.992   .     S
N187   H188    1.045   .     S
N187   H189    1.045   .     S
N190   H191    1.045   .     S
N190   H192    1.045   .     S
N193   H194    1.044   .     S
N193   H195    1.045   .     S
N196   H197    1.045   .     S
N196   H198    1.045   .     S
C199   O235    1.281   .     A
C199   C224    1.416   .     S
C199   O238    1.279   .     A
C200   C223    1.418   .     S
C200   O236    1.279   .     A
C200   O237    1.282   .     A
C201   O239    1.282   .     A
C201   O242    1.284   .     A
C201   C219    1.426   .     S
C202   O241    1.285   .     A
C202   C220    1.438   .     S
C202   O240    1.287   .     A
C203   N234    1.366   .     A
C203   H225    1.082   .     S
C204   N233    1.366   .     A
C204   H226    1.082   .     S
C204   C403    1.417   .     S
C205   N234    1.366   .     A
C205   H227    1.082   .     S
C206   H228    1.082   .     S
C206   N233    1.366   .     A
C206   C401    1.417   .     S
C207   N253    1.438   .     S
C207   C224    1.402   .     A
C207   C341    1.387   1_455 S
C208   C223    1.403   .     A
C208   N256    1.437   .     S
C208   C276    1.388   .     S
C209   N259    1.438   .     S
C209   C223    1.404   .     A
C209   C273    1.387   .     S
C210   N262    1.438   .     S
C210   C224    1.402   .     A
C210   C340    1.388   1_455 S
C211   C215    1.382   .     A
C211   C221    1.396   .     A
C211   H229    1.084   .     S
C212   C216    1.382   .     A
C212   C222    1.395   .     A
C212   H230    1.084   .     S
C213   C217    1.390   .     A
C213   C222    1.395   .     A
C213   H231    1.084   .     S
C214   C218    1.392   .     A
C214   C221    1.397   .     A
C214   H232    1.084   .     S
C215   C219    1.412   .     A
C215   O245    1.382   .     S
C216   C220    1.416   .     A
C216   O247    1.381   .     S
C217   O249    1.383   .     S
C217   C220    1.406   .     A
C218   C219    1.402   .     A
C218   O251    1.382   .     S
C221   C816    1.444   1_554 S
C222   C815    1.444   .     S
N233   Zn243   2.009   .     S
N234   Zn244   2.009   .     S
O235   Zn243   1.996   .     S
O236   Zn244   1.996   .     S
O237   Zn243   1.996   .     S
O238   Zn244   1.996   .     S
O239   Zn243   1.994   .     S
O240   Zn244   1.994   .     S
O241   Zn243   1.998   .     S
O242   Zn244   1.998   .     S
O245   H246    0.988   .     S
O247   H248    0.990   .     S
O249   H250    0.992   .     S
O251   H252    0.992   .     S
N253   H254    1.045   .     S
N253   H255    1.045   .     S
N256   H257    1.045   .     S
N256   H258    1.045   .     S
N259   H260    1.044   .     S
N259   H261    1.045   .     S
N262   H263    1.045   .     S
N262   H264    1.045   .     S
C265   O301    1.281   .     A
C265   C290    1.416   .     S
C265   O304    1.279   .     A
C266   C289    1.418   .     S
C266   O302    1.279   .     A
C266   O303    1.282   .     A
C267   O305    1.282   .     A
C267   O308    1.284   .     A
C267   C285    1.426   .     S
C268   O307    1.285   .     A
C268   C286    1.438   .     S
C268   O306    1.287   .     A
C269   N300    1.366   .     A
C269   H291    1.082   .     S
C270   N299    1.366   .     A
C270   H292    1.082   .     S
C270   C469    1.417   .     S
C271   N300    1.366   .     A
C271   H293    1.082   .     S
C272   H294    1.082   .     S
C272   N299    1.366   .     A
C272   C467    1.417   .     S
C273   N319    1.438   .     S
C273   C290    1.402   .     A
C274   C289    1.403   .     A
C274   N322    1.437   .     S
C274   C342    1.388   .     S
C275   N325    1.438   .     S
C275   C289    1.404   .     A
C275   C339    1.387   .     S
C276   N328    1.438   .     S
C276   C290    1.402   .     A
C277   C281    1.382   .     A
C277   C287    1.396   .     A
C277   H295    1.084   .     S
C278   C282    1.382   .     A
C278   C288    1.395   .     A
C278   H296    1.084   .     S
C279   C283    1.390   .     A
C279   C288    1.395   .     A
C279   H297    1.084   .     S
C280   C284    1.392   .     A
C280   C287    1.397   .     A
C280   H298    1.084   .     S
C281   C285    1.412   .     A
C281   O311    1.382   .     S
C282   C286    1.416   .     A
C282   O313    1.381   .     S
C283   O315    1.383   .     S
C283   C286    1.406   .     A
C284   C285    1.402   .     A
C284   O317    1.382   .     S
C287   C882    1.444   1_554 S
C288   C881    1.444   .     S
N299   Zn309   2.009   .     S
N300   Zn310   2.009   .     S
O301   Zn309   1.996   .     S
O302   Zn310   1.996   .     S
O303   Zn309   1.996   .     S
O304   Zn310   1.996   .     S
O305   Zn309   1.994   .     S
O306   Zn310   1.994   .     S
O307   Zn309   1.998   .     S
O308   Zn310   1.998   .     S
O311   H312    0.988   .     S
O313   H314    0.990   .     S
O315   H316    0.992   .     S
O317   H318    0.992   .     S
N319   H320    1.045   .     S
N319   H321    1.045   .     S
N322   H323    1.045   .     S
N322   H324    1.045   .     S
N325   H326    1.044   .     S
N325   H327    1.045   .     S
N328   H329    1.045   .     S
N328   H330    1.045   .     S
C331   O367    1.281   .     A
C331   C356    1.416   .     S
C331   O370    1.279   .     A
C332   C355    1.418   .     S
C332   O368    1.279   .     A
C332   O369    1.282   .     A
C333   O371    1.282   .     A
C333   O374    1.284   .     A
C333   C351    1.426   .     S
C334   O373    1.285   .     A
C334   C352    1.438   .     S
C334   O372    1.287   .     A
C335   N366    1.366   .     A
C335   H357    1.082   .     S
C336   N365    1.366   .     A
C336   H358    1.082   .     S
C336   C535    1.417   .     S
C337   N366    1.366   .     A
C337   H359    1.082   .     S
C338   H360    1.082   .     S
C338   N365    1.366   .     A
C338   C533    1.417   .     S
C339   N385    1.438   .     S
C339   C356    1.402   .     A
C340   C355    1.403   .     A
C340   N388    1.437   .     S
C340   C210    1.388   1_655 S
C341   N391    1.438   .     S
C341   C355    1.404   .     A
C341   C207    1.387   1_655 S
C342   N394    1.438   .     S
C342   C356    1.402   .     A
C343   C347    1.382   .     A
C343   C353    1.396   .     A
C343   H361    1.084   .     S
C344   C348    1.382   .     A
C344   C354    1.395   .     A
C344   H362    1.084   .     S
C345   C349    1.390   .     A
C345   C354    1.395   .     A
C345   H363    1.084   .     S
C346   C350    1.392   .     A
C346   C353    1.397   .     A
C346   H364    1.084   .     S
C347   C351    1.412   .     A
C347   O377    1.382   .     S
C348   C352    1.416   .     A
C348   O379    1.381   .     S
C349   O381    1.383   .     S
C349   C352    1.406   .     A
C350   C351    1.402   .     A
C350   O383    1.382   .     S
C353   C948    1.444   1_554 S
C354   C947    1.444   .     S
N365   Zn375   2.009   .     S
N366   Zn376   2.009   .     S
O367   Zn375   1.996   .     S
O368   Zn376   1.996   .     S
O369   Zn375   1.996   .     S
O370   Zn376   1.996   .     S
O371   Zn375   1.994   .     S
O372   Zn376   1.994   .     S
O373   Zn375   1.998   .     S
O374   Zn376   1.998   .     S
O377   H378    0.988   .     S
O379   H380    0.990   .     S
O381   H382    0.992   .     S
O383   H384    0.992   .     S
N385   H386    1.045   .     S
N385   H387    1.045   .     S
N388   H389    1.045   .     S
N388   H390    1.045   .     S
N391   H392    1.044   .     S
N391   H393    1.045   .     S
N394   H395    1.045   .     S
N394   H396    1.045   .     S
C397   O433    1.281   .     A
C397   C422    1.416   .     S
C397   O436    1.279   .     A
C398   C421    1.418   .     S
C398   O434    1.279   .     A
C398   O435    1.282   .     A
C399   O437    1.282   .     A
C399   O440    1.284   .     A
C399   C417    1.426   .     S
C400   O439    1.285   .     A
C400   C418    1.438   .     S
C400   O438    1.287   .     A
C401   N432    1.366   .     A
C401   H423    1.082   .     S
C402   N431    1.366   .     A
C402   H424    1.082   .     S
C402   C7      1.417   1_565 S
C403   N432    1.366   .     A
C403   H425    1.082   .     S
C404   H426    1.082   .     S
C404   N431    1.366   .     A
C404   C5      1.417   1_565 S
C405   N451    1.438   .     S
C405   C422    1.402   .     A
C405   C539    1.387   1_455 S
C406   C421    1.403   .     A
C406   N454    1.437   .     S
C406   C474    1.388   .     S
C407   N457    1.438   .     S
C407   C421    1.404   .     A
C407   C471    1.387   .     S
C408   N460    1.438   .     S
C408   C422    1.402   .     A
C408   C538    1.388   1_455 S
C409   C413    1.382   .     A
C409   C419    1.396   .     A
C409   H427    1.084   .     S
C410   C414    1.382   .     A
C410   C420    1.395   .     A
C410   H428    1.084   .     S
C411   C415    1.390   .     A
C411   C420    1.395   .     A
C411   H429    1.084   .     S
C412   C416    1.392   .     A
C412   C419    1.397   .     A
C412   H430    1.084   .     S
C413   C417    1.412   .     A
C413   O443    1.382   .     S
C414   C418    1.416   .     A
C414   O445    1.381   .     S
C415   O447    1.383   .     S
C415   C418    1.406   .     A
C416   C417    1.402   .     A
C416   O449    1.382   .     S
C419   C1014   1.444   1_554 S
C420   C1013   1.444   .     S
N431   Zn441   2.009   .     S
N432   Zn442   2.009   .     S
O433   Zn441   1.996   .     S
O434   Zn442   1.996   .     S
O435   Zn441   1.996   .     S
O436   Zn442   1.996   .     S
O437   Zn441   1.994   .     S
O438   Zn442   1.994   .     S
O439   Zn441   1.998   .     S
O440   Zn442   1.998   .     S
O443   H444    0.988   .     S
O445   H446    0.990   .     S
O447   H448    0.992   .     S
O449   H450    0.992   .     S
N451   H452    1.045   .     S
N451   H453    1.045   .     S
N454   H455    1.045   .     S
N454   H456    1.045   .     S
N457   H458    1.044   .     S
N457   H459    1.045   .     S
N460   H461    1.045   .     S
N460   H462    1.045   .     S
C463   O499    1.281   .     A
C463   C488    1.416   .     S
C463   O502    1.279   .     A
C464   C487    1.418   .     S
C464   O500    1.279   .     A
C464   O501    1.282   .     A
C465   O503    1.282   .     A
C465   O506    1.284   .     A
C465   C483    1.426   .     S
C466   O505    1.285   .     A
C466   C484    1.438   .     S
C466   O504    1.287   .     A
C467   N498    1.366   .     A
C467   H489    1.082   .     S
C468   N497    1.366   .     A
C468   H490    1.082   .     S
C468   C73     1.417   1_565 S
C469   N498    1.366   .     A
C469   H491    1.082   .     S
C470   H492    1.082   .     S
C470   N497    1.366   .     A
C470   C71     1.417   1_565 S
C471   N517    1.438   .     S
C471   C488    1.402   .     A
C472   C487    1.403   .     A
C472   N520    1.437   .     S
C472   C540    1.388   .     S
C473   N523    1.438   .     S
C473   C487    1.404   .     A
C473   C537    1.387   .     S
C474   N526    1.438   .     S
C474   C488    1.402   .     A
C475   C479    1.382   .     A
C475   C485    1.396   .     A
C475   H493    1.084   .     S
C476   C480    1.382   .     A
C476   C486    1.395   .     A
C476   H494    1.084   .     S
C477   C481    1.390   .     A
C477   C486    1.395   .     A
C477   H495    1.084   .     S
C478   C482    1.392   .     A
C478   C485    1.397   .     A
C478   H496    1.084   .     S
C479   C483    1.412   .     A
C479   O509    1.382   .     S
C480   C484    1.416   .     A
C480   O511    1.381   .     S
C481   O513    1.383   .     S
C481   C484    1.406   .     A
C482   C483    1.402   .     A
C482   O515    1.382   .     S
C485   C1080   1.444   1_554 S
C486   C1079   1.444   .     S
N497   Zn507   2.009   .     S
N498   Zn508   2.009   .     S
O499   Zn507   1.996   .     S
O500   Zn508   1.996   .     S
O501   Zn507   1.996   .     S
O502   Zn508   1.996   .     S
O503   Zn507   1.994   .     S
O504   Zn508   1.994   .     S
O505   Zn507   1.998   .     S
O506   Zn508   1.998   .     S
O509   H510    0.988   .     S
O511   H512    0.990   .     S
O513   H514    0.992   .     S
O515   H516    0.992   .     S
N517   H518    1.045   .     S
N517   H519    1.045   .     S
N520   H521    1.045   .     S
N520   H522    1.045   .     S
N523   H524    1.044   .     S
N523   H525    1.045   .     S
N526   H527    1.045   .     S
N526   H528    1.045   .     S
C529   O565    1.281   .     A
C529   C554    1.416   .     S
C529   O568    1.279   .     A
C530   C553    1.418   .     S
C530   O566    1.279   .     A
C530   O567    1.282   .     A
C531   O569    1.282   .     A
C531   O572    1.284   .     A
C531   C549    1.426   .     S
C532   O571    1.285   .     A
C532   C550    1.438   .     S
C532   O570    1.287   .     A
C533   N564    1.366   .     A
C533   H555    1.082   .     S
C534   N563    1.366   .     A
C534   H556    1.082   .     S
C534   C139    1.417   1_565 S
C535   N564    1.366   .     A
C535   H557    1.082   .     S
C536   H558    1.082   .     S
C536   N563    1.366   .     A
C536   C137    1.417   1_565 S
C537   N583    1.438   .     S
C537   C554    1.402   .     A
C538   C553    1.403   .     A
C538   N586    1.437   .     S
C538   C408    1.388   1_655 S
C539   N589    1.438   .     S
C539   C553    1.404   .     A
C539   C405    1.387   1_655 S
C540   N592    1.438   .     S
C540   C554    1.402   .     A
C541   C545    1.382   .     A
C541   C551    1.396   .     A
C541   H559    1.084   .     S
C542   C546    1.382   .     A
C542   C552    1.395   .     A
C542   H560    1.084   .     S
C543   C547    1.390   .     A
C543   C552    1.395   .     A
C543   H561    1.084   .     S
C544   C548    1.392   .     A
C544   C551    1.397   .     A
C544   H562    1.084   .     S
C545   C549    1.412   .     A
C545   O575    1.382   .     S
C546   C550    1.416   .     A
C546   O577    1.381   .     S
C547   O579    1.383   .     S
C547   C550    1.406   .     A
C548   C549    1.402   .     A
C548   O581    1.382   .     S
C551   C1146   1.444   1_554 S
C552   C1145   1.444   .     S
N563   Zn573   2.009   .     S
N564   Zn574   2.009   .     S
O565   Zn573   1.996   .     S
O566   Zn574   1.996   .     S
O567   Zn573   1.996   .     S
O568   Zn574   1.996   .     S
O569   Zn573   1.994   .     S
O570   Zn574   1.994   .     S
O571   Zn573   1.998   .     S
O572   Zn574   1.998   .     S
O575   H576    0.988   .     S
O577   H578    0.990   .     S
O579   H580    0.992   .     S
O581   H582    0.992   .     S
N583   H584    1.045   .     S
N583   H585    1.045   .     S
N586   H587    1.045   .     S
N586   H588    1.045   .     S
N589   H590    1.044   .     S
N589   H591    1.045   .     S
N592   H593    1.045   .     S
N592   H594    1.045   .     S
C595   O631    1.281   .     A
C595   C620    1.416   .     S
C595   O634    1.279   .     A
C596   C619    1.418   .     S
C596   O632    1.279   .     A
C596   O633    1.282   .     A
C597   O635    1.282   .     A
C597   O638    1.284   .     A
C597   C615    1.426   .     S
C598   O637    1.285   .     A
C598   C616    1.438   .     S
C598   O636    1.287   .     A
C599   N630    1.366   .     A
C599   H621    1.082   .     S
C599   C998    1.417   1_545 S
C600   N629    1.366   .     A
C600   H622    1.082   .     S
C600   C799    1.417   .     S
C601   N630    1.366   .     A
C601   H623    1.082   .     S
C601   C996    1.417   1_545 S
C602   H624    1.082   .     S
C602   N629    1.366   .     A
C602   C797    1.417   .     S
C603   N649    1.438   .     S
C603   C620    1.402   .     A
C603   C737    1.387   1_455 S
C604   C619    1.403   .     A
C604   N652    1.437   .     S
C604   C672    1.388   .     S
C605   N655    1.438   .     S
C605   C619    1.404   .     A
C605   C669    1.387   .     S
C606   N658    1.438   .     S
C606   C620    1.402   .     A
C606   C736    1.388   1_455 S
C607   C611    1.382   .     A
C607   C617    1.396   .     A
C607   H625    1.084   .     S
C608   C612    1.382   .     A
C608   C618    1.395   .     A
C608   H626    1.084   .     S
C609   C613    1.390   .     A
C609   C618    1.395   .     A
C609   H627    1.084   .     S
C610   C614    1.392   .     A
C610   C617    1.397   .     A
C610   H628    1.084   .     S
C611   C615    1.412   .     A
C611   O641    1.382   .     S
C612   C616    1.416   .     A
C612   O643    1.381   .     S
C613   O645    1.383   .     S
C613   C616    1.406   .     A
C614   C615    1.402   .     A
C614   O647    1.382   .     S
C618   C23     1.444   1_556 S
N629   Zn639   2.009   .     S
N630   Zn640   2.009   .     S
O631   Zn639   1.996   .     S
O632   Zn640   1.996   .     S
O633   Zn639   1.996   .     S
O634   Zn640   1.996   .     S
O635   Zn639   1.994   .     S
O636   Zn640   1.994   .     S
O637   Zn639   1.998   .     S
O638   Zn640   1.998   .     S
O641   H642    0.988   .     S
O643   H644    0.990   .     S
O645   H646    0.992   .     S
O647   H648    0.992   .     S
N649   H650    1.045   .     S
N649   H651    1.045   .     S
N652   H653    1.045   .     S
N652   H654    1.045   .     S
N655   H656    1.044   .     S
N655   H657    1.045   .     S
N658   H659    1.045   .     S
N658   H660    1.045   .     S
C661   O697    1.281   .     A
C661   C686    1.416   .     S
C661   O700    1.279   .     A
C662   C685    1.418   .     S
C662   O698    1.279   .     A
C662   O699    1.282   .     A
C663   O701    1.282   .     A
C663   O704    1.284   .     A
C663   C681    1.426   .     S
C664   O703    1.285   .     A
C664   C682    1.438   .     S
C664   O702    1.287   .     A
C665   N696    1.366   .     A
C665   H687    1.082   .     S
C665   C1064   1.417   1_545 S
C666   N695    1.366   .     A
C666   H688    1.082   .     S
C666   C865    1.417   .     S
C667   N696    1.366   .     A
C667   H689    1.082   .     S
C667   C1062   1.417   1_545 S
C668   H690    1.082   .     S
C668   N695    1.366   .     A
C668   C863    1.417   .     S
C669   N715    1.438   .     S
C669   C686    1.402   .     A
C670   C685    1.403   .     A
C670   N718    1.437   .     S
C670   C738    1.388   .     S
C671   N721    1.438   .     S
C671   C685    1.404   .     A
C671   C735    1.387   .     S
C672   N724    1.438   .     S
C672   C686    1.402   .     A
C673   C677    1.382   .     A
C673   C683    1.396   .     A
C673   H691    1.084   .     S
C674   C678    1.382   .     A
C674   C684    1.395   .     A
C674   H692    1.084   .     S
C675   C679    1.390   .     A
C675   C684    1.395   .     A
C675   H693    1.084   .     S
C676   C680    1.392   .     A
C676   C683    1.397   .     A
C676   H694    1.084   .     S
C677   C681    1.412   .     A
C677   O707    1.382   .     S
C678   C682    1.416   .     A
C678   O709    1.381   .     S
C679   O711    1.383   .     S
C679   C682    1.406   .     A
C680   C681    1.402   .     A
C680   O713    1.382   .     S
C684   C89     1.444   1_556 S
N695   Zn705   2.009   .     S
N696   Zn706   2.009   .     S
O697   Zn705   1.996   .     S
O698   Zn706   1.996   .     S
O699   Zn705   1.996   .     S
O700   Zn706   1.996   .     S
O701   Zn705   1.994   .     S
O702   Zn706   1.994   .     S
O703   Zn705   1.998   .     S
O704   Zn706   1.998   .     S
O707   H708    0.988   .     S
O709   H710    0.990   .     S
O711   H712    0.992   .     S
O713   H714    0.992   .     S
N715   H716    1.045   .     S
N715   H717    1.045   .     S
N718   H719    1.045   .     S
N718   H720    1.045   .     S
N721   H722    1.044   .     S
N721   H723    1.045   .     S
N724   H725    1.045   .     S
N724   H726    1.045   .     S
C727   O763    1.281   .     A
C727   C752    1.416   .     S
C727   O766    1.279   .     A
C728   C751    1.418   .     S
C728   O764    1.279   .     A
C728   O765    1.282   .     A
C729   O767    1.282   .     A
C729   O770    1.284   .     A
C729   C747    1.426   .     S
C730   O769    1.285   .     A
C730   C748    1.438   .     S
C730   O768    1.287   .     A
C731   N762    1.366   .     A
C731   H753    1.082   .     S
C731   C1130   1.417   1_545 S
C732   N761    1.366   .     A
C732   H754    1.082   .     S
C732   C931    1.417   .     S
C733   N762    1.366   .     A
C733   H755    1.082   .     S
C733   C1128   1.417   1_545 S
C734   H756    1.082   .     S
C734   N761    1.366   .     A
C734   C929    1.417   .     S
C735   N781    1.438   .     S
C735   C752    1.402   .     A
C736   C751    1.403   .     A
C736   N784    1.437   .     S
C736   C606    1.388   1_655 S
C737   N787    1.438   .     S
C737   C751    1.404   .     A
C737   C603    1.387   1_655 S
C738   N790    1.438   .     S
C738   C752    1.402   .     A
C739   C743    1.382   .     A
C739   C749    1.396   .     A
C739   H757    1.084   .     S
C740   C744    1.382   .     A
C740   C750    1.395   .     A
C740   H758    1.084   .     S
C741   C745    1.390   .     A
C741   C750    1.395   .     A
C741   H759    1.084   .     S
C742   C746    1.392   .     A
C742   C749    1.397   .     A
C742   H760    1.084   .     S
C743   C747    1.412   .     A
C743   O773    1.382   .     S
C744   C748    1.416   .     A
C744   O775    1.381   .     S
C745   O777    1.383   .     S
C745   C748    1.406   .     A
C746   C747    1.402   .     A
C746   O779    1.382   .     S
C750   C155    1.444   1_556 S
N761   Zn771   2.009   .     S
N762   Zn772   2.009   .     S
O763   Zn771   1.996   .     S
O764   Zn772   1.996   .     S
O765   Zn771   1.996   .     S
O766   Zn772   1.996   .     S
O767   Zn771   1.994   .     S
O768   Zn772   1.994   .     S
O769   Zn771   1.998   .     S
O770   Zn772   1.998   .     S
O773   H774    0.988   .     S
O775   H776    0.990   .     S
O777   H778    0.992   .     S
O779   H780    0.992   .     S
N781   H782    1.045   .     S
N781   H783    1.045   .     S
N784   H785    1.045   .     S
N784   H786    1.045   .     S
N787   H788    1.044   .     S
N787   H789    1.045   .     S
N790   H791    1.045   .     S
N790   H792    1.045   .     S
C793   O829    1.281   .     A
C793   C818    1.416   .     S
C793   O832    1.279   .     A
C794   C817    1.418   .     S
C794   O830    1.279   .     A
C794   O831    1.282   .     A
C795   O833    1.282   .     A
C795   O836    1.284   .     A
C795   C813    1.426   .     S
C796   O835    1.285   .     A
C796   C814    1.438   .     S
C796   O834    1.287   .     A
C797   N828    1.366   .     A
C797   H819    1.082   .     S
C798   N827    1.366   .     A
C798   H820    1.082   .     S
C798   C997    1.417   .     S
C799   N828    1.366   .     A
C799   H821    1.082   .     S
C800   H822    1.082   .     S
C800   N827    1.366   .     A
C800   C995    1.417   .     S
C801   N847    1.438   .     S
C801   C818    1.402   .     A
C801   C935    1.387   1_455 S
C802   C817    1.403   .     A
C802   N850    1.437   .     S
C802   C870    1.388   .     S
C803   N853    1.438   .     S
C803   C817    1.404   .     A
C803   C867    1.387   .     S
C804   N856    1.438   .     S
C804   C818    1.402   .     A
C804   C934    1.388   1_455 S
C805   C809    1.382   .     A
C805   C815    1.396   .     A
C805   H823    1.084   .     S
C806   C810    1.382   .     A
C806   C816    1.395   .     A
C806   H824    1.084   .     S
C807   C811    1.390   .     A
C807   C816    1.395   .     A
C807   H825    1.084   .     S
C808   C812    1.392   .     A
C808   C815    1.397   .     A
C808   H826    1.084   .     S
C809   C813    1.412   .     A
C809   O839    1.382   .     S
C810   C814    1.416   .     A
C810   O841    1.381   .     S
C811   O843    1.383   .     S
C811   C814    1.406   .     A
C812   C813    1.402   .     A
C812   O845    1.382   .     S
C816   C221    1.444   1_556 S
N827   Zn837   2.009   .     S
N828   Zn838   2.009   .     S
O829   Zn837   1.996   .     S
O830   Zn838   1.996   .     S
O831   Zn837   1.996   .     S
O832   Zn838   1.996   .     S
O833   Zn837   1.994   .     S
O834   Zn838   1.994   .     S
O835   Zn837   1.998   .     S
O836   Zn838   1.998   .     S
O839   H840    0.988   .     S
O841   H842    0.990   .     S
O843   H844    0.992   .     S
O845   H846    0.992   .     S
N847   H848    1.045   .     S
N847   H849    1.045   .     S
N850   H851    1.045   .     S
N850   H852    1.045   .     S
N853   H854    1.044   .     S
N853   H855    1.045   .     S
N856   H857    1.045   .     S
N856   H858    1.045   .     S
C859   O895    1.281   .     A
C859   C884    1.416   .     S
C859   O898    1.279   .     A
C860   C883    1.418   .     S
C860   O896    1.279   .     A
C860   O897    1.282   .     A
C861   O899    1.282   .     A
C861   O902    1.284   .     A
C861   C879    1.426   .     S
C862   O901    1.285   .     A
C862   C880    1.438   .     S
C862   O900    1.287   .     A
C863   N894    1.366   .     A
C863   H885    1.082   .     S
C864   N893    1.366   .     A
C864   H886    1.082   .     S
C864   C1063   1.417   .     S
C865   N894    1.366   .     A
C865   H887    1.082   .     S
C866   H888    1.082   .     S
C866   N893    1.366   .     A
C866   C1061   1.417   .     S
C867   N913    1.438   .     S
C867   C884    1.402   .     A
C868   C883    1.403   .     A
C868   N916    1.437   .     S
C868   C936    1.388   .     S
C869   N919    1.438   .     S
C869   C883    1.404   .     A
C869   C933    1.387   .     S
C870   N922    1.438   .     S
C870   C884    1.402   .     A
C871   C875    1.382   .     A
C871   C881    1.396   .     A
C871   H889    1.084   .     S
C872   C876    1.382   .     A
C872   C882    1.395   .     A
C872   H890    1.084   .     S
C873   C877    1.390   .     A
C873   C882    1.395   .     A
C873   H891    1.084   .     S
C874   C878    1.392   .     A
C874   C881    1.397   .     A
C874   H892    1.084   .     S
C875   C879    1.412   .     A
C875   O905    1.382   .     S
C876   C880    1.416   .     A
C876   O907    1.381   .     S
C877   O909    1.383   .     S
C877   C880    1.406   .     A
C878   C879    1.402   .     A
C878   O911    1.382   .     S
C882   C287    1.444   1_556 S
N893   Zn903   2.009   .     S
N894   Zn904   2.009   .     S
O895   Zn903   1.996   .     S
O896   Zn904   1.996   .     S
O897   Zn903   1.996   .     S
O898   Zn904   1.996   .     S
O899   Zn903   1.994   .     S
O900   Zn904   1.994   .     S
O901   Zn903   1.998   .     S
O902   Zn904   1.998   .     S
O905   H906    0.988   .     S
O907   H908    0.990   .     S
O909   H910    0.992   .     S
O911   H912    0.992   .     S
N913   H914    1.045   .     S
N913   H915    1.045   .     S
N916   H917    1.045   .     S
N916   H918    1.045   .     S
N919   H920    1.044   .     S
N919   H921    1.045   .     S
N922   H923    1.045   .     S
N922   H924    1.045   .     S
C925   O961    1.281   .     A
C925   C950    1.416   .     S
C925   O964    1.279   .     A
C926   C949    1.418   .     S
C926   O962    1.279   .     A
C926   O963    1.282   .     A
C927   O965    1.282   .     A
C927   O968    1.284   .     A
C927   C945    1.426   .     S
C928   O967    1.285   .     A
C928   C946    1.438   .     S
C928   O966    1.287   .     A
C929   N960    1.366   .     A
C929   H951    1.082   .     S
C930   N959    1.366   .     A
C930   H952    1.082   .     S
C930   C1129   1.417   .     S
C931   N960    1.366   .     A
C931   H953    1.082   .     S
C932   H954    1.082   .     S
C932   N959    1.366   .     A
C932   C1127   1.417   .     S
C933   N979    1.438   .     S
C933   C950    1.402   .     A
C934   C949    1.403   .     A
C934   N982    1.437   .     S
C934   C804    1.388   1_655 S
C935   N985    1.438   .     S
C935   C949    1.404   .     A
C935   C801    1.387   1_655 S
C936   N988    1.438   .     S
C936   C950    1.402   .     A
C937   C941    1.382   .     A
C937   C947    1.396   .     A
C937   H955    1.084   .     S
C938   C942    1.382   .     A
C938   C948    1.395   .     A
C938   H956    1.084   .     S
C939   C943    1.390   .     A
C939   C948    1.395   .     A
C939   H957    1.084   .     S
C940   C944    1.392   .     A
C940   C947    1.397   .     A
C940   H958    1.084   .     S
C941   C945    1.412   .     A
C941   O971    1.382   .     S
C942   C946    1.416   .     A
C942   O973    1.381   .     S
C943   O975    1.383   .     S
C943   C946    1.406   .     A
C944   C945    1.402   .     A
C944   O977    1.382   .     S
C948   C353    1.444   1_556 S
N959   Zn969   2.009   .     S
N960   Zn970   2.009   .     S
O961   Zn969   1.996   .     S
O962   Zn970   1.996   .     S
O963   Zn969   1.996   .     S
O964   Zn970   1.996   .     S
O965   Zn969   1.994   .     S
O966   Zn970   1.994   .     S
O967   Zn969   1.998   .     S
O968   Zn970   1.998   .     S
O971   H972    0.988   .     S
O973   H974    0.990   .     S
O975   H976    0.992   .     S
O977   H978    0.992   .     S
N979   H980    1.045   .     S
N979   H981    1.045   .     S
N982   H983    1.045   .     S
N982   H984    1.045   .     S
N985   H986    1.044   .     S
N985   H987    1.045   .     S
N988   H989    1.045   .     S
N988   H990    1.045   .     S
C991   O1027   1.281   .     A
C991   C1016   1.416   .     S
C991   O1030   1.279   .     A
C992   C1015   1.418   .     S
C992   O1028   1.279   .     A
C992   O1029   1.282   .     A
C993   O1031   1.282   .     A
C993   O1034   1.284   .     A
C993   C1011   1.426   .     S
C994   O1033   1.285   .     A
C994   C1012   1.438   .     S
C994   O1032   1.287   .     A
C995   N1026   1.366   .     A
C995   H1017   1.082   .     S
C996   N1025   1.366   .     A
C996   H1018   1.082   .     S
C996   C601    1.417   1_565 S
C997   N1026   1.366   .     A
C997   H1019   1.082   .     S
C998   H1020   1.082   .     S
C998   N1025   1.366   .     A
C998   C599    1.417   1_565 S
C999   N1045   1.438   .     S
C999   C1016   1.402   .     A
C999   C1133   1.387   1_455 S
C1000  C1015   1.403   .     A
C1000  N1048   1.437   .     S
C1000  C1068   1.388   .     S
C1001  N1051   1.438   .     S
C1001  C1015   1.404   .     A
C1001  C1065   1.387   .     S
C1002  N1054   1.438   .     S
C1002  C1016   1.402   .     A
C1002  C1132   1.388   1_455 S
C1003  C1007   1.382   .     A
C1003  C1013   1.396   .     A
C1003  H1021   1.084   .     S
C1004  C1008   1.382   .     A
C1004  C1014   1.395   .     A
C1004  H1022   1.084   .     S
C1005  C1009   1.390   .     A
C1005  C1014   1.395   .     A
C1005  H1023   1.084   .     S
C1006  C1010   1.392   .     A
C1006  C1013   1.397   .     A
C1006  H1024   1.084   .     S
C1007  C1011   1.412   .     A
C1007  O1037   1.382   .     S
C1008  C1012   1.416   .     A
C1008  O1039   1.381   .     S
C1009  O1041   1.383   .     S
C1009  C1012   1.406   .     A
C1010  C1011   1.402   .     A
C1010  O1043   1.382   .     S
C1014  C419    1.444   1_556 S
N1025  Zn1035  2.009   .     S
N1026  Zn1036  2.009   .     S
O1027  Zn1035  1.996   .     S
O1028  Zn1036  1.996   .     S
O1029  Zn1035  1.996   .     S
O1030  Zn1036  1.996   .     S
O1031  Zn1035  1.994   .     S
O1032  Zn1036  1.994   .     S
O1033  Zn1035  1.998   .     S
O1034  Zn1036  1.998   .     S
O1037  H1038   0.988   .     S
O1039  H1040   0.990   .     S
O1041  H1042   0.992   .     S
O1043  H1044   0.992   .     S
N1045  H1046   1.045   .     S
N1045  H1047   1.045   .     S
N1048  H1049   1.045   .     S
N1048  H1050   1.045   .     S
N1051  H1052   1.044   .     S
N1051  H1053   1.045   .     S
N1054  H1055   1.045   .     S
N1054  H1056   1.045   .     S
C1057  O1093   1.281   .     A
C1057  C1082   1.416   .     S
C1057  O1096   1.279   .     A
C1058  C1081   1.418   .     S
C1058  O1094   1.279   .     A
C1058  O1095   1.282   .     A
C1059  O1097   1.282   .     A
C1059  O1100   1.284   .     A
C1059  C1077   1.426   .     S
C1060  O1099   1.285   .     A
C1060  C1078   1.438   .     S
C1060  O1098   1.287   .     A
C1061  N1092   1.366   .     A
C1061  H1083   1.082   .     S
C1062  N1091   1.366   .     A
C1062  H1084   1.082   .     S
C1062  C667    1.417   1_565 S
C1063  N1092   1.366   .     A
C1063  H1085   1.082   .     S
C1064  H1086   1.082   .     S
C1064  N1091   1.366   .     A
C1064  C665    1.417   1_565 S
C1065  N1111   1.438   .     S
C1065  C1082   1.402   .     A
C1066  C1081   1.403   .     A
C1066  N1114   1.437   .     S
C1066  C1134   1.388   .     S
C1067  N1117   1.438   .     S
C1067  C1081   1.404   .     A
C1067  C1131   1.387   .     S
C1068  N1120   1.438   .     S
C1068  C1082   1.402   .     A
C1069  C1073   1.382   .     A
C1069  C1079   1.396   .     A
C1069  H1087   1.084   .     S
C1070  C1074   1.382   .     A
C1070  C1080   1.395   .     A
C1070  H1088   1.084   .     S
C1071  C1075   1.390   .     A
C1071  C1080   1.395   .     A
C1071  H1089   1.084   .     S
C1072  C1076   1.392   .     A
C1072  C1079   1.397   .     A
C1072  H1090   1.084   .     S
C1073  C1077   1.412   .     A
C1073  O1103   1.382   .     S
C1074  C1078   1.416   .     A
C1074  O1105   1.381   .     S
C1075  O1107   1.383   .     S
C1075  C1078   1.406   .     A
C1076  C1077   1.402   .     A
C1076  O1109   1.382   .     S
C1080  C485    1.444   1_556 S
N1091  Zn1101  2.009   .     S
N1092  Zn1102  2.009   .     S
O1093  Zn1101  1.996   .     S
O1094  Zn1102  1.996   .     S
O1095  Zn1101  1.996   .     S
O1096  Zn1102  1.996   .     S
O1097  Zn1101  1.994   .     S
O1098  Zn1102  1.994   .     S
O1099  Zn1101  1.998   .     S
O1100  Zn1102  1.998   .     S
O1103  H1104   0.988   .     S
O1105  H1106   0.990   .     S
O1107  H1108   0.992   .     S
O1109  H1110   0.992   .     S
N1111  H1112   1.045   .     S
N1111  H1113   1.045   .     S
N1114  H1115   1.045   .     S
N1114  H1116   1.045   .     S
N1117  H1118   1.044   .     S
N1117  H1119   1.045   .     S
N1120  H1121   1.045   .     S
N1120  H1122   1.045   .     S
C1123  O1159   1.281   .     A
C1123  C1148   1.416   .     S
C1123  O1162   1.279   .     A
C1124  C1147   1.418   .     S
C1124  O1160   1.279   .     A
C1124  O1161   1.282   .     A
C1125  O1163   1.282   .     A
C1125  O1166   1.284   .     A
C1125  C1143   1.426   .     S
C1126  O1165   1.285   .     A
C1126  C1144   1.438   .     S
C1126  O1164   1.287   .     A
C1127  N1158   1.366   .     A
C1127  H1149   1.082   .     S
C1128  N1157   1.366   .     A
C1128  H1150   1.082   .     S
C1128  C733    1.417   1_565 S
C1129  N1158   1.366   .     A
C1129  H1151   1.082   .     S
C1130  H1152   1.082   .     S
C1130  N1157   1.366   .     A
C1130  C731    1.417   1_565 S
C1131  N1177   1.438   .     S
C1131  C1148   1.402   .     A
C1132  C1147   1.403   .     A
C1132  N1180   1.437   .     S
C1132  C1002   1.388   1_655 S
C1133  N1183   1.438   .     S
C1133  C1147   1.404   .     A
C1133  C999    1.387   1_655 S
C1134  N1186   1.438   .     S
C1134  C1148   1.402   .     A
C1135  C1139   1.382   .     A
C1135  C1145   1.396   .     A
C1135  H1153   1.084   .     S
C1136  C1140   1.382   .     A
C1136  C1146   1.395   .     A
C1136  H1154   1.084   .     S
C1137  C1141   1.390   .     A
C1137  C1146   1.395   .     A
C1137  H1155   1.084   .     S
C1138  C1142   1.392   .     A
C1138  C1145   1.397   .     A
C1138  H1156   1.084   .     S
C1139  C1143   1.412   .     A
C1139  O1169   1.382   .     S
C1140  C1144   1.416   .     A
C1140  O1171   1.381   .     S
C1141  O1173   1.383   .     S
C1141  C1144   1.406   .     A
C1142  C1143   1.402   .     A
C1142  O1175   1.382   .     S
C1146  C551    1.444   1_556 S
N1157  Zn1167  2.009   .     S
N1158  Zn1168  2.009   .     S
O1159  Zn1167  1.996   .     S
O1160  Zn1168  1.996   .     S
O1161  Zn1167  1.996   .     S
O1162  Zn1168  1.996   .     S
O1163  Zn1167  1.994   .     S
O1164  Zn1168  1.994   .     S
O1165  Zn1167  1.998   .     S
O1166  Zn1168  1.998   .     S
O1169  H1170   0.988   .     S
O1171  H1172   0.990   .     S
O1173  H1174   0.992   .     S
O1175  H1176   0.992   .     S
N1177  H1178   1.045   .     S
N1177  H1179   1.045   .     S
N1180  H1181   1.045   .     S
N1180  H1182   1.045   .     S
N1183  H1184   1.044   .     S
N1183  H1185   1.045   .     S
N1186  H1187   1.045   .     S
N1186  H1188   1.045   .     S
