data_str_m2_o10_o16_pcu_sym.54
_audit_creation_date              2020-01-03
_audit_creation_method            'Materials Studio'
_symmetry_space_group_name_H-M    'P1'
_symmetry_Int_Tables_number       1
_symmetry_cell_setting            triclinic
loop_
_symmetry_equiv_pos_as_xyz
  x,y,z
_cell_length_a                    22.4070
_cell_length_b                    26.1553
_cell_length_c                    26.7843
_cell_angle_alpha                 93.8948
_cell_angle_beta                  78.4781
_cell_angle_gamma                 102.3786
loop_
_atom_site_label
_atom_site_type_symbol
_atom_site_fract_x
_atom_site_fract_y
_atom_site_fract_z
_atom_site_U_iso_or_equiv
_atom_site_adp_type
_atom_site_occupancy
O1     O     0.12797   0.23807   0.24633   0.00000  Uiso   1.00
O2     O     0.22858   0.24755   0.25587   0.00000  Uiso   1.00
C3     C     0.18160   0.26636   0.25044   0.00000  Uiso   1.00
O4     O     0.09181   0.15960   0.31840   0.00000  Uiso   1.00
O5     O     0.19242   0.16908   0.32793   0.00000  Uiso   1.00
C6     C     0.13356   0.15492   0.34551   0.00000  Uiso   1.00
Cu7    Cu    0.10710   0.16105   0.24436   0.00000  Uiso   1.00
Cu8    Cu    0.22623   0.17228   0.25565   0.00000  Uiso   1.00
O9     O     0.10476   0.08578   0.24414   0.00000  Uiso   1.00
O10    O     0.20536   0.09526   0.25367   0.00000  Uiso   1.00
O11    O     0.14092   0.16425   0.17207   0.00000  Uiso   1.00
O12    O     0.24152   0.17373   0.18161   0.00000  Uiso   1.00
C13    C     0.15174   0.06684   0.24966   0.00000  Uiso   1.00
C14    C     0.19981   0.17021   0.15312   0.00000  Uiso   1.00
C15    C     0.29554   0.19261   0.02113   0.00000  Uiso   1.00
H16    H     0.31555   0.20548   0.09640   0.00000  Uiso   1.00
H17    H     0.31698   0.17690   0.42113   0.00000  Uiso   1.00
H18    H     0.01033   0.20689   0.00338   0.00000  Uiso   1.00
C19    C     0.21817   0.17212   0.09760   0.00000  Uiso   1.00
C20    C     0.05524   0.11062   0.41793   0.00000  Uiso   1.00
C21    C     0.03636   0.10043   0.46968   0.00000  Uiso   1.00
C22    C     0.07798   0.11643   0.00284   0.00000  Uiso   1.00
C23    C     0.14157   0.13722   0.48355   0.00000  Uiso   1.00
C24    C     0.16121   0.13900   0.42999   0.00000  Uiso   1.00
C25    C     0.18709   0.15478   0.01474   0.00000  Uiso   1.00
C26    C     0.25024   0.17321   0.49142   0.00000  Uiso   1.00
C27    C     0.26843   0.16725   0.43893   0.00000  Uiso   1.00
C28    C     0.22500   0.14286   0.41011   0.00000  Uiso   1.00
C29    C     0.17222   0.15498   0.06803   0.00000  Uiso   1.00
C30    C     0.27975   0.19144   0.07402   0.00000  Uiso   1.00
C31    C     0.11633   0.13477   0.39830   0.00000  Uiso   1.00
H32    H     0.12511   0.14127   0.08746   0.00000  Uiso   1.00
H33    H     0.02228   0.09990   0.39309   0.00000  Uiso   1.00
H34    H     0.05932   0.11042   0.04278   0.00000  Uiso   1.00
H35    H     0.32176   0.08237   0.48454   0.00000  Uiso   1.00
C36    C     0.19062   0.32116   0.24334   0.00000  Uiso   1.00
C37    C     0.14259   0.01217   0.25879   0.00000  Uiso   1.00
N38    N     0.31574   0.18074   0.26416   0.00000  Uiso   1.00
H39    H     0.00316   0.20497   0.29049   0.00000  Uiso   1.00
N40    N     0.01759   0.15259   0.23584   0.00000  Uiso   1.00
H41    H     0.33042   0.12893   0.20910   0.00000  Uiso   1.00
N42    N     0.08536   0.32083   0.29108   0.00000  Uiso   1.00
O43    O     0.08704   0.29748   0.33204   0.00000  Uiso   1.00
O44    O     0.03216   0.32823   0.28381   0.00000  Uiso   1.00
Br45   Br    0.25128   0.09441   0.35693   0.00000  Uiso   1.00
Br46   Br    0.26852   0.01788   0.19976   0.00000  Uiso   1.00
O47    O     0.46131   0.23807   0.24633   0.00000  Uiso   1.00
O48    O     0.56191   0.24755   0.25587   0.00000  Uiso   1.00
C49    C     0.51493   0.26636   0.25044   0.00000  Uiso   1.00
O50    O     0.42515   0.15960   0.31840   0.00000  Uiso   1.00
O51    O     0.52575   0.16908   0.32793   0.00000  Uiso   1.00
C52    C     0.46690   0.15492   0.34551   0.00000  Uiso   1.00
Cu53   Cu    0.44043   0.16105   0.24436   0.00000  Uiso   1.00
Cu54   Cu    0.55957   0.17228   0.25565   0.00000  Uiso   1.00
O55    O     0.43809   0.08578   0.24414   0.00000  Uiso   1.00
O56    O     0.53869   0.09526   0.25367   0.00000  Uiso   1.00
O57    O     0.47425   0.16425   0.17207   0.00000  Uiso   1.00
O58    O     0.57485   0.17373   0.18161   0.00000  Uiso   1.00
C59    C     0.48507   0.06684   0.24966   0.00000  Uiso   1.00
C60    C     0.53314   0.17021   0.15312   0.00000  Uiso   1.00
C61    C     0.62887   0.19261   0.02113   0.00000  Uiso   1.00
H62    H     0.64888   0.20548   0.09640   0.00000  Uiso   1.00
H63    H     0.65031   0.17690   0.42113   0.00000  Uiso   1.00
H64    H     0.34366   0.20689   0.00338   0.00000  Uiso   1.00
C65    C     0.55151   0.17212   0.09760   0.00000  Uiso   1.00
C66    C     0.38857   0.11062   0.41793   0.00000  Uiso   1.00
C67    C     0.36970   0.10043   0.46968   0.00000  Uiso   1.00
C68    C     0.41131   0.11643   0.00284   0.00000  Uiso   1.00
C69    C     0.47491   0.13722   0.48355   0.00000  Uiso   1.00
C70    C     0.49455   0.13900   0.42999   0.00000  Uiso   1.00
C71    C     0.52043   0.15478   0.01474   0.00000  Uiso   1.00
C72    C     0.58357   0.17321   0.49142   0.00000  Uiso   1.00
C73    C     0.60176   0.16725   0.43893   0.00000  Uiso   1.00
C74    C     0.55834   0.14286   0.41011   0.00000  Uiso   1.00
C75    C     0.50555   0.15498   0.06803   0.00000  Uiso   1.00
C76    C     0.61308   0.19144   0.07402   0.00000  Uiso   1.00
C77    C     0.44966   0.13477   0.39830   0.00000  Uiso   1.00
H78    H     0.45844   0.14127   0.08746   0.00000  Uiso   1.00
H79    H     0.35562   0.09990   0.39309   0.00000  Uiso   1.00
H80    H     0.39265   0.11042   0.04278   0.00000  Uiso   1.00
H81    H     0.65510   0.08237   0.48454   0.00000  Uiso   1.00
C82    C     0.52395   0.32116   0.24334   0.00000  Uiso   1.00
C83    C     0.47592   0.01217   0.25879   0.00000  Uiso   1.00
N84    N     0.64908   0.18074   0.26416   0.00000  Uiso   1.00
H85    H     0.33649   0.20497   0.29049   0.00000  Uiso   1.00
N86    N     0.35092   0.15259   0.23584   0.00000  Uiso   1.00
H87    H     0.66375   0.12893   0.20910   0.00000  Uiso   1.00
N88    N     0.41870   0.32083   0.29108   0.00000  Uiso   1.00
O89    O     0.42037   0.29748   0.33204   0.00000  Uiso   1.00
O90    O     0.36550   0.32823   0.28381   0.00000  Uiso   1.00
Br91   Br    0.58461   0.09441   0.35693   0.00000  Uiso   1.00
Br92   Br    0.60185   0.01788   0.19976   0.00000  Uiso   1.00
O93    O     0.79464   0.23807   0.24633   0.00000  Uiso   1.00
O94    O     0.89524   0.24755   0.25587   0.00000  Uiso   1.00
C95    C     0.84827   0.26636   0.25044   0.00000  Uiso   1.00
O96    O     0.75848   0.15960   0.31840   0.00000  Uiso   1.00
O97    O     0.85908   0.16908   0.32793   0.00000  Uiso   1.00
C98    C     0.80023   0.15492   0.34551   0.00000  Uiso   1.00
Cu99   Cu    0.77377   0.16105   0.24436   0.00000  Uiso   1.00
Cu100  Cu    0.89290   0.17228   0.25565   0.00000  Uiso   1.00
O101   O     0.77142   0.08578   0.24414   0.00000  Uiso   1.00
O102   O     0.87203   0.09526   0.25367   0.00000  Uiso   1.00
O103   O     0.80758   0.16425   0.17207   0.00000  Uiso   1.00
O104   O     0.90819   0.17373   0.18161   0.00000  Uiso   1.00
C105   C     0.81841   0.06684   0.24966   0.00000  Uiso   1.00
C106   C     0.86647   0.17021   0.15312   0.00000  Uiso   1.00
C107   C     0.96220   0.19261   0.02113   0.00000  Uiso   1.00
H108   H     0.98221   0.20548   0.09640   0.00000  Uiso   1.00
H109   H     0.98364   0.17690   0.42113   0.00000  Uiso   1.00
H110   H     0.67699   0.20689   0.00338   0.00000  Uiso   1.00
C111   C     0.88484   0.17212   0.09760   0.00000  Uiso   1.00
C112   C     0.72191   0.11062   0.41793   0.00000  Uiso   1.00
C113   C     0.70303   0.10043   0.46968   0.00000  Uiso   1.00
C114   C     0.74464   0.11643   0.00284   0.00000  Uiso   1.00
C115   C     0.80824   0.13722   0.48355   0.00000  Uiso   1.00
C116   C     0.82788   0.13900   0.42999   0.00000  Uiso   1.00
C117   C     0.85376   0.15478   0.01474   0.00000  Uiso   1.00
C118   C     0.91691   0.17321   0.49142   0.00000  Uiso   1.00
C119   C     0.93510   0.16725   0.43893   0.00000  Uiso   1.00
C120   C     0.89167   0.14286   0.41011   0.00000  Uiso   1.00
C121   C     0.83889   0.15498   0.06803   0.00000  Uiso   1.00
C122   C     0.94641   0.19144   0.07402   0.00000  Uiso   1.00
C123   C     0.78300   0.13477   0.39830   0.00000  Uiso   1.00
H124   H     0.79177   0.14127   0.08746   0.00000  Uiso   1.00
H125   H     0.68895   0.09990   0.39309   0.00000  Uiso   1.00
H126   H     0.72598   0.11042   0.04278   0.00000  Uiso   1.00
H127   H     0.98843   0.08237   0.48454   0.00000  Uiso   1.00
C128   C     0.85728   0.32116   0.24334   0.00000  Uiso   1.00
C129   C     0.80926   0.01217   0.25879   0.00000  Uiso   1.00
N130   N     0.98241   0.18074   0.26416   0.00000  Uiso   1.00
H131   H     0.66983   0.20497   0.29049   0.00000  Uiso   1.00
N132   N     0.68426   0.15259   0.23584   0.00000  Uiso   1.00
H133   H     0.99709   0.12893   0.20910   0.00000  Uiso   1.00
N134   N     0.75203   0.32083   0.29108   0.00000  Uiso   1.00
O135   O     0.75371   0.29748   0.33204   0.00000  Uiso   1.00
O136   O     0.69883   0.32823   0.28381   0.00000  Uiso   1.00
Br137  Br    0.91794   0.09441   0.35693   0.00000  Uiso   1.00
Br138  Br    0.93519   0.01788   0.19976   0.00000  Uiso   1.00
O139   O     0.12797   0.57141   0.24633   0.00000  Uiso   1.00
O140   O     0.22858   0.58089   0.25587   0.00000  Uiso   1.00
C141   C     0.18160   0.59970   0.25044   0.00000  Uiso   1.00
O142   O     0.09181   0.49293   0.31840   0.00000  Uiso   1.00
O143   O     0.19242   0.50241   0.32793   0.00000  Uiso   1.00
C144   C     0.13356   0.48826   0.34551   0.00000  Uiso   1.00
Cu145  Cu    0.10710   0.49439   0.24436   0.00000  Uiso   1.00
Cu146  Cu    0.22623   0.50561   0.25565   0.00000  Uiso   1.00
O147   O     0.10476   0.41911   0.24414   0.00000  Uiso   1.00
O148   O     0.20536   0.42859   0.25367   0.00000  Uiso   1.00
O149   O     0.14092   0.49759   0.17207   0.00000  Uiso   1.00
O150   O     0.24152   0.50707   0.18161   0.00000  Uiso   1.00
C151   C     0.15174   0.40017   0.24966   0.00000  Uiso   1.00
C152   C     0.19981   0.50355   0.15312   0.00000  Uiso   1.00
C153   C     0.29554   0.52595   0.02113   0.00000  Uiso   1.00
H154   H     0.31555   0.53881   0.09640   0.00000  Uiso   1.00
H155   H     0.31698   0.51024   0.42113   0.00000  Uiso   1.00
H156   H     0.01033   0.54022   0.00338   0.00000  Uiso   1.00
C157   C     0.21817   0.50546   0.09760   0.00000  Uiso   1.00
C158   C     0.05524   0.44395   0.41793   0.00000  Uiso   1.00
C159   C     0.03636   0.43376   0.46968   0.00000  Uiso   1.00
C160   C     0.07798   0.44976   0.00284   0.00000  Uiso   1.00
C161   C     0.14157   0.47055   0.48355   0.00000  Uiso   1.00
C162   C     0.16121   0.47233   0.42999   0.00000  Uiso   1.00
C163   C     0.18709   0.48811   0.01474   0.00000  Uiso   1.00
C164   C     0.25024   0.50654   0.49142   0.00000  Uiso   1.00
C165   C     0.26843   0.50058   0.43893   0.00000  Uiso   1.00
C166   C     0.22500   0.47619   0.41011   0.00000  Uiso   1.00
C167   C     0.17222   0.48831   0.06803   0.00000  Uiso   1.00
C168   C     0.27975   0.52477   0.07402   0.00000  Uiso   1.00
C169   C     0.11633   0.46810   0.39830   0.00000  Uiso   1.00
H170   H     0.12511   0.47460   0.08746   0.00000  Uiso   1.00
H171   H     0.02228   0.43323   0.39309   0.00000  Uiso   1.00
H172   H     0.05932   0.44375   0.04278   0.00000  Uiso   1.00
H173   H     0.32176   0.41570   0.48454   0.00000  Uiso   1.00
C174   C     0.19062   0.65449   0.24334   0.00000  Uiso   1.00
C175   C     0.14259   0.34551   0.25879   0.00000  Uiso   1.00
N176   N     0.31574   0.51407   0.26416   0.00000  Uiso   1.00
H177   H     0.00316   0.53830   0.29049   0.00000  Uiso   1.00
N178   N     0.01759   0.48593   0.23584   0.00000  Uiso   1.00
H179   H     0.33042   0.46226   0.20910   0.00000  Uiso   1.00
N180   N     0.08536   0.65416   0.29108   0.00000  Uiso   1.00
O181   O     0.08704   0.63082   0.33204   0.00000  Uiso   1.00
O182   O     0.03216   0.66157   0.28381   0.00000  Uiso   1.00
Br183  Br    0.25128   0.42774   0.35693   0.00000  Uiso   1.00
Br184  Br    0.26852   0.35121   0.19976   0.00000  Uiso   1.00
O185   O     0.46131   0.57141   0.24633   0.00000  Uiso   1.00
O186   O     0.56191   0.58089   0.25587   0.00000  Uiso   1.00
C187   C     0.51493   0.59970   0.25044   0.00000  Uiso   1.00
O188   O     0.42515   0.49293   0.31840   0.00000  Uiso   1.00
O189   O     0.52575   0.50241   0.32793   0.00000  Uiso   1.00
C190   C     0.46690   0.48826   0.34551   0.00000  Uiso   1.00
Cu191  Cu    0.44043   0.49439   0.24436   0.00000  Uiso   1.00
Cu192  Cu    0.55957   0.50561   0.25565   0.00000  Uiso   1.00
O193   O     0.43809   0.41911   0.24414   0.00000  Uiso   1.00
O194   O     0.53869   0.42859   0.25367   0.00000  Uiso   1.00
O195   O     0.47425   0.49759   0.17207   0.00000  Uiso   1.00
O196   O     0.57485   0.50707   0.18161   0.00000  Uiso   1.00
C197   C     0.48507   0.40017   0.24966   0.00000  Uiso   1.00
C198   C     0.53314   0.50355   0.15312   0.00000  Uiso   1.00
C199   C     0.62887   0.52595   0.02113   0.00000  Uiso   1.00
H200   H     0.64888   0.53881   0.09640   0.00000  Uiso   1.00
H201   H     0.65031   0.51024   0.42113   0.00000  Uiso   1.00
H202   H     0.34366   0.54022   0.00338   0.00000  Uiso   1.00
C203   C     0.55151   0.50546   0.09760   0.00000  Uiso   1.00
C204   C     0.38857   0.44395   0.41793   0.00000  Uiso   1.00
C205   C     0.36970   0.43376   0.46968   0.00000  Uiso   1.00
C206   C     0.41131   0.44976   0.00284   0.00000  Uiso   1.00
C207   C     0.47491   0.47055   0.48355   0.00000  Uiso   1.00
C208   C     0.49455   0.47233   0.42999   0.00000  Uiso   1.00
C209   C     0.52043   0.48811   0.01474   0.00000  Uiso   1.00
C210   C     0.58357   0.50654   0.49142   0.00000  Uiso   1.00
C211   C     0.60176   0.50058   0.43893   0.00000  Uiso   1.00
C212   C     0.55834   0.47619   0.41011   0.00000  Uiso   1.00
C213   C     0.50555   0.48831   0.06803   0.00000  Uiso   1.00
C214   C     0.61308   0.52477   0.07402   0.00000  Uiso   1.00
C215   C     0.44966   0.46810   0.39830   0.00000  Uiso   1.00
H216   H     0.45844   0.47460   0.08746   0.00000  Uiso   1.00
H217   H     0.35562   0.43323   0.39309   0.00000  Uiso   1.00
H218   H     0.39265   0.44375   0.04278   0.00000  Uiso   1.00
H219   H     0.65510   0.41570   0.48454   0.00000  Uiso   1.00
C220   C     0.52395   0.65449   0.24334   0.00000  Uiso   1.00
C221   C     0.47592   0.34551   0.25879   0.00000  Uiso   1.00
N222   N     0.64908   0.51407   0.26416   0.00000  Uiso   1.00
H223   H     0.33649   0.53830   0.29049   0.00000  Uiso   1.00
N224   N     0.35092   0.48593   0.23584   0.00000  Uiso   1.00
H225   H     0.66375   0.46226   0.20910   0.00000  Uiso   1.00
N226   N     0.41870   0.65416   0.29108   0.00000  Uiso   1.00
O227   O     0.42037   0.63082   0.33204   0.00000  Uiso   1.00
O228   O     0.36550   0.66157   0.28381   0.00000  Uiso   1.00
Br229  Br    0.58461   0.42774   0.35693   0.00000  Uiso   1.00
Br230  Br    0.60185   0.35121   0.19976   0.00000  Uiso   1.00
O231   O     0.79464   0.57141   0.24633   0.00000  Uiso   1.00
O232   O     0.89524   0.58089   0.25587   0.00000  Uiso   1.00
C233   C     0.84827   0.59970   0.25044   0.00000  Uiso   1.00
O234   O     0.75848   0.49293   0.31840   0.00000  Uiso   1.00
O235   O     0.85908   0.50241   0.32793   0.00000  Uiso   1.00
C236   C     0.80023   0.48826   0.34551   0.00000  Uiso   1.00
Cu237  Cu    0.77377   0.49439   0.24436   0.00000  Uiso   1.00
Cu238  Cu    0.89290   0.50561   0.25565   0.00000  Uiso   1.00
O239   O     0.77142   0.41911   0.24414   0.00000  Uiso   1.00
O240   O     0.87203   0.42859   0.25367   0.00000  Uiso   1.00
O241   O     0.80758   0.49759   0.17207   0.00000  Uiso   1.00
O242   O     0.90819   0.50707   0.18161   0.00000  Uiso   1.00
C243   C     0.81841   0.40017   0.24966   0.00000  Uiso   1.00
C244   C     0.86647   0.50355   0.15312   0.00000  Uiso   1.00
C245   C     0.96220   0.52595   0.02113   0.00000  Uiso   1.00
H246   H     0.98221   0.53881   0.09640   0.00000  Uiso   1.00
H247   H     0.98364   0.51024   0.42113   0.00000  Uiso   1.00
H248   H     0.67699   0.54022   0.00338   0.00000  Uiso   1.00
C249   C     0.88484   0.50546   0.09760   0.00000  Uiso   1.00
C250   C     0.72191   0.44395   0.41793   0.00000  Uiso   1.00
C251   C     0.70303   0.43376   0.46968   0.00000  Uiso   1.00
C252   C     0.74464   0.44976   0.00284   0.00000  Uiso   1.00
C253   C     0.80824   0.47055   0.48355   0.00000  Uiso   1.00
C254   C     0.82788   0.47233   0.42999   0.00000  Uiso   1.00
C255   C     0.85376   0.48811   0.01474   0.00000  Uiso   1.00
C256   C     0.91691   0.50654   0.49142   0.00000  Uiso   1.00
C257   C     0.93510   0.50058   0.43893   0.00000  Uiso   1.00
C258   C     0.89167   0.47619   0.41011   0.00000  Uiso   1.00
C259   C     0.83889   0.48831   0.06803   0.00000  Uiso   1.00
C260   C     0.94641   0.52477   0.07402   0.00000  Uiso   1.00
C261   C     0.78300   0.46810   0.39830   0.00000  Uiso   1.00
H262   H     0.79177   0.47460   0.08746   0.00000  Uiso   1.00
H263   H     0.68895   0.43323   0.39309   0.00000  Uiso   1.00
H264   H     0.72598   0.44375   0.04278   0.00000  Uiso   1.00
H265   H     0.98843   0.41570   0.48454   0.00000  Uiso   1.00
C266   C     0.85728   0.65449   0.24334   0.00000  Uiso   1.00
C267   C     0.80926   0.34551   0.25879   0.00000  Uiso   1.00
N268   N     0.98241   0.51407   0.26416   0.00000  Uiso   1.00
H269   H     0.66983   0.53830   0.29049   0.00000  Uiso   1.00
N270   N     0.68426   0.48593   0.23584   0.00000  Uiso   1.00
H271   H     0.99709   0.46226   0.20910   0.00000  Uiso   1.00
N272   N     0.75203   0.65416   0.29108   0.00000  Uiso   1.00
O273   O     0.75371   0.63082   0.33204   0.00000  Uiso   1.00
O274   O     0.69883   0.66157   0.28381   0.00000  Uiso   1.00
Br275  Br    0.91794   0.42774   0.35693   0.00000  Uiso   1.00
Br276  Br    0.93519   0.35121   0.19976   0.00000  Uiso   1.00
O277   O     0.12797   0.90474   0.24633   0.00000  Uiso   1.00
O278   O     0.22858   0.91422   0.25587   0.00000  Uiso   1.00
C279   C     0.18160   0.93303   0.25044   0.00000  Uiso   1.00
O280   O     0.09181   0.82627   0.31840   0.00000  Uiso   1.00
O281   O     0.19242   0.83575   0.32793   0.00000  Uiso   1.00
C282   C     0.13356   0.82159   0.34551   0.00000  Uiso   1.00
Cu283  Cu    0.10710   0.82772   0.24436   0.00000  Uiso   1.00
Cu284  Cu    0.22623   0.83895   0.25565   0.00000  Uiso   1.00
O285   O     0.10476   0.75245   0.24414   0.00000  Uiso   1.00
O286   O     0.20536   0.76193   0.25367   0.00000  Uiso   1.00
O287   O     0.14092   0.83092   0.17207   0.00000  Uiso   1.00
O288   O     0.24152   0.84040   0.18161   0.00000  Uiso   1.00
C289   C     0.15174   0.73351   0.24966   0.00000  Uiso   1.00
C290   C     0.19981   0.83688   0.15312   0.00000  Uiso   1.00
C291   C     0.29554   0.85928   0.02113   0.00000  Uiso   1.00
H292   H     0.31555   0.87214   0.09640   0.00000  Uiso   1.00
H293   H     0.31698   0.84357   0.42113   0.00000  Uiso   1.00
H294   H     0.01033   0.87355   0.00338   0.00000  Uiso   1.00
C295   C     0.21817   0.83879   0.09760   0.00000  Uiso   1.00
C296   C     0.05524   0.77728   0.41793   0.00000  Uiso   1.00
C297   C     0.03636   0.76709   0.46968   0.00000  Uiso   1.00
C298   C     0.07798   0.78309   0.00284   0.00000  Uiso   1.00
C299   C     0.14157   0.80388   0.48355   0.00000  Uiso   1.00
C300   C     0.16121   0.80567   0.42999   0.00000  Uiso   1.00
C301   C     0.18709   0.82145   0.01474   0.00000  Uiso   1.00
C302   C     0.25024   0.83987   0.49142   0.00000  Uiso   1.00
C303   C     0.26843   0.83391   0.43893   0.00000  Uiso   1.00
C304   C     0.22500   0.80953   0.41011   0.00000  Uiso   1.00
C305   C     0.17222   0.82164   0.06803   0.00000  Uiso   1.00
C306   C     0.27975   0.85811   0.07402   0.00000  Uiso   1.00
C307   C     0.11633   0.80144   0.39830   0.00000  Uiso   1.00
H308   H     0.12511   0.80794   0.08746   0.00000  Uiso   1.00
H309   H     0.02228   0.76657   0.39309   0.00000  Uiso   1.00
H310   H     0.05932   0.77708   0.04278   0.00000  Uiso   1.00
H311   H     0.32176   0.74903   0.48454   0.00000  Uiso   1.00
C312   C     0.19062   0.98783   0.24334   0.00000  Uiso   1.00
C313   C     0.14259   0.67884   0.25879   0.00000  Uiso   1.00
N314   N     0.31574   0.84741   0.26416   0.00000  Uiso   1.00
H315   H     0.00316   0.87163   0.29049   0.00000  Uiso   1.00
N316   N     0.01759   0.81926   0.23584   0.00000  Uiso   1.00
H317   H     0.33042   0.79560   0.20910   0.00000  Uiso   1.00
N318   N     0.08536   0.98749   0.29108   0.00000  Uiso   1.00
O319   O     0.08704   0.96415   0.33204   0.00000  Uiso   1.00
O320   O     0.03216   0.99490   0.28381   0.00000  Uiso   1.00
Br321  Br    0.25128   0.76108   0.35693   0.00000  Uiso   1.00
Br322  Br    0.26852   0.68454   0.19976   0.00000  Uiso   1.00
O323   O     0.46131   0.90474   0.24633   0.00000  Uiso   1.00
O324   O     0.56191   0.91422   0.25587   0.00000  Uiso   1.00
C325   C     0.51493   0.93303   0.25044   0.00000  Uiso   1.00
O326   O     0.42515   0.82627   0.31840   0.00000  Uiso   1.00
O327   O     0.52575   0.83575   0.32793   0.00000  Uiso   1.00
C328   C     0.46690   0.82159   0.34551   0.00000  Uiso   1.00
Cu329  Cu    0.44043   0.82772   0.24436   0.00000  Uiso   1.00
Cu330  Cu    0.55957   0.83895   0.25565   0.00000  Uiso   1.00
O331   O     0.43809   0.75245   0.24414   0.00000  Uiso   1.00
O332   O     0.53869   0.76193   0.25367   0.00000  Uiso   1.00
O333   O     0.47425   0.83092   0.17207   0.00000  Uiso   1.00
O334   O     0.57485   0.84040   0.18161   0.00000  Uiso   1.00
C335   C     0.48507   0.73351   0.24966   0.00000  Uiso   1.00
C336   C     0.53314   0.83688   0.15312   0.00000  Uiso   1.00
C337   C     0.62887   0.85928   0.02113   0.00000  Uiso   1.00
H338   H     0.64888   0.87214   0.09640   0.00000  Uiso   1.00
H339   H     0.65031   0.84357   0.42113   0.00000  Uiso   1.00
H340   H     0.34366   0.87355   0.00338   0.00000  Uiso   1.00
C341   C     0.55151   0.83879   0.09760   0.00000  Uiso   1.00
C342   C     0.38857   0.77728   0.41793   0.00000  Uiso   1.00
C343   C     0.36970   0.76709   0.46968   0.00000  Uiso   1.00
C344   C     0.41131   0.78309   0.00284   0.00000  Uiso   1.00
C345   C     0.47491   0.80388   0.48355   0.00000  Uiso   1.00
C346   C     0.49455   0.80567   0.42999   0.00000  Uiso   1.00
C347   C     0.52043   0.82145   0.01474   0.00000  Uiso   1.00
C348   C     0.58357   0.83987   0.49142   0.00000  Uiso   1.00
C349   C     0.60176   0.83391   0.43893   0.00000  Uiso   1.00
C350   C     0.55834   0.80953   0.41011   0.00000  Uiso   1.00
C351   C     0.50555   0.82164   0.06803   0.00000  Uiso   1.00
C352   C     0.61308   0.85811   0.07402   0.00000  Uiso   1.00
C353   C     0.44966   0.80144   0.39830   0.00000  Uiso   1.00
H354   H     0.45844   0.80794   0.08746   0.00000  Uiso   1.00
H355   H     0.35562   0.76657   0.39309   0.00000  Uiso   1.00
H356   H     0.39265   0.77708   0.04278   0.00000  Uiso   1.00
H357   H     0.65510   0.74903   0.48454   0.00000  Uiso   1.00
C358   C     0.52395   0.98783   0.24334   0.00000  Uiso   1.00
C359   C     0.47592   0.67884   0.25879   0.00000  Uiso   1.00
N360   N     0.64908   0.84741   0.26416   0.00000  Uiso   1.00
H361   H     0.33649   0.87163   0.29049   0.00000  Uiso   1.00
N362   N     0.35092   0.81926   0.23584   0.00000  Uiso   1.00
H363   H     0.66375   0.79560   0.20910   0.00000  Uiso   1.00
N364   N     0.41870   0.98749   0.29108   0.00000  Uiso   1.00
O365   O     0.42037   0.96415   0.33204   0.00000  Uiso   1.00
O366   O     0.36550   0.99490   0.28381   0.00000  Uiso   1.00
Br367  Br    0.58461   0.76108   0.35693   0.00000  Uiso   1.00
Br368  Br    0.60185   0.68454   0.19976   0.00000  Uiso   1.00
O369   O     0.79464   0.90474   0.24633   0.00000  Uiso   1.00
O370   O     0.89524   0.91422   0.25587   0.00000  Uiso   1.00
C371   C     0.84827   0.93303   0.25044   0.00000  Uiso   1.00
O372   O     0.75848   0.82627   0.31840   0.00000  Uiso   1.00
O373   O     0.85908   0.83575   0.32793   0.00000  Uiso   1.00
C374   C     0.80023   0.82159   0.34551   0.00000  Uiso   1.00
Cu375  Cu    0.77377   0.82772   0.24436   0.00000  Uiso   1.00
Cu376  Cu    0.89290   0.83895   0.25565   0.00000  Uiso   1.00
O377   O     0.77142   0.75245   0.24414   0.00000  Uiso   1.00
O378   O     0.87203   0.76193   0.25367   0.00000  Uiso   1.00
O379   O     0.80758   0.83092   0.17207   0.00000  Uiso   1.00
O380   O     0.90819   0.84040   0.18161   0.00000  Uiso   1.00
C381   C     0.81841   0.73351   0.24966   0.00000  Uiso   1.00
C382   C     0.86647   0.83688   0.15312   0.00000  Uiso   1.00
C383   C     0.96220   0.85928   0.02113   0.00000  Uiso   1.00
H384   H     0.98221   0.87214   0.09640   0.00000  Uiso   1.00
H385   H     0.98364   0.84357   0.42113   0.00000  Uiso   1.00
H386   H     0.67699   0.87355   0.00338   0.00000  Uiso   1.00
C387   C     0.88484   0.83879   0.09760   0.00000  Uiso   1.00
C388   C     0.72191   0.77728   0.41793   0.00000  Uiso   1.00
C389   C     0.70303   0.76709   0.46968   0.00000  Uiso   1.00
C390   C     0.74464   0.78309   0.00284   0.00000  Uiso   1.00
C391   C     0.80824   0.80388   0.48355   0.00000  Uiso   1.00
C392   C     0.82788   0.80567   0.42999   0.00000  Uiso   1.00
C393   C     0.85376   0.82145   0.01474   0.00000  Uiso   1.00
C394   C     0.91691   0.83987   0.49142   0.00000  Uiso   1.00
C395   C     0.93510   0.83391   0.43893   0.00000  Uiso   1.00
C396   C     0.89167   0.80953   0.41011   0.00000  Uiso   1.00
C397   C     0.83889   0.82164   0.06803   0.00000  Uiso   1.00
C398   C     0.94641   0.85811   0.07402   0.00000  Uiso   1.00
C399   C     0.78300   0.80144   0.39830   0.00000  Uiso   1.00
H400   H     0.79177   0.80794   0.08746   0.00000  Uiso   1.00
H401   H     0.68895   0.76657   0.39309   0.00000  Uiso   1.00
H402   H     0.72598   0.77708   0.04278   0.00000  Uiso   1.00
H403   H     0.98843   0.74903   0.48454   0.00000  Uiso   1.00
C404   C     0.85728   0.98783   0.24334   0.00000  Uiso   1.00
C405   C     0.80926   0.67884   0.25879   0.00000  Uiso   1.00
N406   N     0.98241   0.84741   0.26416   0.00000  Uiso   1.00
H407   H     0.66983   0.87163   0.29049   0.00000  Uiso   1.00
N408   N     0.68426   0.81926   0.23584   0.00000  Uiso   1.00
H409   H     0.99709   0.79560   0.20910   0.00000  Uiso   1.00
N410   N     0.75203   0.98749   0.29108   0.00000  Uiso   1.00
O411   O     0.75371   0.96415   0.33204   0.00000  Uiso   1.00
O412   O     0.69883   0.99490   0.28381   0.00000  Uiso   1.00
Br413  Br    0.91794   0.76108   0.35693   0.00000  Uiso   1.00
Br414  Br    0.93519   0.68454   0.19976   0.00000  Uiso   1.00
O415   O     0.12797   0.23807   0.74633   0.00000  Uiso   1.00
O416   O     0.22858   0.24755   0.75587   0.00000  Uiso   1.00
C417   C     0.18160   0.26636   0.75044   0.00000  Uiso   1.00
O418   O     0.09181   0.15960   0.81840   0.00000  Uiso   1.00
O419   O     0.19242   0.16908   0.82793   0.00000  Uiso   1.00
C420   C     0.13356   0.15492   0.84551   0.00000  Uiso   1.00
Cu421  Cu    0.10710   0.16105   0.74436   0.00000  Uiso   1.00
Cu422  Cu    0.22623   0.17228   0.75565   0.00000  Uiso   1.00
O423   O     0.10476   0.08578   0.74414   0.00000  Uiso   1.00
O424   O     0.20536   0.09526   0.75367   0.00000  Uiso   1.00
O425   O     0.14092   0.16425   0.67207   0.00000  Uiso   1.00
O426   O     0.24152   0.17373   0.68161   0.00000  Uiso   1.00
C427   C     0.15174   0.06684   0.74966   0.00000  Uiso   1.00
C428   C     0.19981   0.17021   0.65312   0.00000  Uiso   1.00
C429   C     0.29554   0.19261   0.52113   0.00000  Uiso   1.00
H430   H     0.31555   0.20548   0.59640   0.00000  Uiso   1.00
H431   H     0.31698   0.17690   0.92113   0.00000  Uiso   1.00
H432   H     0.01033   0.20689   0.50338   0.00000  Uiso   1.00
C433   C     0.21817   0.17212   0.59760   0.00000  Uiso   1.00
C434   C     0.05524   0.11062   0.91793   0.00000  Uiso   1.00
C435   C     0.03636   0.10043   0.96968   0.00000  Uiso   1.00
C436   C     0.07798   0.11643   0.50284   0.00000  Uiso   1.00
C437   C     0.14157   0.13722   0.98355   0.00000  Uiso   1.00
C438   C     0.16121   0.13900   0.92999   0.00000  Uiso   1.00
C439   C     0.18709   0.15478   0.51474   0.00000  Uiso   1.00
C440   C     0.25024   0.17321   0.99142   0.00000  Uiso   1.00
C441   C     0.26843   0.16725   0.93893   0.00000  Uiso   1.00
C442   C     0.22500   0.14286   0.91011   0.00000  Uiso   1.00
C443   C     0.17222   0.15498   0.56803   0.00000  Uiso   1.00
C444   C     0.27975   0.19144   0.57402   0.00000  Uiso   1.00
C445   C     0.11633   0.13477   0.89830   0.00000  Uiso   1.00
H446   H     0.12511   0.14127   0.58746   0.00000  Uiso   1.00
H447   H     0.02228   0.09990   0.89309   0.00000  Uiso   1.00
H448   H     0.05932   0.11042   0.54278   0.00000  Uiso   1.00
H449   H     0.32176   0.08237   0.98454   0.00000  Uiso   1.00
C450   C     0.19062   0.32116   0.74334   0.00000  Uiso   1.00
C451   C     0.14259   0.01217   0.75879   0.00000  Uiso   1.00
N452   N     0.31574   0.18074   0.76416   0.00000  Uiso   1.00
H453   H     0.00316   0.20497   0.79049   0.00000  Uiso   1.00
N454   N     0.01759   0.15259   0.73584   0.00000  Uiso   1.00
H455   H     0.33042   0.12893   0.70910   0.00000  Uiso   1.00
N456   N     0.08536   0.32083   0.79108   0.00000  Uiso   1.00
O457   O     0.08704   0.29748   0.83204   0.00000  Uiso   1.00
O458   O     0.03216   0.32823   0.78381   0.00000  Uiso   1.00
Br459  Br    0.25128   0.09441   0.85693   0.00000  Uiso   1.00
Br460  Br    0.26852   0.01788   0.69976   0.00000  Uiso   1.00
O461   O     0.46131   0.23807   0.74633   0.00000  Uiso   1.00
O462   O     0.56191   0.24755   0.75587   0.00000  Uiso   1.00
C463   C     0.51493   0.26636   0.75044   0.00000  Uiso   1.00
O464   O     0.42515   0.15960   0.81840   0.00000  Uiso   1.00
O465   O     0.52575   0.16908   0.82793   0.00000  Uiso   1.00
C466   C     0.46690   0.15492   0.84551   0.00000  Uiso   1.00
Cu467  Cu    0.44043   0.16105   0.74436   0.00000  Uiso   1.00
Cu468  Cu    0.55957   0.17228   0.75565   0.00000  Uiso   1.00
O469   O     0.43809   0.08578   0.74414   0.00000  Uiso   1.00
O470   O     0.53869   0.09526   0.75367   0.00000  Uiso   1.00
O471   O     0.47425   0.16425   0.67207   0.00000  Uiso   1.00
O472   O     0.57485   0.17373   0.68161   0.00000  Uiso   1.00
C473   C     0.48507   0.06684   0.74966   0.00000  Uiso   1.00
C474   C     0.53314   0.17021   0.65312   0.00000  Uiso   1.00
C475   C     0.62887   0.19261   0.52113   0.00000  Uiso   1.00
H476   H     0.64888   0.20548   0.59640   0.00000  Uiso   1.00
H477   H     0.65031   0.17690   0.92113   0.00000  Uiso   1.00
H478   H     0.34366   0.20689   0.50338   0.00000  Uiso   1.00
C479   C     0.55151   0.17212   0.59760   0.00000  Uiso   1.00
C480   C     0.38857   0.11062   0.91793   0.00000  Uiso   1.00
C481   C     0.36970   0.10043   0.96968   0.00000  Uiso   1.00
C482   C     0.41131   0.11643   0.50284   0.00000  Uiso   1.00
C483   C     0.47491   0.13722   0.98355   0.00000  Uiso   1.00
C484   C     0.49455   0.13900   0.92999   0.00000  Uiso   1.00
C485   C     0.52043   0.15478   0.51474   0.00000  Uiso   1.00
C486   C     0.58357   0.17321   0.99142   0.00000  Uiso   1.00
C487   C     0.60176   0.16725   0.93893   0.00000  Uiso   1.00
C488   C     0.55834   0.14286   0.91011   0.00000  Uiso   1.00
C489   C     0.50555   0.15498   0.56803   0.00000  Uiso   1.00
C490   C     0.61308   0.19144   0.57402   0.00000  Uiso   1.00
C491   C     0.44966   0.13477   0.89830   0.00000  Uiso   1.00
H492   H     0.45844   0.14127   0.58746   0.00000  Uiso   1.00
H493   H     0.35562   0.09990   0.89309   0.00000  Uiso   1.00
H494   H     0.39265   0.11042   0.54278   0.00000  Uiso   1.00
H495   H     0.65510   0.08237   0.98454   0.00000  Uiso   1.00
C496   C     0.52395   0.32116   0.74334   0.00000  Uiso   1.00
C497   C     0.47592   0.01217   0.75879   0.00000  Uiso   1.00
N498   N     0.64908   0.18074   0.76416   0.00000  Uiso   1.00
H499   H     0.33649   0.20497   0.79049   0.00000  Uiso   1.00
N500   N     0.35092   0.15259   0.73584   0.00000  Uiso   1.00
H501   H     0.66375   0.12893   0.70910   0.00000  Uiso   1.00
N502   N     0.41870   0.32083   0.79108   0.00000  Uiso   1.00
O503   O     0.42037   0.29748   0.83204   0.00000  Uiso   1.00
O504   O     0.36550   0.32823   0.78381   0.00000  Uiso   1.00
Br505  Br    0.58461   0.09441   0.85693   0.00000  Uiso   1.00
Br506  Br    0.60185   0.01788   0.69976   0.00000  Uiso   1.00
O507   O     0.79464   0.23807   0.74633   0.00000  Uiso   1.00
O508   O     0.89524   0.24755   0.75587   0.00000  Uiso   1.00
C509   C     0.84827   0.26636   0.75044   0.00000  Uiso   1.00
O510   O     0.75848   0.15960   0.81840   0.00000  Uiso   1.00
O511   O     0.85908   0.16908   0.82793   0.00000  Uiso   1.00
C512   C     0.80023   0.15492   0.84551   0.00000  Uiso   1.00
Cu513  Cu    0.77377   0.16105   0.74436   0.00000  Uiso   1.00
Cu514  Cu    0.89290   0.17228   0.75565   0.00000  Uiso   1.00
O515   O     0.77142   0.08578   0.74414   0.00000  Uiso   1.00
O516   O     0.87203   0.09526   0.75367   0.00000  Uiso   1.00
O517   O     0.80758   0.16425   0.67207   0.00000  Uiso   1.00
O518   O     0.90819   0.17373   0.68161   0.00000  Uiso   1.00
C519   C     0.81841   0.06684   0.74966   0.00000  Uiso   1.00
C520   C     0.86647   0.17021   0.65312   0.00000  Uiso   1.00
C521   C     0.96220   0.19261   0.52113   0.00000  Uiso   1.00
H522   H     0.98221   0.20548   0.59640   0.00000  Uiso   1.00
H523   H     0.98364   0.17690   0.92113   0.00000  Uiso   1.00
H524   H     0.67699   0.20689   0.50338   0.00000  Uiso   1.00
C525   C     0.88484   0.17212   0.59760   0.00000  Uiso   1.00
C526   C     0.72191   0.11062   0.91793   0.00000  Uiso   1.00
C527   C     0.70303   0.10043   0.96968   0.00000  Uiso   1.00
C528   C     0.74464   0.11643   0.50284   0.00000  Uiso   1.00
C529   C     0.80824   0.13722   0.98355   0.00000  Uiso   1.00
C530   C     0.82788   0.13900   0.92999   0.00000  Uiso   1.00
C531   C     0.85376   0.15478   0.51474   0.00000  Uiso   1.00
C532   C     0.91691   0.17321   0.99142   0.00000  Uiso   1.00
C533   C     0.93510   0.16725   0.93893   0.00000  Uiso   1.00
C534   C     0.89167   0.14286   0.91011   0.00000  Uiso   1.00
C535   C     0.83889   0.15498   0.56803   0.00000  Uiso   1.00
C536   C     0.94641   0.19144   0.57402   0.00000  Uiso   1.00
C537   C     0.78300   0.13477   0.89830   0.00000  Uiso   1.00
H538   H     0.79177   0.14127   0.58746   0.00000  Uiso   1.00
H539   H     0.68895   0.09990   0.89309   0.00000  Uiso   1.00
H540   H     0.72598   0.11042   0.54278   0.00000  Uiso   1.00
H541   H     0.98843   0.08237   0.98454   0.00000  Uiso   1.00
C542   C     0.85728   0.32116   0.74334   0.00000  Uiso   1.00
C543   C     0.80926   0.01217   0.75879   0.00000  Uiso   1.00
N544   N     0.98241   0.18074   0.76416   0.00000  Uiso   1.00
H545   H     0.66983   0.20497   0.79049   0.00000  Uiso   1.00
N546   N     0.68426   0.15259   0.73584   0.00000  Uiso   1.00
H547   H     0.99709   0.12893   0.70910   0.00000  Uiso   1.00
N548   N     0.75203   0.32083   0.79108   0.00000  Uiso   1.00
O549   O     0.75371   0.29748   0.83204   0.00000  Uiso   1.00
O550   O     0.69883   0.32823   0.78381   0.00000  Uiso   1.00
Br551  Br    0.91794   0.09441   0.85693   0.00000  Uiso   1.00
Br552  Br    0.93519   0.01788   0.69976   0.00000  Uiso   1.00
O553   O     0.12797   0.57141   0.74633   0.00000  Uiso   1.00
O554   O     0.22858   0.58089   0.75587   0.00000  Uiso   1.00
C555   C     0.18160   0.59970   0.75044   0.00000  Uiso   1.00
O556   O     0.09181   0.49293   0.81840   0.00000  Uiso   1.00
O557   O     0.19242   0.50241   0.82793   0.00000  Uiso   1.00
C558   C     0.13356   0.48826   0.84551   0.00000  Uiso   1.00
Cu559  Cu    0.10710   0.49439   0.74436   0.00000  Uiso   1.00
Cu560  Cu    0.22623   0.50561   0.75565   0.00000  Uiso   1.00
O561   O     0.10476   0.41911   0.74414   0.00000  Uiso   1.00
O562   O     0.20536   0.42859   0.75367   0.00000  Uiso   1.00
O563   O     0.14092   0.49759   0.67207   0.00000  Uiso   1.00
O564   O     0.24152   0.50707   0.68161   0.00000  Uiso   1.00
C565   C     0.15174   0.40017   0.74966   0.00000  Uiso   1.00
C566   C     0.19981   0.50355   0.65312   0.00000  Uiso   1.00
C567   C     0.29554   0.52595   0.52113   0.00000  Uiso   1.00
H568   H     0.31555   0.53881   0.59640   0.00000  Uiso   1.00
H569   H     0.31698   0.51024   0.92113   0.00000  Uiso   1.00
H570   H     0.01033   0.54022   0.50338   0.00000  Uiso   1.00
C571   C     0.21817   0.50546   0.59760   0.00000  Uiso   1.00
C572   C     0.05524   0.44395   0.91793   0.00000  Uiso   1.00
C573   C     0.03636   0.43376   0.96968   0.00000  Uiso   1.00
C574   C     0.07798   0.44976   0.50284   0.00000  Uiso   1.00
C575   C     0.14157   0.47055   0.98355   0.00000  Uiso   1.00
C576   C     0.16121   0.47233   0.92999   0.00000  Uiso   1.00
C577   C     0.18709   0.48811   0.51474   0.00000  Uiso   1.00
C578   C     0.25024   0.50654   0.99142   0.00000  Uiso   1.00
C579   C     0.26843   0.50058   0.93893   0.00000  Uiso   1.00
C580   C     0.22500   0.47619   0.91011   0.00000  Uiso   1.00
C581   C     0.17222   0.48831   0.56803   0.00000  Uiso   1.00
C582   C     0.27975   0.52477   0.57402   0.00000  Uiso   1.00
C583   C     0.11633   0.46810   0.89830   0.00000  Uiso   1.00
H584   H     0.12511   0.47460   0.58746   0.00000  Uiso   1.00
H585   H     0.02228   0.43323   0.89309   0.00000  Uiso   1.00
H586   H     0.05932   0.44375   0.54278   0.00000  Uiso   1.00
H587   H     0.32176   0.41570   0.98454   0.00000  Uiso   1.00
C588   C     0.19062   0.65449   0.74334   0.00000  Uiso   1.00
C589   C     0.14259   0.34551   0.75879   0.00000  Uiso   1.00
N590   N     0.31574   0.51407   0.76416   0.00000  Uiso   1.00
H591   H     0.00316   0.53830   0.79049   0.00000  Uiso   1.00
N592   N     0.01759   0.48593   0.73584   0.00000  Uiso   1.00
H593   H     0.33042   0.46226   0.70910   0.00000  Uiso   1.00
N594   N     0.08536   0.65416   0.79108   0.00000  Uiso   1.00
O595   O     0.08704   0.63082   0.83204   0.00000  Uiso   1.00
O596   O     0.03216   0.66157   0.78381   0.00000  Uiso   1.00
Br597  Br    0.25128   0.42774   0.85693   0.00000  Uiso   1.00
Br598  Br    0.26852   0.35121   0.69976   0.00000  Uiso   1.00
O599   O     0.46131   0.57141   0.74633   0.00000  Uiso   1.00
O600   O     0.56191   0.58089   0.75587   0.00000  Uiso   1.00
C601   C     0.51493   0.59970   0.75044   0.00000  Uiso   1.00
O602   O     0.42515   0.49293   0.81840   0.00000  Uiso   1.00
O603   O     0.52575   0.50241   0.82793   0.00000  Uiso   1.00
C604   C     0.46690   0.48826   0.84551   0.00000  Uiso   1.00
Cu605  Cu    0.44043   0.49439   0.74436   0.00000  Uiso   1.00
Cu606  Cu    0.55957   0.50561   0.75565   0.00000  Uiso   1.00
O607   O     0.43809   0.41911   0.74414   0.00000  Uiso   1.00
O608   O     0.53869   0.42859   0.75367   0.00000  Uiso   1.00
O609   O     0.47425   0.49759   0.67207   0.00000  Uiso   1.00
O610   O     0.57485   0.50707   0.68161   0.00000  Uiso   1.00
C611   C     0.48507   0.40017   0.74966   0.00000  Uiso   1.00
C612   C     0.53314   0.50355   0.65312   0.00000  Uiso   1.00
C613   C     0.62887   0.52595   0.52113   0.00000  Uiso   1.00
H614   H     0.64888   0.53881   0.59640   0.00000  Uiso   1.00
H615   H     0.65031   0.51024   0.92113   0.00000  Uiso   1.00
H616   H     0.34366   0.54022   0.50338   0.00000  Uiso   1.00
C617   C     0.55151   0.50546   0.59760   0.00000  Uiso   1.00
C618   C     0.38857   0.44395   0.91793   0.00000  Uiso   1.00
C619   C     0.36970   0.43376   0.96968   0.00000  Uiso   1.00
C620   C     0.41131   0.44976   0.50284   0.00000  Uiso   1.00
C621   C     0.47491   0.47055   0.98355   0.00000  Uiso   1.00
C622   C     0.49455   0.47233   0.92999   0.00000  Uiso   1.00
C623   C     0.52043   0.48811   0.51474   0.00000  Uiso   1.00
C624   C     0.58357   0.50654   0.99142   0.00000  Uiso   1.00
C625   C     0.60176   0.50058   0.93893   0.00000  Uiso   1.00
C626   C     0.55834   0.47619   0.91011   0.00000  Uiso   1.00
C627   C     0.50555   0.48831   0.56803   0.00000  Uiso   1.00
C628   C     0.61308   0.52477   0.57402   0.00000  Uiso   1.00
C629   C     0.44966   0.46810   0.89830   0.00000  Uiso   1.00
H630   H     0.45844   0.47460   0.58746   0.00000  Uiso   1.00
H631   H     0.35562   0.43323   0.89309   0.00000  Uiso   1.00
H632   H     0.39265   0.44375   0.54278   0.00000  Uiso   1.00
H633   H     0.65510   0.41570   0.98454   0.00000  Uiso   1.00
C634   C     0.52395   0.65449   0.74334   0.00000  Uiso   1.00
C635   C     0.47592   0.34551   0.75879   0.00000  Uiso   1.00
N636   N     0.64908   0.51407   0.76416   0.00000  Uiso   1.00
H637   H     0.33649   0.53830   0.79049   0.00000  Uiso   1.00
N638   N     0.35092   0.48593   0.73584   0.00000  Uiso   1.00
H639   H     0.66375   0.46226   0.70910   0.00000  Uiso   1.00
N640   N     0.41870   0.65416   0.79108   0.00000  Uiso   1.00
O641   O     0.42037   0.63082   0.83204   0.00000  Uiso   1.00
O642   O     0.36550   0.66157   0.78381   0.00000  Uiso   1.00
Br643  Br    0.58461   0.42774   0.85693   0.00000  Uiso   1.00
Br644  Br    0.60185   0.35121   0.69976   0.00000  Uiso   1.00
O645   O     0.79464   0.57141   0.74633   0.00000  Uiso   1.00
O646   O     0.89524   0.58089   0.75587   0.00000  Uiso   1.00
C647   C     0.84827   0.59970   0.75044   0.00000  Uiso   1.00
O648   O     0.75848   0.49293   0.81840   0.00000  Uiso   1.00
O649   O     0.85908   0.50241   0.82793   0.00000  Uiso   1.00
C650   C     0.80023   0.48826   0.84551   0.00000  Uiso   1.00
Cu651  Cu    0.77377   0.49439   0.74436   0.00000  Uiso   1.00
Cu652  Cu    0.89290   0.50561   0.75565   0.00000  Uiso   1.00
O653   O     0.77142   0.41911   0.74414   0.00000  Uiso   1.00
O654   O     0.87203   0.42859   0.75367   0.00000  Uiso   1.00
O655   O     0.80758   0.49759   0.67207   0.00000  Uiso   1.00
O656   O     0.90819   0.50707   0.68161   0.00000  Uiso   1.00
C657   C     0.81841   0.40017   0.74966   0.00000  Uiso   1.00
C658   C     0.86647   0.50355   0.65312   0.00000  Uiso   1.00
C659   C     0.96220   0.52595   0.52113   0.00000  Uiso   1.00
H660   H     0.98221   0.53881   0.59640   0.00000  Uiso   1.00
H661   H     0.98364   0.51024   0.92113   0.00000  Uiso   1.00
H662   H     0.67699   0.54022   0.50338   0.00000  Uiso   1.00
C663   C     0.88484   0.50546   0.59760   0.00000  Uiso   1.00
C664   C     0.72191   0.44395   0.91793   0.00000  Uiso   1.00
C665   C     0.70303   0.43376   0.96968   0.00000  Uiso   1.00
C666   C     0.74464   0.44976   0.50284   0.00000  Uiso   1.00
C667   C     0.80824   0.47055   0.98355   0.00000  Uiso   1.00
C668   C     0.82788   0.47233   0.92999   0.00000  Uiso   1.00
C669   C     0.85376   0.48811   0.51474   0.00000  Uiso   1.00
C670   C     0.91691   0.50654   0.99142   0.00000  Uiso   1.00
C671   C     0.93510   0.50058   0.93893   0.00000  Uiso   1.00
C672   C     0.89167   0.47619   0.91011   0.00000  Uiso   1.00
C673   C     0.83889   0.48831   0.56803   0.00000  Uiso   1.00
C674   C     0.94641   0.52477   0.57402   0.00000  Uiso   1.00
C675   C     0.78300   0.46810   0.89830   0.00000  Uiso   1.00
H676   H     0.79177   0.47460   0.58746   0.00000  Uiso   1.00
H677   H     0.68895   0.43323   0.89309   0.00000  Uiso   1.00
H678   H     0.72598   0.44375   0.54278   0.00000  Uiso   1.00
H679   H     0.98843   0.41570   0.98454   0.00000  Uiso   1.00
C680   C     0.85728   0.65449   0.74334   0.00000  Uiso   1.00
C681   C     0.80926   0.34551   0.75879   0.00000  Uiso   1.00
N682   N     0.98241   0.51407   0.76416   0.00000  Uiso   1.00
H683   H     0.66983   0.53830   0.79049   0.00000  Uiso   1.00
N684   N     0.68426   0.48593   0.73584   0.00000  Uiso   1.00
H685   H     0.99709   0.46226   0.70910   0.00000  Uiso   1.00
N686   N     0.75203   0.65416   0.79108   0.00000  Uiso   1.00
O687   O     0.75371   0.63082   0.83204   0.00000  Uiso   1.00
O688   O     0.69883   0.66157   0.78381   0.00000  Uiso   1.00
Br689  Br    0.91794   0.42774   0.85693   0.00000  Uiso   1.00
Br690  Br    0.93519   0.35121   0.69976   0.00000  Uiso   1.00
O691   O     0.12797   0.90474   0.74633   0.00000  Uiso   1.00
O692   O     0.22858   0.91422   0.75587   0.00000  Uiso   1.00
C693   C     0.18160   0.93303   0.75044   0.00000  Uiso   1.00
O694   O     0.09181   0.82627   0.81840   0.00000  Uiso   1.00
O695   O     0.19242   0.83575   0.82793   0.00000  Uiso   1.00
C696   C     0.13356   0.82159   0.84551   0.00000  Uiso   1.00
Cu697  Cu    0.10710   0.82772   0.74436   0.00000  Uiso   1.00
Cu698  Cu    0.22623   0.83895   0.75565   0.00000  Uiso   1.00
O699   O     0.10476   0.75245   0.74414   0.00000  Uiso   1.00
O700   O     0.20536   0.76193   0.75367   0.00000  Uiso   1.00
O701   O     0.14092   0.83092   0.67207   0.00000  Uiso   1.00
O702   O     0.24152   0.84040   0.68161   0.00000  Uiso   1.00
C703   C     0.15174   0.73351   0.74966   0.00000  Uiso   1.00
C704   C     0.19981   0.83688   0.65312   0.00000  Uiso   1.00
C705   C     0.29554   0.85928   0.52113   0.00000  Uiso   1.00
H706   H     0.31555   0.87214   0.59640   0.00000  Uiso   1.00
H707   H     0.31698   0.84357   0.92113   0.00000  Uiso   1.00
H708   H     0.01033   0.87355   0.50338   0.00000  Uiso   1.00
C709   C     0.21817   0.83879   0.59760   0.00000  Uiso   1.00
C710   C     0.05524   0.77728   0.91793   0.00000  Uiso   1.00
C711   C     0.03636   0.76709   0.96968   0.00000  Uiso   1.00
C712   C     0.07798   0.78309   0.50284   0.00000  Uiso   1.00
C713   C     0.14157   0.80388   0.98355   0.00000  Uiso   1.00
C714   C     0.16121   0.80567   0.92999   0.00000  Uiso   1.00
C715   C     0.18709   0.82145   0.51474   0.00000  Uiso   1.00
C716   C     0.25024   0.83987   0.99142   0.00000  Uiso   1.00
C717   C     0.26843   0.83391   0.93893   0.00000  Uiso   1.00
C718   C     0.22500   0.80953   0.91011   0.00000  Uiso   1.00
C719   C     0.17222   0.82164   0.56803   0.00000  Uiso   1.00
C720   C     0.27975   0.85811   0.57402   0.00000  Uiso   1.00
C721   C     0.11633   0.80144   0.89830   0.00000  Uiso   1.00
H722   H     0.12511   0.80794   0.58746   0.00000  Uiso   1.00
H723   H     0.02228   0.76657   0.89309   0.00000  Uiso   1.00
H724   H     0.05932   0.77708   0.54278   0.00000  Uiso   1.00
H725   H     0.32176   0.74903   0.98454   0.00000  Uiso   1.00
C726   C     0.19062   0.98783   0.74334   0.00000  Uiso   1.00
C727   C     0.14259   0.67884   0.75879   0.00000  Uiso   1.00
N728   N     0.31574   0.84741   0.76416   0.00000  Uiso   1.00
H729   H     0.00316   0.87163   0.79049   0.00000  Uiso   1.00
N730   N     0.01759   0.81926   0.73584   0.00000  Uiso   1.00
H731   H     0.33042   0.79560   0.70910   0.00000  Uiso   1.00
N732   N     0.08536   0.98749   0.79108   0.00000  Uiso   1.00
O733   O     0.08704   0.96415   0.83204   0.00000  Uiso   1.00
O734   O     0.03216   0.99490   0.78381   0.00000  Uiso   1.00
Br735  Br    0.25128   0.76108   0.85693   0.00000  Uiso   1.00
Br736  Br    0.26852   0.68454   0.69976   0.00000  Uiso   1.00
O737   O     0.46131   0.90474   0.74633   0.00000  Uiso   1.00
O738   O     0.56191   0.91422   0.75587   0.00000  Uiso   1.00
C739   C     0.51493   0.93303   0.75044   0.00000  Uiso   1.00
O740   O     0.42515   0.82627   0.81840   0.00000  Uiso   1.00
O741   O     0.52575   0.83575   0.82793   0.00000  Uiso   1.00
C742   C     0.46690   0.82159   0.84551   0.00000  Uiso   1.00
Cu743  Cu    0.44043   0.82772   0.74436   0.00000  Uiso   1.00
Cu744  Cu    0.55957   0.83895   0.75565   0.00000  Uiso   1.00
O745   O     0.43809   0.75245   0.74414   0.00000  Uiso   1.00
O746   O     0.53869   0.76193   0.75367   0.00000  Uiso   1.00
O747   O     0.47425   0.83092   0.67207   0.00000  Uiso   1.00
O748   O     0.57485   0.84040   0.68161   0.00000  Uiso   1.00
C749   C     0.48507   0.73351   0.74966   0.00000  Uiso   1.00
C750   C     0.53314   0.83688   0.65312   0.00000  Uiso   1.00
C751   C     0.62887   0.85928   0.52113   0.00000  Uiso   1.00
H752   H     0.64888   0.87214   0.59640   0.00000  Uiso   1.00
H753   H     0.65031   0.84357   0.92113   0.00000  Uiso   1.00
H754   H     0.34366   0.87355   0.50338   0.00000  Uiso   1.00
C755   C     0.55151   0.83879   0.59760   0.00000  Uiso   1.00
C756   C     0.38857   0.77728   0.91793   0.00000  Uiso   1.00
C757   C     0.36970   0.76709   0.96968   0.00000  Uiso   1.00
C758   C     0.41131   0.78309   0.50284   0.00000  Uiso   1.00
C759   C     0.47491   0.80388   0.98355   0.00000  Uiso   1.00
C760   C     0.49455   0.80567   0.92999   0.00000  Uiso   1.00
C761   C     0.52043   0.82145   0.51474   0.00000  Uiso   1.00
C762   C     0.58357   0.83987   0.99142   0.00000  Uiso   1.00
C763   C     0.60176   0.83391   0.93893   0.00000  Uiso   1.00
C764   C     0.55834   0.80953   0.91011   0.00000  Uiso   1.00
C765   C     0.50555   0.82164   0.56803   0.00000  Uiso   1.00
C766   C     0.61308   0.85811   0.57402   0.00000  Uiso   1.00
C767   C     0.44966   0.80144   0.89830   0.00000  Uiso   1.00
H768   H     0.45844   0.80794   0.58746   0.00000  Uiso   1.00
H769   H     0.35562   0.76657   0.89309   0.00000  Uiso   1.00
H770   H     0.39265   0.77708   0.54278   0.00000  Uiso   1.00
H771   H     0.65510   0.74903   0.98454   0.00000  Uiso   1.00
C772   C     0.52395   0.98783   0.74334   0.00000  Uiso   1.00
C773   C     0.47592   0.67884   0.75879   0.00000  Uiso   1.00
N774   N     0.64908   0.84741   0.76416   0.00000  Uiso   1.00
H775   H     0.33649   0.87163   0.79049   0.00000  Uiso   1.00
N776   N     0.35092   0.81926   0.73584   0.00000  Uiso   1.00
H777   H     0.66375   0.79560   0.70910   0.00000  Uiso   1.00
N778   N     0.41870   0.98749   0.79108   0.00000  Uiso   1.00
O779   O     0.42037   0.96415   0.83204   0.00000  Uiso   1.00
O780   O     0.36550   0.99490   0.78381   0.00000  Uiso   1.00
Br781  Br    0.58461   0.76108   0.85693   0.00000  Uiso   1.00
Br782  Br    0.60185   0.68454   0.69976   0.00000  Uiso   1.00
O783   O     0.79464   0.90474   0.74633   0.00000  Uiso   1.00
O784   O     0.89524   0.91422   0.75587   0.00000  Uiso   1.00
C785   C     0.84827   0.93303   0.75044   0.00000  Uiso   1.00
O786   O     0.75848   0.82627   0.81840   0.00000  Uiso   1.00
O787   O     0.85908   0.83575   0.82793   0.00000  Uiso   1.00
C788   C     0.80023   0.82159   0.84551   0.00000  Uiso   1.00
Cu789  Cu    0.77377   0.82772   0.74436   0.00000  Uiso   1.00
Cu790  Cu    0.89290   0.83895   0.75565   0.00000  Uiso   1.00
O791   O     0.77142   0.75245   0.74414   0.00000  Uiso   1.00
O792   O     0.87203   0.76193   0.75367   0.00000  Uiso   1.00
O793   O     0.80758   0.83092   0.67207   0.00000  Uiso   1.00
O794   O     0.90819   0.84040   0.68161   0.00000  Uiso   1.00
C795   C     0.81841   0.73351   0.74966   0.00000  Uiso   1.00
C796   C     0.86647   0.83688   0.65312   0.00000  Uiso   1.00
C797   C     0.96220   0.85928   0.52113   0.00000  Uiso   1.00
H798   H     0.98221   0.87214   0.59640   0.00000  Uiso   1.00
H799   H     0.98364   0.84357   0.92113   0.00000  Uiso   1.00
H800   H     0.67699   0.87355   0.50338   0.00000  Uiso   1.00
C801   C     0.88484   0.83879   0.59760   0.00000  Uiso   1.00
C802   C     0.72191   0.77728   0.91793   0.00000  Uiso   1.00
C803   C     0.70303   0.76709   0.96968   0.00000  Uiso   1.00
C804   C     0.74464   0.78309   0.50284   0.00000  Uiso   1.00
C805   C     0.80824   0.80388   0.98355   0.00000  Uiso   1.00
C806   C     0.82788   0.80567   0.92999   0.00000  Uiso   1.00
C807   C     0.85376   0.82145   0.51474   0.00000  Uiso   1.00
C808   C     0.91691   0.83987   0.99142   0.00000  Uiso   1.00
C809   C     0.93510   0.83391   0.93893   0.00000  Uiso   1.00
C810   C     0.89167   0.80953   0.91011   0.00000  Uiso   1.00
C811   C     0.83889   0.82164   0.56803   0.00000  Uiso   1.00
C812   C     0.94641   0.85811   0.57402   0.00000  Uiso   1.00
C813   C     0.78300   0.80144   0.89830   0.00000  Uiso   1.00
H814   H     0.79177   0.80794   0.58746   0.00000  Uiso   1.00
H815   H     0.68895   0.76657   0.89309   0.00000  Uiso   1.00
H816   H     0.72598   0.77708   0.54278   0.00000  Uiso   1.00
H817   H     0.98843   0.74903   0.98454   0.00000  Uiso   1.00
C818   C     0.85728   0.98783   0.74334   0.00000  Uiso   1.00
C819   C     0.80926   0.67884   0.75879   0.00000  Uiso   1.00
N820   N     0.98241   0.84741   0.76416   0.00000  Uiso   1.00
H821   H     0.66983   0.87163   0.79049   0.00000  Uiso   1.00
N822   N     0.68426   0.81926   0.73584   0.00000  Uiso   1.00
H823   H     0.99709   0.79560   0.70910   0.00000  Uiso   1.00
N824   N     0.75203   0.98749   0.79108   0.00000  Uiso   1.00
O825   O     0.75371   0.96415   0.83204   0.00000  Uiso   1.00
O826   O     0.69883   0.99490   0.78381   0.00000  Uiso   1.00
Br827  Br    0.91794   0.76108   0.85693   0.00000  Uiso   1.00
Br828  Br    0.93519   0.68454   0.69976   0.00000  Uiso   1.00
loop_
_geom_bond_atom_site_label_1
_geom_bond_atom_site_label_2
_geom_bond_distance
_geom_bond_site_symmetry_2
_ccdc_geom_bond_type
O1     Cu7     1.968   .     S
O1     C3      1.290   .     A
O2     C3      1.290   .     A
O2     Cu8     1.958   .     S
C3     C36     1.424   .     S
O4     Cu7     1.945   .     S
O4     C6      1.323   .     A
O5     Cu8     1.933   .     S
O5     C6      1.290   .     A
C6     C31     1.491   .     S
Cu7    O11     1.933   .     S
Cu7    N40     2.027   .     S
Cu7    Cu8     2.698   .     S
Cu7    O9      1.958   .     S
Cu8    O12     1.945   .     S
Cu8    N38     2.027   .     S
Cu8    O10     1.968   .     S
O9     C13     1.293   .     A
O10    C13     1.291   .     A
O11    C14     1.295   .     A
O12    C14     1.305   .     A
C13    C37     1.431   .     S
C14    C19     1.463   .     S
C15    C30     1.391   .     A
C15    H64     1.084   .     S
C15    C440    1.403   1_554 S
H16    C30     1.083   .     S
H17    C27     1.080   .     S
H18    C107    1.084   1_455 S
C19    C30     1.398   .     A
C19    C29     1.403   .     A
C20    H33     1.072   .     S
C20    C21     1.392   .     A
C20    C31     1.391   .     A
C21    C436    1.395   .     S
C21    H127    1.083   1_455 S
C22    H34     1.077   .     S
C22    C435    1.395   1_554 S
C22    C437    1.416   1_554 S
C23    C24     1.415   .     A
C23    C436    1.416   .     S
C23    C439    1.427   .     S
C24    C31     1.423   .     A
C24    C28     1.406   .     A
C25    C29     1.400   .     A
C25    C437    1.427   1_554 S
C25    C440    1.421   1_554 S
C26    C27     1.391   .     A
C26    C439    1.421   .     S
C26    C429    1.403   .     S
C27    C28     1.384   .     A
C28    Br45    1.929   .     S
C29    H32     1.076   .     S
H35    C67     1.083   .     S
C36    C175    1.347   .     S
C36    Br184   1.936   .     S
C37    C312    1.347   1_545 S
C37    N318    1.445   1_545 S
N38    H85     1.029   .     S
N38    N86     1.293   .     S
H39    N130    1.029   1_455 S
N40    N130    1.293   1_455 S
N40    H133    1.028   1_455 S
H41    N86     1.028   .     S
N42    O44     1.301   .     A
N42    O43     1.302   .     A
N42    C175    1.445   .     S
Br46   C312    1.936   1_545 S
O47    Cu53    1.968   .     S
O47    C49     1.290   .     A
O48    C49     1.290   .     A
O48    Cu54    1.958   .     S
C49    C82     1.424   .     S
O50    Cu53    1.945   .     S
O50    C52     1.323   .     A
O51    Cu54    1.933   .     S
O51    C52     1.290   .     A
C52    C77     1.491   .     S
Cu53   O57     1.933   .     S
Cu53   N86     2.027   .     S
Cu53   Cu54    2.698   .     S
Cu53   O55     1.958   .     S
Cu54   O58     1.945   .     S
Cu54   N84     2.027   .     S
Cu54   O56     1.968   .     S
O55    C59     1.293   .     A
O56    C59     1.291   .     A
O57    C60     1.295   .     A
O58    C60     1.305   .     A
C59    C83     1.431   .     S
C60    C65     1.463   .     S
C61    C76     1.391   .     A
C61    H110    1.084   .     S
C61    C486    1.403   1_554 S
H62    C76     1.083   .     S
H63    C73     1.080   .     S
C65    C76     1.398   .     A
C65    C75     1.403   .     A
C66    H79     1.072   .     S
C66    C67     1.392   .     A
C66    C77     1.391   .     A
C67    C482    1.395   .     S
C68    H80     1.077   .     S
C68    C481    1.395   1_554 S
C68    C483    1.416   1_554 S
C69    C70     1.415   .     A
C69    C482    1.416   .     S
C69    C485    1.427   .     S
C70    C77     1.423   .     A
C70    C74     1.406   .     A
C71    C75     1.400   .     A
C71    C483    1.427   1_554 S
C71    C486    1.421   1_554 S
C72    C73     1.391   .     A
C72    C485    1.421   .     S
C72    C475    1.403   .     S
C73    C74     1.384   .     A
C74    Br91    1.929   .     S
C75    H78     1.076   .     S
H81    C113    1.083   .     S
C82    C221    1.347   .     S
C82    Br230   1.936   .     S
C83    C358    1.347   1_545 S
C83    N364    1.445   1_545 S
N84    H131    1.029   .     S
N84    N132    1.293   .     S
H87    N132    1.028   .     S
N88    O90     1.301   .     A
N88    O89     1.302   .     A
N88    C221    1.445   .     S
Br92   C358    1.936   1_545 S
O93    Cu99    1.968   .     S
O93    C95     1.290   .     A
O94    C95     1.290   .     A
O94    Cu100   1.958   .     S
C95    C128    1.424   .     S
O96    Cu99    1.945   .     S
O96    C98     1.323   .     A
O97    Cu100   1.933   .     S
O97    C98     1.290   .     A
C98    C123    1.491   .     S
Cu99   O103    1.933   .     S
Cu99   N132    2.027   .     S
Cu99   Cu100   2.698   .     S
Cu99   O101    1.958   .     S
Cu100  O104    1.945   .     S
Cu100  N130    2.027   .     S
Cu100  O102    1.968   .     S
O101   C105    1.293   .     A
O102   C105    1.291   .     A
O103   C106    1.295   .     A
O104   C106    1.305   .     A
C105   C129    1.431   .     S
C106   C111    1.463   .     S
C107   C122    1.391   .     A
C107   H18     1.084   1_655 S
C107   C532    1.403   1_554 S
H108   C122    1.083   .     S
H109   C119    1.080   .     S
C111   C122    1.398   .     A
C111   C121    1.403   .     A
C112   H125    1.072   .     S
C112   C113    1.392   .     A
C112   C123    1.391   .     A
C113   C528    1.395   .     S
C114   H126    1.077   .     S
C114   C527    1.395   1_554 S
C114   C529    1.416   1_554 S
C115   C116    1.415   .     A
C115   C528    1.416   .     S
C115   C531    1.427   .     S
C116   C123    1.423   .     A
C116   C120    1.406   .     A
C117   C121    1.400   .     A
C117   C529    1.427   1_554 S
C117   C532    1.421   1_554 S
C118   C119    1.391   .     A
C118   C531    1.421   .     S
C118   C521    1.403   .     S
C119   C120    1.384   .     A
C120   Br137   1.929   .     S
C121   H124    1.076   .     S
H127   C21     1.083   1_655 S
C128   C267    1.347   .     S
C128   Br276   1.936   .     S
C129   C404    1.347   1_545 S
C129   N410    1.445   1_545 S
N130   H39     1.029   1_655 S
N130   N40     1.293   1_655 S
H133   N40     1.028   1_655 S
N134   O136    1.301   .     A
N134   O135    1.302   .     A
N134   C267    1.445   .     S
Br138  C404    1.936   1_545 S
O139   Cu145   1.968   .     S
O139   C141    1.290   .     A
O140   C141    1.290   .     A
O140   Cu146   1.958   .     S
C141   C174    1.424   .     S
O142   Cu145   1.945   .     S
O142   C144    1.323   .     A
O143   Cu146   1.933   .     S
O143   C144    1.290   .     A
C144   C169    1.491   .     S
Cu145  O149    1.933   .     S
Cu145  N178    2.027   .     S
Cu145  Cu146   2.698   .     S
Cu145  O147    1.958   .     S
Cu146  O150    1.945   .     S
Cu146  N176    2.027   .     S
Cu146  O148    1.968   .     S
O147   C151    1.293   .     A
O148   C151    1.291   .     A
O149   C152    1.295   .     A
O150   C152    1.305   .     A
C151   C175    1.431   .     S
C152   C157    1.463   .     S
C153   C168    1.391   .     A
C153   H202    1.084   .     S
C153   C578    1.403   1_554 S
H154   C168    1.083   .     S
H155   C165    1.080   .     S
H156   C245    1.084   1_455 S
C157   C168    1.398   .     A
C157   C167    1.403   .     A
C158   H171    1.072   .     S
C158   C159    1.392   .     A
C158   C169    1.391   .     A
C159   C574    1.395   .     S
C159   H265    1.083   1_455 S
C160   H172    1.077   .     S
C160   C573    1.395   1_554 S
C160   C575    1.416   1_554 S
C161   C162    1.415   .     A
C161   C574    1.416   .     S
C161   C577    1.427   .     S
C162   C169    1.423   .     A
C162   C166    1.406   .     A
C163   C167    1.400   .     A
C163   C575    1.427   1_554 S
C163   C578    1.421   1_554 S
C164   C165    1.391   .     A
C164   C577    1.421   .     S
C164   C567    1.403   .     S
C165   C166    1.384   .     A
C166   Br183   1.929   .     S
C167   H170    1.076   .     S
H173   C205    1.083   .     S
C174   C313    1.347   .     S
C174   Br322   1.936   .     S
N176   H223    1.029   .     S
N176   N224    1.293   .     S
H177   N268    1.029   1_455 S
N178   N268    1.293   1_455 S
N178   H271    1.028   1_455 S
H179   N224    1.028   .     S
N180   O182    1.301   .     A
N180   O181    1.302   .     A
N180   C313    1.445   .     S
O185   Cu191   1.968   .     S
O185   C187    1.290   .     A
O186   C187    1.290   .     A
O186   Cu192   1.958   .     S
C187   C220    1.424   .     S
O188   Cu191   1.945   .     S
O188   C190    1.323   .     A
O189   Cu192   1.933   .     S
O189   C190    1.290   .     A
C190   C215    1.491   .     S
Cu191  O195    1.933   .     S
Cu191  N224    2.027   .     S
Cu191  Cu192   2.698   .     S
Cu191  O193    1.958   .     S
Cu192  O196    1.945   .     S
Cu192  N222    2.027   .     S
Cu192  O194    1.968   .     S
O193   C197    1.293   .     A
O194   C197    1.291   .     A
O195   C198    1.295   .     A
O196   C198    1.305   .     A
C197   C221    1.431   .     S
C198   C203    1.463   .     S
C199   C214    1.391   .     A
C199   H248    1.084   .     S
C199   C624    1.403   1_554 S
H200   C214    1.083   .     S
H201   C211    1.080   .     S
C203   C214    1.398   .     A
C203   C213    1.403   .     A
C204   H217    1.072   .     S
C204   C205    1.392   .     A
C204   C215    1.391   .     A
C205   C620    1.395   .     S
C206   H218    1.077   .     S
C206   C619    1.395   1_554 S
C206   C621    1.416   1_554 S
C207   C208    1.415   .     A
C207   C620    1.416   .     S
C207   C623    1.427   .     S
C208   C215    1.423   .     A
C208   C212    1.406   .     A
C209   C213    1.400   .     A
C209   C621    1.427   1_554 S
C209   C624    1.421   1_554 S
C210   C211    1.391   .     A
C210   C623    1.421   .     S
C210   C613    1.403   .     S
C211   C212    1.384   .     A
C212   Br229   1.929   .     S
C213   H216    1.076   .     S
H219   C251    1.083   .     S
C220   C359    1.347   .     S
C220   Br368   1.936   .     S
N222   H269    1.029   .     S
N222   N270    1.293   .     S
H225   N270    1.028   .     S
N226   O228    1.301   .     A
N226   O227    1.302   .     A
N226   C359    1.445   .     S
O231   Cu237   1.968   .     S
O231   C233    1.290   .     A
O232   C233    1.290   .     A
O232   Cu238   1.958   .     S
C233   C266    1.424   .     S
O234   Cu237   1.945   .     S
O234   C236    1.323   .     A
O235   Cu238   1.933   .     S
O235   C236    1.290   .     A
C236   C261    1.491   .     S
Cu237  O241    1.933   .     S
Cu237  N270    2.027   .     S
Cu237  Cu238   2.698   .     S
Cu237  O239    1.958   .     S
Cu238  O242    1.945   .     S
Cu238  N268    2.027   .     S
Cu238  O240    1.968   .     S
O239   C243    1.293   .     A
O240   C243    1.291   .     A
O241   C244    1.295   .     A
O242   C244    1.305   .     A
C243   C267    1.431   .     S
C244   C249    1.463   .     S
C245   C260    1.391   .     A
C245   H156    1.084   1_655 S
C245   C670    1.403   1_554 S
H246   C260    1.083   .     S
H247   C257    1.080   .     S
C249   C260    1.398   .     A
C249   C259    1.403   .     A
C250   H263    1.072   .     S
C250   C251    1.392   .     A
C250   C261    1.391   .     A
C251   C666    1.395   .     S
C252   H264    1.077   .     S
C252   C665    1.395   1_554 S
C252   C667    1.416   1_554 S
C253   C254    1.415   .     A
C253   C666    1.416   .     S
C253   C669    1.427   .     S
C254   C261    1.423   .     A
C254   C258    1.406   .     A
C255   C259    1.400   .     A
C255   C667    1.427   1_554 S
C255   C670    1.421   1_554 S
C256   C257    1.391   .     A
C256   C669    1.421   .     S
C256   C659    1.403   .     S
C257   C258    1.384   .     A
C258   Br275   1.929   .     S
C259   H262    1.076   .     S
H265   C159    1.083   1_655 S
C266   C405    1.347   .     S
C266   Br414   1.936   .     S
N268   H177    1.029   1_655 S
N268   N178    1.293   1_655 S
H271   N178    1.028   1_655 S
N272   O274    1.301   .     A
N272   O273    1.302   .     A
N272   C405    1.445   .     S
O277   Cu283   1.968   .     S
O277   C279    1.290   .     A
O278   C279    1.290   .     A
O278   Cu284   1.958   .     S
C279   C312    1.424   .     S
O280   Cu283   1.945   .     S
O280   C282    1.323   .     A
O281   Cu284   1.933   .     S
O281   C282    1.290   .     A
C282   C307    1.491   .     S
Cu283  O287    1.933   .     S
Cu283  N316    2.027   .     S
Cu283  Cu284   2.698   .     S
Cu283  O285    1.958   .     S
Cu284  O288    1.945   .     S
Cu284  N314    2.027   .     S
Cu284  O286    1.968   .     S
O285   C289    1.293   .     A
O286   C289    1.291   .     A
O287   C290    1.295   .     A
O288   C290    1.305   .     A
C289   C313    1.431   .     S
C290   C295    1.463   .     S
C291   C306    1.391   .     A
C291   H340    1.084   .     S
C291   C716    1.403   1_554 S
H292   C306    1.083   .     S
H293   C303    1.080   .     S
H294   C383    1.084   1_455 S
C295   C306    1.398   .     A
C295   C305    1.403   .     A
C296   H309    1.072   .     S
C296   C297    1.392   .     A
C296   C307    1.391   .     A
C297   C712    1.395   .     S
C297   H403    1.083   1_455 S
C298   H310    1.077   .     S
C298   C711    1.395   1_554 S
C298   C713    1.416   1_554 S
C299   C300    1.415   .     A
C299   C712    1.416   .     S
C299   C715    1.427   .     S
C300   C307    1.423   .     A
C300   C304    1.406   .     A
C301   C305    1.400   .     A
C301   C713    1.427   1_554 S
C301   C716    1.421   1_554 S
C302   C303    1.391   .     A
C302   C715    1.421   .     S
C302   C705    1.403   .     S
C303   C304    1.384   .     A
C304   Br321   1.929   .     S
C305   H308    1.076   .     S
H311   C343    1.083   .     S
C312   C37     1.347   1_565 S
C312   Br46    1.936   1_565 S
N314   H361    1.029   .     S
N314   N362    1.293   .     S
H315   N406    1.029   1_455 S
N316   N406    1.293   1_455 S
N316   H409    1.028   1_455 S
H317   N362    1.028   .     S
N318   O320    1.301   .     A
N318   O319    1.302   .     A
N318   C37     1.445   1_565 S
O323   Cu329   1.968   .     S
O323   C325    1.290   .     A
O324   C325    1.290   .     A
O324   Cu330   1.958   .     S
C325   C358    1.424   .     S
O326   Cu329   1.945   .     S
O326   C328    1.323   .     A
O327   Cu330   1.933   .     S
O327   C328    1.290   .     A
C328   C353    1.491   .     S
Cu329  O333    1.933   .     S
Cu329  N362    2.027   .     S
Cu329  Cu330   2.698   .     S
Cu329  O331    1.958   .     S
Cu330  O334    1.945   .     S
Cu330  N360    2.027   .     S
Cu330  O332    1.968   .     S
O331   C335    1.293   .     A
O332   C335    1.291   .     A
O333   C336    1.295   .     A
O334   C336    1.305   .     A
C335   C359    1.431   .     S
C336   C341    1.463   .     S
C337   C352    1.391   .     A
C337   H386    1.084   .     S
C337   C762    1.403   1_554 S
H338   C352    1.083   .     S
H339   C349    1.080   .     S
C341   C352    1.398   .     A
C341   C351    1.403   .     A
C342   H355    1.072   .     S
C342   C343    1.392   .     A
C342   C353    1.391   .     A
C343   C758    1.395   .     S
C344   H356    1.077   .     S
C344   C757    1.395   1_554 S
C344   C759    1.416   1_554 S
C345   C346    1.415   .     A
C345   C758    1.416   .     S
C345   C761    1.427   .     S
C346   C353    1.423   .     A
C346   C350    1.406   .     A
C347   C351    1.400   .     A
C347   C759    1.427   1_554 S
C347   C762    1.421   1_554 S
C348   C349    1.391   .     A
C348   C761    1.421   .     S
C348   C751    1.403   .     S
C349   C350    1.384   .     A
C350   Br367   1.929   .     S
C351   H354    1.076   .     S
H357   C389    1.083   .     S
C358   C83     1.347   1_565 S
C358   Br92    1.936   1_565 S
N360   H407    1.029   .     S
N360   N408    1.293   .     S
H363   N408    1.028   .     S
N364   O366    1.301   .     A
N364   O365    1.302   .     A
N364   C83     1.445   1_565 S
O369   Cu375   1.968   .     S
O369   C371    1.290   .     A
O370   C371    1.290   .     A
O370   Cu376   1.958   .     S
C371   C404    1.424   .     S
O372   Cu375   1.945   .     S
O372   C374    1.323   .     A
O373   Cu376   1.933   .     S
O373   C374    1.290   .     A
C374   C399    1.491   .     S
Cu375  O379    1.933   .     S
Cu375  N408    2.027   .     S
Cu375  Cu376   2.698   .     S
Cu375  O377    1.958   .     S
Cu376  O380    1.945   .     S
Cu376  N406    2.027   .     S
Cu376  O378    1.968   .     S
O377   C381    1.293   .     A
O378   C381    1.291   .     A
O379   C382    1.295   .     A
O380   C382    1.305   .     A
C381   C405    1.431   .     S
C382   C387    1.463   .     S
C383   C398    1.391   .     A
C383   H294    1.084   1_655 S
C383   C808    1.403   1_554 S
H384   C398    1.083   .     S
H385   C395    1.080   .     S
C387   C398    1.398   .     A
C387   C397    1.403   .     A
C388   H401    1.072   .     S
C388   C389    1.392   .     A
C388   C399    1.391   .     A
C389   C804    1.395   .     S
C390   H402    1.077   .     S
C390   C803    1.395   1_554 S
C390   C805    1.416   1_554 S
C391   C392    1.415   .     A
C391   C804    1.416   .     S
C391   C807    1.427   .     S
C392   C399    1.423   .     A
C392   C396    1.406   .     A
C393   C397    1.400   .     A
C393   C805    1.427   1_554 S
C393   C808    1.421   1_554 S
C394   C395    1.391   .     A
C394   C807    1.421   .     S
C394   C797    1.403   .     S
C395   C396    1.384   .     A
C396   Br413   1.929   .     S
C397   H400    1.076   .     S
H403   C297    1.083   1_655 S
C404   C129    1.347   1_565 S
C404   Br138   1.936   1_565 S
N406   H315    1.029   1_655 S
N406   N316    1.293   1_655 S
H409   N316    1.028   1_655 S
N410   O412    1.301   .     A
N410   O411    1.302   .     A
N410   C129    1.445   1_565 S
O415   Cu421   1.968   .     S
O415   C417    1.290   .     A
O416   C417    1.290   .     A
O416   Cu422   1.958   .     S
C417   C450    1.424   .     S
O418   Cu421   1.945   .     S
O418   C420    1.323   .     A
O419   Cu422   1.933   .     S
O419   C420    1.290   .     A
C420   C445    1.491   .     S
Cu421  O425    1.933   .     S
Cu421  N454    2.027   .     S
Cu421  Cu422   2.698   .     S
Cu421  O423    1.958   .     S
Cu422  O426    1.945   .     S
Cu422  N452    2.027   .     S
Cu422  O424    1.968   .     S
O423   C427    1.293   .     A
O424   C427    1.291   .     A
O425   C428    1.295   .     A
O426   C428    1.305   .     A
C427   C451    1.431   .     S
C428   C433    1.463   .     S
C429   C444    1.391   .     A
C429   H478    1.084   .     S
H430   C444    1.083   .     S
H431   C441    1.080   .     S
H432   C521    1.084   1_455 S
C433   C444    1.398   .     A
C433   C443    1.403   .     A
C434   H447    1.072   .     S
C434   C435    1.392   .     A
C434   C445    1.391   .     A
C435   C22     1.395   1_556 S
C435   H541    1.083   1_455 S
C436   H448    1.077   .     S
C437   C438    1.415   .     A
C437   C22     1.416   1_556 S
C437   C25     1.427   1_556 S
C438   C445    1.423   .     A
C438   C442    1.406   .     A
C439   C443    1.400   .     A
C440   C441    1.391   .     A
C440   C25     1.421   1_556 S
C440   C15     1.403   1_556 S
C441   C442    1.384   .     A
C442   Br459   1.929   .     S
C443   H446    1.076   .     S
H449   C481    1.083   .     S
C450   C589    1.347   .     S
C450   Br598   1.936   .     S
C451   C726    1.347   1_545 S
C451   N732    1.445   1_545 S
N452   H499    1.029   .     S
N452   N500    1.293   .     S
H453   N544    1.029   1_455 S
N454   N544    1.293   1_455 S
N454   H547    1.028   1_455 S
H455   N500    1.028   .     S
N456   O458    1.301   .     A
N456   O457    1.302   .     A
N456   C589    1.445   .     S
Br460  C726    1.936   1_545 S
O461   Cu467   1.968   .     S
O461   C463    1.290   .     A
O462   C463    1.290   .     A
O462   Cu468   1.958   .     S
C463   C496    1.424   .     S
O464   Cu467   1.945   .     S
O464   C466    1.323   .     A
O465   Cu468   1.933   .     S
O465   C466    1.290   .     A
C466   C491    1.491   .     S
Cu467  O471    1.933   .     S
Cu467  N500    2.027   .     S
Cu467  Cu468   2.698   .     S
Cu467  O469    1.958   .     S
Cu468  O472    1.945   .     S
Cu468  N498    2.027   .     S
Cu468  O470    1.968   .     S
O469   C473    1.293   .     A
O470   C473    1.291   .     A
O471   C474    1.295   .     A
O472   C474    1.305   .     A
C473   C497    1.431   .     S
C474   C479    1.463   .     S
C475   C490    1.391   .     A
C475   H524    1.084   .     S
H476   C490    1.083   .     S
H477   C487    1.080   .     S
C479   C490    1.398   .     A
C479   C489    1.403   .     A
C480   H493    1.072   .     S
C480   C481    1.392   .     A
C480   C491    1.391   .     A
C481   C68     1.395   1_556 S
C482   H494    1.077   .     S
C483   C484    1.415   .     A
C483   C68     1.416   1_556 S
C483   C71     1.427   1_556 S
C484   C491    1.423   .     A
C484   C488    1.406   .     A
C485   C489    1.400   .     A
C486   C487    1.391   .     A
C486   C71     1.421   1_556 S
C486   C61     1.403   1_556 S
C487   C488    1.384   .     A
C488   Br505   1.929   .     S
C489   H492    1.076   .     S
H495   C527    1.083   .     S
C496   C635    1.347   .     S
C496   Br644   1.936   .     S
C497   C772    1.347   1_545 S
C497   N778    1.445   1_545 S
N498   H545    1.029   .     S
N498   N546    1.293   .     S
H501   N546    1.028   .     S
N502   O504    1.301   .     A
N502   O503    1.302   .     A
N502   C635    1.445   .     S
Br506  C772    1.936   1_545 S
O507   Cu513   1.968   .     S
O507   C509    1.290   .     A
O508   C509    1.290   .     A
O508   Cu514   1.958   .     S
C509   C542    1.424   .     S
O510   Cu513   1.945   .     S
O510   C512    1.323   .     A
O511   Cu514   1.933   .     S
O511   C512    1.290   .     A
C512   C537    1.491   .     S
Cu513  O517    1.933   .     S
Cu513  N546    2.027   .     S
Cu513  Cu514   2.698   .     S
Cu513  O515    1.958   .     S
Cu514  O518    1.945   .     S
Cu514  N544    2.027   .     S
Cu514  O516    1.968   .     S
O515   C519    1.293   .     A
O516   C519    1.291   .     A
O517   C520    1.295   .     A
O518   C520    1.305   .     A
C519   C543    1.431   .     S
C520   C525    1.463   .     S
C521   C536    1.391   .     A
C521   H432    1.084   1_655 S
H522   C536    1.083   .     S
H523   C533    1.080   .     S
C525   C536    1.398   .     A
C525   C535    1.403   .     A
C526   H539    1.072   .     S
C526   C527    1.392   .     A
C526   C537    1.391   .     A
C527   C114    1.395   1_556 S
C528   H540    1.077   .     S
C529   C530    1.415   .     A
C529   C114    1.416   1_556 S
C529   C117    1.427   1_556 S
C530   C537    1.423   .     A
C530   C534    1.406   .     A
C531   C535    1.400   .     A
C532   C533    1.391   .     A
C532   C117    1.421   1_556 S
C532   C107    1.403   1_556 S
C533   C534    1.384   .     A
C534   Br551   1.929   .     S
C535   H538    1.076   .     S
H541   C435    1.083   1_655 S
C542   C681    1.347   .     S
C542   Br690   1.936   .     S
C543   C818    1.347   1_545 S
C543   N824    1.445   1_545 S
N544   H453    1.029   1_655 S
N544   N454    1.293   1_655 S
H547   N454    1.028   1_655 S
N548   O550    1.301   .     A
N548   O549    1.302   .     A
N548   C681    1.445   .     S
Br552  C818    1.936   1_545 S
O553   Cu559   1.968   .     S
O553   C555    1.290   .     A
O554   C555    1.290   .     A
O554   Cu560   1.958   .     S
C555   C588    1.424   .     S
O556   Cu559   1.945   .     S
O556   C558    1.323   .     A
O557   Cu560   1.933   .     S
O557   C558    1.290   .     A
C558   C583    1.491   .     S
Cu559  O563    1.933   .     S
Cu559  N592    2.027   .     S
Cu559  Cu560   2.698   .     S
Cu559  O561    1.958   .     S
Cu560  O564    1.945   .     S
Cu560  N590    2.027   .     S
Cu560  O562    1.968   .     S
O561   C565    1.293   .     A
O562   C565    1.291   .     A
O563   C566    1.295   .     A
O564   C566    1.305   .     A
C565   C589    1.431   .     S
C566   C571    1.463   .     S
C567   C582    1.391   .     A
C567   H616    1.084   .     S
H568   C582    1.083   .     S
H569   C579    1.080   .     S
H570   C659    1.084   1_455 S
C571   C582    1.398   .     A
C571   C581    1.403   .     A
C572   H585    1.072   .     S
C572   C573    1.392   .     A
C572   C583    1.391   .     A
C573   C160    1.395   1_556 S
C573   H679    1.083   1_455 S
C574   H586    1.077   .     S
C575   C576    1.415   .     A
C575   C160    1.416   1_556 S
C575   C163    1.427   1_556 S
C576   C583    1.423   .     A
C576   C580    1.406   .     A
C577   C581    1.400   .     A
C578   C579    1.391   .     A
C578   C163    1.421   1_556 S
C578   C153    1.403   1_556 S
C579   C580    1.384   .     A
C580   Br597   1.929   .     S
C581   H584    1.076   .     S
H587   C619    1.083   .     S
C588   C727    1.347   .     S
C588   Br736   1.936   .     S
N590   H637    1.029   .     S
N590   N638    1.293   .     S
H591   N682    1.029   1_455 S
N592   N682    1.293   1_455 S
N592   H685    1.028   1_455 S
H593   N638    1.028   .     S
N594   O596    1.301   .     A
N594   O595    1.302   .     A
N594   C727    1.445   .     S
O599   Cu605   1.968   .     S
O599   C601    1.290   .     A
O600   C601    1.290   .     A
O600   Cu606   1.958   .     S
C601   C634    1.424   .     S
O602   Cu605   1.945   .     S
O602   C604    1.323   .     A
O603   Cu606   1.933   .     S
O603   C604    1.290   .     A
C604   C629    1.491   .     S
Cu605  O609    1.933   .     S
Cu605  N638    2.027   .     S
Cu605  Cu606   2.698   .     S
Cu605  O607    1.958   .     S
Cu606  O610    1.945   .     S
Cu606  N636    2.027   .     S
Cu606  O608    1.968   .     S
O607   C611    1.293   .     A
O608   C611    1.291   .     A
O609   C612    1.295   .     A
O610   C612    1.305   .     A
C611   C635    1.431   .     S
C612   C617    1.463   .     S
C613   C628    1.391   .     A
C613   H662    1.084   .     S
H614   C628    1.083   .     S
H615   C625    1.080   .     S
C617   C628    1.398   .     A
C617   C627    1.403   .     A
C618   H631    1.072   .     S
C618   C619    1.392   .     A
C618   C629    1.391   .     A
C619   C206    1.395   1_556 S
C620   H632    1.077   .     S
C621   C622    1.415   .     A
C621   C206    1.416   1_556 S
C621   C209    1.427   1_556 S
C622   C629    1.423   .     A
C622   C626    1.406   .     A
C623   C627    1.400   .     A
C624   C625    1.391   .     A
C624   C209    1.421   1_556 S
C624   C199    1.403   1_556 S
C625   C626    1.384   .     A
C626   Br643   1.929   .     S
C627   H630    1.076   .     S
H633   C665    1.083   .     S
C634   C773    1.347   .     S
C634   Br782   1.936   .     S
N636   H683    1.029   .     S
N636   N684    1.293   .     S
H639   N684    1.028   .     S
N640   O642    1.301   .     A
N640   O641    1.302   .     A
N640   C773    1.445   .     S
O645   Cu651   1.968   .     S
O645   C647    1.290   .     A
O646   C647    1.290   .     A
O646   Cu652   1.958   .     S
C647   C680    1.424   .     S
O648   Cu651   1.945   .     S
O648   C650    1.323   .     A
O649   Cu652   1.933   .     S
O649   C650    1.290   .     A
C650   C675    1.491   .     S
Cu651  O655    1.933   .     S
Cu651  N684    2.027   .     S
Cu651  Cu652   2.698   .     S
Cu651  O653    1.958   .     S
Cu652  O656    1.945   .     S
Cu652  N682    2.027   .     S
Cu652  O654    1.968   .     S
O653   C657    1.293   .     A
O654   C657    1.291   .     A
O655   C658    1.295   .     A
O656   C658    1.305   .     A
C657   C681    1.431   .     S
C658   C663    1.463   .     S
C659   C674    1.391   .     A
C659   H570    1.084   1_655 S
H660   C674    1.083   .     S
H661   C671    1.080   .     S
C663   C674    1.398   .     A
C663   C673    1.403   .     A
C664   H677    1.072   .     S
C664   C665    1.392   .     A
C664   C675    1.391   .     A
C665   C252    1.395   1_556 S
C666   H678    1.077   .     S
C667   C668    1.415   .     A
C667   C252    1.416   1_556 S
C667   C255    1.427   1_556 S
C668   C675    1.423   .     A
C668   C672    1.406   .     A
C669   C673    1.400   .     A
C670   C671    1.391   .     A
C670   C255    1.421   1_556 S
C670   C245    1.403   1_556 S
C671   C672    1.384   .     A
C672   Br689   1.929   .     S
C673   H676    1.076   .     S
H679   C573    1.083   1_655 S
C680   C819    1.347   .     S
C680   Br828   1.936   .     S
N682   H591    1.029   1_655 S
N682   N592    1.293   1_655 S
H685   N592    1.028   1_655 S
N686   O688    1.301   .     A
N686   O687    1.302   .     A
N686   C819    1.445   .     S
O691   Cu697   1.968   .     S
O691   C693    1.290   .     A
O692   C693    1.290   .     A
O692   Cu698   1.958   .     S
C693   C726    1.424   .     S
O694   Cu697   1.945   .     S
O694   C696    1.323   .     A
O695   Cu698   1.933   .     S
O695   C696    1.290   .     A
C696   C721    1.491   .     S
Cu697  O701    1.933   .     S
Cu697  N730    2.027   .     S
Cu697  Cu698   2.698   .     S
Cu697  O699    1.958   .     S
Cu698  O702    1.945   .     S
Cu698  N728    2.027   .     S
Cu698  O700    1.968   .     S
O699   C703    1.293   .     A
O700   C703    1.291   .     A
O701   C704    1.295   .     A
O702   C704    1.305   .     A
C703   C727    1.431   .     S
C704   C709    1.463   .     S
C705   C720    1.391   .     A
C705   H754    1.084   .     S
H706   C720    1.083   .     S
H707   C717    1.080   .     S
H708   C797    1.084   1_455 S
C709   C720    1.398   .     A
C709   C719    1.403   .     A
C710   H723    1.072   .     S
C710   C711    1.392   .     A
C710   C721    1.391   .     A
C711   C298    1.395   1_556 S
C711   H817    1.083   1_455 S
C712   H724    1.077   .     S
C713   C714    1.415   .     A
C713   C298    1.416   1_556 S
C713   C301    1.427   1_556 S
C714   C721    1.423   .     A
C714   C718    1.406   .     A
C715   C719    1.400   .     A
C716   C717    1.391   .     A
C716   C301    1.421   1_556 S
C716   C291    1.403   1_556 S
C717   C718    1.384   .     A
C718   Br735   1.929   .     S
C719   H722    1.076   .     S
H725   C757    1.083   .     S
C726   C451    1.347   1_565 S
C726   Br460   1.936   1_565 S
N728   H775    1.029   .     S
N728   N776    1.293   .     S
H729   N820    1.029   1_455 S
N730   N820    1.293   1_455 S
N730   H823    1.028   1_455 S
H731   N776    1.028   .     S
N732   O734    1.301   .     A
N732   O733    1.302   .     A
N732   C451    1.445   1_565 S
O737   Cu743   1.968   .     S
O737   C739    1.290   .     A
O738   C739    1.290   .     A
O738   Cu744   1.958   .     S
C739   C772    1.424   .     S
O740   Cu743   1.945   .     S
O740   C742    1.323   .     A
O741   Cu744   1.933   .     S
O741   C742    1.290   .     A
C742   C767    1.491   .     S
Cu743  O747    1.933   .     S
Cu743  N776    2.027   .     S
Cu743  Cu744   2.698   .     S
Cu743  O745    1.958   .     S
Cu744  O748    1.945   .     S
Cu744  N774    2.027   .     S
Cu744  O746    1.968   .     S
O745   C749    1.293   .     A
O746   C749    1.291   .     A
O747   C750    1.295   .     A
O748   C750    1.305   .     A
C749   C773    1.431   .     S
C750   C755    1.463   .     S
C751   C766    1.391   .     A
C751   H800    1.084   .     S
H752   C766    1.083   .     S
H753   C763    1.080   .     S
C755   C766    1.398   .     A
C755   C765    1.403   .     A
C756   H769    1.072   .     S
C756   C757    1.392   .     A
C756   C767    1.391   .     A
C757   C344    1.395   1_556 S
C758   H770    1.077   .     S
C759   C760    1.415   .     A
C759   C344    1.416   1_556 S
C759   C347    1.427   1_556 S
C760   C767    1.423   .     A
C760   C764    1.406   .     A
C761   C765    1.400   .     A
C762   C763    1.391   .     A
C762   C347    1.421   1_556 S
C762   C337    1.403   1_556 S
C763   C764    1.384   .     A
C764   Br781   1.929   .     S
C765   H768    1.076   .     S
H771   C803    1.083   .     S
C772   C497    1.347   1_565 S
C772   Br506   1.936   1_565 S
N774   H821    1.029   .     S
N774   N822    1.293   .     S
H777   N822    1.028   .     S
N778   O780    1.301   .     A
N778   O779    1.302   .     A
N778   C497    1.445   1_565 S
O783   Cu789   1.968   .     S
O783   C785    1.290   .     A
O784   C785    1.290   .     A
O784   Cu790   1.958   .     S
C785   C818    1.424   .     S
O786   Cu789   1.945   .     S
O786   C788    1.323   .     A
O787   Cu790   1.933   .     S
O787   C788    1.290   .     A
C788   C813    1.491   .     S
Cu789  O793    1.933   .     S
Cu789  N822    2.027   .     S
Cu789  Cu790   2.698   .     S
Cu789  O791    1.958   .     S
Cu790  O794    1.945   .     S
Cu790  N820    2.027   .     S
Cu790  O792    1.968   .     S
O791   C795    1.293   .     A
O792   C795    1.291   .     A
O793   C796    1.295   .     A
O794   C796    1.305   .     A
C795   C819    1.431   .     S
C796   C801    1.463   .     S
C797   C812    1.391   .     A
C797   H708    1.084   1_655 S
H798   C812    1.083   .     S
H799   C809    1.080   .     S
C801   C812    1.398   .     A
C801   C811    1.403   .     A
C802   H815    1.072   .     S
C802   C803    1.392   .     A
C802   C813    1.391   .     A
C803   C390    1.395   1_556 S
C804   H816    1.077   .     S
C805   C806    1.415   .     A
C805   C390    1.416   1_556 S
C805   C393    1.427   1_556 S
C806   C813    1.423   .     A
C806   C810    1.406   .     A
C807   C811    1.400   .     A
C808   C809    1.391   .     A
C808   C393    1.421   1_556 S
C808   C383    1.403   1_556 S
C809   C810    1.384   .     A
C810   Br827   1.929   .     S
C811   H814    1.076   .     S
H817   C711    1.083   1_655 S
C818   C543    1.347   1_565 S
C818   Br552   1.936   1_565 S
N820   H729    1.029   1_655 S
N820   N730    1.293   1_655 S
H823   N730    1.028   1_655 S
N824   O826    1.301   .     A
N824   O825    1.302   .     A
N824   C543    1.445   1_565 S
