data_str_m2_o1_o16_pcu_sym.107
_audit_creation_date              2020-01-03
_audit_creation_method            'Materials Studio'
_symmetry_space_group_name_H-M    'P1'
_symmetry_Int_Tables_number       1
_symmetry_cell_setting            triclinic
loop_
_symmetry_equiv_pos_as_xyz
  x,y,z
_cell_length_a                    28.7395
_cell_length_b                    32.5746
_cell_length_c                    26.9807
_cell_angle_alpha                 92.2930
_cell_angle_beta                  73.2785
_cell_angle_gamma                 89.7640
loop_
_atom_site_label
_atom_site_type_symbol
_atom_site_fract_x
_atom_site_fract_y
_atom_site_fract_z
_atom_site_U_iso_or_equiv
_atom_site_adp_type
_atom_site_occupancy
Br1    Br    0.07353   0.28876   0.21827   0.00000  Uiso   1.00
Br2    Br    0.25457   0.22890   0.33317   0.00000  Uiso   1.00
Br3    Br    0.03415   0.22982   0.33145   0.00000  Uiso   1.00
Br4    Br    0.30219   0.10203   0.16948   0.00000  Uiso   1.00
Br5    Br    0.30970   0.11932   0.39137   0.00000  Uiso   1.00
Br6    Br    0.11784   0.11529   0.09829   0.00000  Uiso   1.00
Br7    Br    0.27675   0.28851   0.22187   0.00000  Uiso   1.00
C8     C     0.16781   0.24575   0.24567   0.00000  Uiso   1.00
C9     C     0.12722   0.16199   0.40656   0.00000  Uiso   1.00
C10    C     0.21253   0.31237   0.23774   0.00000  Uiso   1.00
C11    C     0.14111   0.16421   0.34967   0.00000  Uiso   1.00
C12    C     0.21072   0.02149   0.24267   0.00000  Uiso   1.00
C13    C     0.16793   0.04291   0.24547   0.00000  Uiso   1.00
C14    C     0.12734   0.02178   0.24032   0.00000  Uiso   1.00
C15    C     0.12812   0.31261   0.23589   0.00000  Uiso   1.00
C16    C     0.16958   0.29040   0.23932   0.00000  Uiso   1.00
C17    C     0.29947   0.19265   0.28338   0.00000  Uiso   1.00
C18    C     0.01573   0.19292   0.28295   0.00000  Uiso   1.00
C19    C     0.14905   0.15874   0.48770   0.00000  Uiso   1.00
C20    C     0.03336   0.13942   0.21932   0.00000  Uiso   1.00
C21    C     0.31791   0.14001   0.21795   0.00000  Uiso   1.00
C22    C     0.16694   0.08746   0.24911   0.00000  Uiso   1.00
C23    C     0.19255   0.16404   0.15015   0.00000  Uiso   1.00
C24    C     0.26983   0.15082   0.01098   0.00000  Uiso   1.00
C25    C     0.20730   0.15818   0.09337   0.00000  Uiso   1.00
C26    C     0.08037   0.17567   0.43492   0.00000  Uiso   1.00
C27    C     0.06850   0.18265   0.48817   0.00000  Uiso   1.00
C28    C     0.10272   0.17542   0.01418   0.00000  Uiso   1.00
C29    C     0.16159   0.15162   0.43339   0.00000  Uiso   1.00
C30    C     0.18462   0.15226   0.01367   0.00000  Uiso   1.00
C31    C     0.23397   0.14689   0.48507   0.00000  Uiso   1.00
C32    C     0.24536   0.13597   0.43210   0.00000  Uiso   1.00
C33    C     0.20849   0.13513   0.40796   0.00000  Uiso   1.00
C34    C     0.17227   0.14955   0.06742   0.00000  Uiso   1.00
C35    C     0.25643   0.15932   0.06442   0.00000  Uiso   1.00
Cu36   Cu    0.11978   0.16666   0.25000   0.00000  Uiso   1.00
Cu37   Cu    0.21355   0.16667   0.25000   0.00000  Uiso   1.00
H38    H     0.28457   0.16440   0.08331   0.00000  Uiso   1.00
H39    H     0.05831   0.11652   0.19643   0.00000  Uiso   1.00
H40    H     0.05351   0.18334   0.41564   0.00000  Uiso   1.00
H41    H     0.09306   0.18438   0.05494   0.00000  Uiso   1.00
H42    H     0.03321   0.19546   0.00921   0.00000  Uiso   1.00
H43    H     0.21783   0.12185   0.36905   0.00000  Uiso   1.00
H44    H     0.24343   0.03774   0.24300   0.00000  Uiso   1.00
H45    H     0.09512   0.03831   0.23850   0.00000  Uiso   1.00
H46    H     0.30799   0.14827   0.49020   0.00000  Uiso   1.00
N47    N     0.04931   0.16666   0.24999   0.00000  Uiso   1.00
N48    N     0.28402   0.16669   0.24999   0.00000  Uiso   1.00
O49    O     0.12708   0.22678   0.25001   0.00000  Uiso   1.00
O50    O     0.20627   0.22679   0.25000   0.00000  Uiso   1.00
O51    O     0.10775   0.16665   0.32549   0.00000  Uiso   1.00
O52    O     0.18694   0.16666   0.32549   0.00000  Uiso   1.00
O53    O     0.12706   0.10654   0.24999   0.00000  Uiso   1.00
O54    O     0.20625   0.10655   0.24999   0.00000  Uiso   1.00
O55    O     0.14640   0.16667   0.17451   0.00000  Uiso   1.00
O56    O     0.22559   0.16668   0.17451   0.00000  Uiso   1.00
Br57   Br    0.40687   0.28876   0.21827   0.00000  Uiso   1.00
Br58   Br    0.58790   0.22890   0.33317   0.00000  Uiso   1.00
Br59   Br    0.36748   0.22982   0.33145   0.00000  Uiso   1.00
Br60   Br    0.63552   0.10203   0.16948   0.00000  Uiso   1.00
Br61   Br    0.64303   0.11932   0.39137   0.00000  Uiso   1.00
Br62   Br    0.45117   0.11529   0.09829   0.00000  Uiso   1.00
Br63   Br    0.61009   0.28851   0.22187   0.00000  Uiso   1.00
C64    C     0.50114   0.24575   0.24567   0.00000  Uiso   1.00
C65    C     0.46055   0.16199   0.40656   0.00000  Uiso   1.00
C66    C     0.54586   0.31237   0.23774   0.00000  Uiso   1.00
C67    C     0.47444   0.16421   0.34967   0.00000  Uiso   1.00
C68    C     0.54405   0.02149   0.24267   0.00000  Uiso   1.00
C69    C     0.50126   0.04291   0.24547   0.00000  Uiso   1.00
C70    C     0.46068   0.02178   0.24032   0.00000  Uiso   1.00
C71    C     0.46145   0.31261   0.23589   0.00000  Uiso   1.00
C72    C     0.50292   0.29040   0.23932   0.00000  Uiso   1.00
C73    C     0.63280   0.19265   0.28338   0.00000  Uiso   1.00
C74    C     0.34906   0.19292   0.28295   0.00000  Uiso   1.00
C75    C     0.48239   0.15874   0.48770   0.00000  Uiso   1.00
C76    C     0.36669   0.13942   0.21932   0.00000  Uiso   1.00
C77    C     0.65124   0.14001   0.21795   0.00000  Uiso   1.00
C78    C     0.50027   0.08746   0.24911   0.00000  Uiso   1.00
C79    C     0.52588   0.16404   0.15015   0.00000  Uiso   1.00
C80    C     0.60316   0.15082   0.01098   0.00000  Uiso   1.00
C81    C     0.54063   0.15818   0.09337   0.00000  Uiso   1.00
C82    C     0.41370   0.17567   0.43492   0.00000  Uiso   1.00
C83    C     0.40183   0.18265   0.48817   0.00000  Uiso   1.00
C84    C     0.43605   0.17542   0.01418   0.00000  Uiso   1.00
C85    C     0.49492   0.15162   0.43339   0.00000  Uiso   1.00
C86    C     0.51795   0.15226   0.01367   0.00000  Uiso   1.00
C87    C     0.56731   0.14689   0.48507   0.00000  Uiso   1.00
C88    C     0.57870   0.13597   0.43210   0.00000  Uiso   1.00
C89    C     0.54182   0.13513   0.40796   0.00000  Uiso   1.00
C90    C     0.50560   0.14955   0.06742   0.00000  Uiso   1.00
C91    C     0.58976   0.15932   0.06442   0.00000  Uiso   1.00
Cu92   Cu    0.45311   0.16666   0.25000   0.00000  Uiso   1.00
Cu93   Cu    0.54689   0.16667   0.25000   0.00000  Uiso   1.00
H94    H     0.61791   0.16440   0.08331   0.00000  Uiso   1.00
H95    H     0.39165   0.11652   0.19643   0.00000  Uiso   1.00
H96    H     0.38685   0.18334   0.41564   0.00000  Uiso   1.00
H97    H     0.42640   0.18438   0.05494   0.00000  Uiso   1.00
H98    H     0.36654   0.19546   0.00921   0.00000  Uiso   1.00
H99    H     0.55116   0.12185   0.36905   0.00000  Uiso   1.00
H100   H     0.57677   0.03774   0.24300   0.00000  Uiso   1.00
H101   H     0.42845   0.03831   0.23850   0.00000  Uiso   1.00
H102   H     0.64133   0.14827   0.49020   0.00000  Uiso   1.00
N103   N     0.38265   0.16666   0.24999   0.00000  Uiso   1.00
N104   N     0.61735   0.16669   0.24999   0.00000  Uiso   1.00
O105   O     0.46042   0.22678   0.25001   0.00000  Uiso   1.00
O106   O     0.53961   0.22679   0.25000   0.00000  Uiso   1.00
O107   O     0.44108   0.16665   0.32549   0.00000  Uiso   1.00
O108   O     0.52027   0.16666   0.32549   0.00000  Uiso   1.00
O109   O     0.46039   0.10654   0.24999   0.00000  Uiso   1.00
O110   O     0.53958   0.10655   0.24999   0.00000  Uiso   1.00
O111   O     0.47973   0.16667   0.17451   0.00000  Uiso   1.00
O112   O     0.55892   0.16668   0.17451   0.00000  Uiso   1.00
Br113  Br    0.74020   0.28876   0.21827   0.00000  Uiso   1.00
Br114  Br    0.92123   0.22890   0.33317   0.00000  Uiso   1.00
Br115  Br    0.70081   0.22982   0.33145   0.00000  Uiso   1.00
Br116  Br    0.96885   0.10203   0.16948   0.00000  Uiso   1.00
Br117  Br    0.97637   0.11932   0.39137   0.00000  Uiso   1.00
Br118  Br    0.78450   0.11529   0.09829   0.00000  Uiso   1.00
Br119  Br    0.94342   0.28851   0.22187   0.00000  Uiso   1.00
C120   C     0.83448   0.24575   0.24567   0.00000  Uiso   1.00
C121   C     0.79388   0.16199   0.40656   0.00000  Uiso   1.00
C122   C     0.87920   0.31237   0.23774   0.00000  Uiso   1.00
C123   C     0.80778   0.16421   0.34967   0.00000  Uiso   1.00
C124   C     0.87738   0.02149   0.24267   0.00000  Uiso   1.00
C125   C     0.83460   0.04291   0.24547   0.00000  Uiso   1.00
C126   C     0.79401   0.02178   0.24032   0.00000  Uiso   1.00
C127   C     0.79479   0.31261   0.23589   0.00000  Uiso   1.00
C128   C     0.83625   0.29040   0.23932   0.00000  Uiso   1.00
C129   C     0.96613   0.19265   0.28338   0.00000  Uiso   1.00
C130   C     0.68239   0.19292   0.28295   0.00000  Uiso   1.00
C131   C     0.81572   0.15874   0.48770   0.00000  Uiso   1.00
C132   C     0.70003   0.13942   0.21932   0.00000  Uiso   1.00
C133   C     0.98457   0.14001   0.21795   0.00000  Uiso   1.00
C134   C     0.83361   0.08746   0.24911   0.00000  Uiso   1.00
C135   C     0.85921   0.16404   0.15015   0.00000  Uiso   1.00
C136   C     0.93650   0.15082   0.01098   0.00000  Uiso   1.00
C137   C     0.87397   0.15818   0.09337   0.00000  Uiso   1.00
C138   C     0.74703   0.17567   0.43492   0.00000  Uiso   1.00
C139   C     0.73516   0.18265   0.48817   0.00000  Uiso   1.00
C140   C     0.76938   0.17542   0.01418   0.00000  Uiso   1.00
C141   C     0.82825   0.15162   0.43339   0.00000  Uiso   1.00
C142   C     0.85129   0.15226   0.01367   0.00000  Uiso   1.00
C143   C     0.90064   0.14689   0.48507   0.00000  Uiso   1.00
C144   C     0.91203   0.13597   0.43210   0.00000  Uiso   1.00
C145   C     0.87516   0.13513   0.40796   0.00000  Uiso   1.00
C146   C     0.83894   0.14955   0.06742   0.00000  Uiso   1.00
C147   C     0.92309   0.15932   0.06442   0.00000  Uiso   1.00
Cu148  Cu    0.78645   0.16666   0.25000   0.00000  Uiso   1.00
Cu149  Cu    0.88022   0.16667   0.25000   0.00000  Uiso   1.00
H150   H     0.95124   0.16440   0.08331   0.00000  Uiso   1.00
H151   H     0.72498   0.11652   0.19643   0.00000  Uiso   1.00
H152   H     0.72018   0.18334   0.41564   0.00000  Uiso   1.00
H153   H     0.75973   0.18438   0.05494   0.00000  Uiso   1.00
H154   H     0.69987   0.19546   0.00921   0.00000  Uiso   1.00
H155   H     0.88450   0.12185   0.36905   0.00000  Uiso   1.00
H156   H     0.91010   0.03774   0.24300   0.00000  Uiso   1.00
H157   H     0.76178   0.03831   0.23850   0.00000  Uiso   1.00
H158   H     0.97466   0.14827   0.49020   0.00000  Uiso   1.00
N159   N     0.71598   0.16666   0.24999   0.00000  Uiso   1.00
N160   N     0.95069   0.16669   0.24999   0.00000  Uiso   1.00
O161   O     0.79375   0.22678   0.25001   0.00000  Uiso   1.00
O162   O     0.87294   0.22679   0.25000   0.00000  Uiso   1.00
O163   O     0.77441   0.16665   0.32549   0.00000  Uiso   1.00
O164   O     0.85360   0.16666   0.32549   0.00000  Uiso   1.00
O165   O     0.79373   0.10654   0.24999   0.00000  Uiso   1.00
O166   O     0.87292   0.10655   0.24999   0.00000  Uiso   1.00
O167   O     0.81306   0.16667   0.17451   0.00000  Uiso   1.00
O168   O     0.89225   0.16668   0.17451   0.00000  Uiso   1.00
Br169  Br    0.07353   0.62209   0.21827   0.00000  Uiso   1.00
Br170  Br    0.25457   0.56223   0.33317   0.00000  Uiso   1.00
Br171  Br    0.03415   0.56316   0.33145   0.00000  Uiso   1.00
Br172  Br    0.30219   0.43536   0.16948   0.00000  Uiso   1.00
Br173  Br    0.30970   0.45265   0.39137   0.00000  Uiso   1.00
Br174  Br    0.11784   0.44862   0.09829   0.00000  Uiso   1.00
Br175  Br    0.27675   0.62184   0.22187   0.00000  Uiso   1.00
C176   C     0.16781   0.57908   0.24567   0.00000  Uiso   1.00
C177   C     0.12722   0.49533   0.40656   0.00000  Uiso   1.00
C178   C     0.21253   0.64570   0.23774   0.00000  Uiso   1.00
C179   C     0.14111   0.49754   0.34967   0.00000  Uiso   1.00
C180   C     0.21072   0.35482   0.24267   0.00000  Uiso   1.00
C181   C     0.16793   0.37624   0.24547   0.00000  Uiso   1.00
C182   C     0.12734   0.35511   0.24032   0.00000  Uiso   1.00
C183   C     0.12812   0.64594   0.23589   0.00000  Uiso   1.00
C184   C     0.16958   0.62374   0.23932   0.00000  Uiso   1.00
C185   C     0.29947   0.52598   0.28338   0.00000  Uiso   1.00
C186   C     0.01573   0.52626   0.28295   0.00000  Uiso   1.00
C187   C     0.14905   0.49208   0.48770   0.00000  Uiso   1.00
C188   C     0.03336   0.47276   0.21932   0.00000  Uiso   1.00
C189   C     0.31791   0.47335   0.21795   0.00000  Uiso   1.00
C190   C     0.16694   0.42080   0.24911   0.00000  Uiso   1.00
C191   C     0.19255   0.49737   0.15015   0.00000  Uiso   1.00
C192   C     0.26983   0.48415   0.01098   0.00000  Uiso   1.00
C193   C     0.20730   0.49151   0.09337   0.00000  Uiso   1.00
C194   C     0.08037   0.50900   0.43492   0.00000  Uiso   1.00
C195   C     0.06850   0.51599   0.48817   0.00000  Uiso   1.00
C196   C     0.10272   0.50876   0.01418   0.00000  Uiso   1.00
C197   C     0.16159   0.48495   0.43339   0.00000  Uiso   1.00
C198   C     0.18462   0.48559   0.01367   0.00000  Uiso   1.00
C199   C     0.23397   0.48023   0.48507   0.00000  Uiso   1.00
C200   C     0.24536   0.46931   0.43210   0.00000  Uiso   1.00
C201   C     0.20849   0.46847   0.40796   0.00000  Uiso   1.00
C202   C     0.17227   0.48288   0.06742   0.00000  Uiso   1.00
C203   C     0.25643   0.49265   0.06442   0.00000  Uiso   1.00
Cu204  Cu    0.11978   0.49999   0.25000   0.00000  Uiso   1.00
Cu205  Cu    0.21355   0.50001   0.25000   0.00000  Uiso   1.00
H206   H     0.28457   0.49773   0.08331   0.00000  Uiso   1.00
H207   H     0.05831   0.44986   0.19643   0.00000  Uiso   1.00
H208   H     0.05351   0.51668   0.41564   0.00000  Uiso   1.00
H209   H     0.09306   0.51771   0.05494   0.00000  Uiso   1.00
H210   H     0.03321   0.52879   0.00921   0.00000  Uiso   1.00
H211   H     0.21783   0.45518   0.36905   0.00000  Uiso   1.00
H212   H     0.24343   0.37107   0.24300   0.00000  Uiso   1.00
H213   H     0.09512   0.37164   0.23850   0.00000  Uiso   1.00
H214   H     0.30799   0.48160   0.49020   0.00000  Uiso   1.00
N215   N     0.04931   0.49999   0.24999   0.00000  Uiso   1.00
N216   N     0.28402   0.50002   0.24999   0.00000  Uiso   1.00
O217   O     0.12708   0.56011   0.25001   0.00000  Uiso   1.00
O218   O     0.20627   0.56012   0.25000   0.00000  Uiso   1.00
O219   O     0.10775   0.49998   0.32549   0.00000  Uiso   1.00
O220   O     0.18694   0.49999   0.32549   0.00000  Uiso   1.00
O221   O     0.12706   0.43988   0.24999   0.00000  Uiso   1.00
O222   O     0.20625   0.43989   0.24999   0.00000  Uiso   1.00
O223   O     0.14640   0.50001   0.17451   0.00000  Uiso   1.00
O224   O     0.22559   0.50002   0.17451   0.00000  Uiso   1.00
Br225  Br    0.40687   0.62209   0.21827   0.00000  Uiso   1.00
Br226  Br    0.58790   0.56223   0.33317   0.00000  Uiso   1.00
Br227  Br    0.36748   0.56316   0.33145   0.00000  Uiso   1.00
Br228  Br    0.63552   0.43536   0.16948   0.00000  Uiso   1.00
Br229  Br    0.64303   0.45265   0.39137   0.00000  Uiso   1.00
Br230  Br    0.45117   0.44862   0.09829   0.00000  Uiso   1.00
Br231  Br    0.61009   0.62184   0.22187   0.00000  Uiso   1.00
C232   C     0.50114   0.57908   0.24567   0.00000  Uiso   1.00
C233   C     0.46055   0.49533   0.40656   0.00000  Uiso   1.00
C234   C     0.54586   0.64570   0.23774   0.00000  Uiso   1.00
C235   C     0.47444   0.49754   0.34967   0.00000  Uiso   1.00
C236   C     0.54405   0.35482   0.24267   0.00000  Uiso   1.00
C237   C     0.50126   0.37624   0.24547   0.00000  Uiso   1.00
C238   C     0.46068   0.35511   0.24032   0.00000  Uiso   1.00
C239   C     0.46145   0.64594   0.23589   0.00000  Uiso   1.00
C240   C     0.50292   0.62374   0.23932   0.00000  Uiso   1.00
C241   C     0.63280   0.52598   0.28338   0.00000  Uiso   1.00
C242   C     0.34906   0.52626   0.28295   0.00000  Uiso   1.00
C243   C     0.48239   0.49208   0.48770   0.00000  Uiso   1.00
C244   C     0.36669   0.47276   0.21932   0.00000  Uiso   1.00
C245   C     0.65124   0.47335   0.21795   0.00000  Uiso   1.00
C246   C     0.50027   0.42080   0.24911   0.00000  Uiso   1.00
C247   C     0.52588   0.49737   0.15015   0.00000  Uiso   1.00
C248   C     0.60316   0.48415   0.01098   0.00000  Uiso   1.00
C249   C     0.54063   0.49151   0.09337   0.00000  Uiso   1.00
C250   C     0.41370   0.50900   0.43492   0.00000  Uiso   1.00
C251   C     0.40183   0.51599   0.48817   0.00000  Uiso   1.00
C252   C     0.43605   0.50876   0.01418   0.00000  Uiso   1.00
C253   C     0.49492   0.48495   0.43339   0.00000  Uiso   1.00
C254   C     0.51795   0.48559   0.01367   0.00000  Uiso   1.00
C255   C     0.56731   0.48023   0.48507   0.00000  Uiso   1.00
C256   C     0.57870   0.46931   0.43210   0.00000  Uiso   1.00
C257   C     0.54182   0.46847   0.40796   0.00000  Uiso   1.00
C258   C     0.50560   0.48288   0.06742   0.00000  Uiso   1.00
C259   C     0.58976   0.49265   0.06442   0.00000  Uiso   1.00
Cu260  Cu    0.45311   0.49999   0.25000   0.00000  Uiso   1.00
Cu261  Cu    0.54689   0.50001   0.25000   0.00000  Uiso   1.00
H262   H     0.61791   0.49773   0.08331   0.00000  Uiso   1.00
H263   H     0.39165   0.44986   0.19643   0.00000  Uiso   1.00
H264   H     0.38685   0.51668   0.41564   0.00000  Uiso   1.00
H265   H     0.42640   0.51771   0.05494   0.00000  Uiso   1.00
H266   H     0.36654   0.52879   0.00921   0.00000  Uiso   1.00
H267   H     0.55116   0.45518   0.36905   0.00000  Uiso   1.00
H268   H     0.57677   0.37107   0.24300   0.00000  Uiso   1.00
H269   H     0.42845   0.37164   0.23850   0.00000  Uiso   1.00
H270   H     0.64133   0.48160   0.49020   0.00000  Uiso   1.00
N271   N     0.38265   0.49999   0.24999   0.00000  Uiso   1.00
N272   N     0.61735   0.50002   0.24999   0.00000  Uiso   1.00
O273   O     0.46042   0.56011   0.25001   0.00000  Uiso   1.00
O274   O     0.53961   0.56012   0.25000   0.00000  Uiso   1.00
O275   O     0.44108   0.49998   0.32549   0.00000  Uiso   1.00
O276   O     0.52027   0.49999   0.32549   0.00000  Uiso   1.00
O277   O     0.46039   0.43988   0.24999   0.00000  Uiso   1.00
O278   O     0.53958   0.43989   0.24999   0.00000  Uiso   1.00
O279   O     0.47973   0.50001   0.17451   0.00000  Uiso   1.00
O280   O     0.55892   0.50002   0.17451   0.00000  Uiso   1.00
Br281  Br    0.74020   0.62209   0.21827   0.00000  Uiso   1.00
Br282  Br    0.92123   0.56223   0.33317   0.00000  Uiso   1.00
Br283  Br    0.70081   0.56316   0.33145   0.00000  Uiso   1.00
Br284  Br    0.96885   0.43536   0.16948   0.00000  Uiso   1.00
Br285  Br    0.97637   0.45265   0.39137   0.00000  Uiso   1.00
Br286  Br    0.78450   0.44862   0.09829   0.00000  Uiso   1.00
Br287  Br    0.94342   0.62184   0.22187   0.00000  Uiso   1.00
C288   C     0.83448   0.57908   0.24567   0.00000  Uiso   1.00
C289   C     0.79388   0.49533   0.40656   0.00000  Uiso   1.00
C290   C     0.87920   0.64570   0.23774   0.00000  Uiso   1.00
C291   C     0.80778   0.49754   0.34967   0.00000  Uiso   1.00
C292   C     0.87738   0.35482   0.24267   0.00000  Uiso   1.00
C293   C     0.83460   0.37624   0.24547   0.00000  Uiso   1.00
C294   C     0.79401   0.35511   0.24032   0.00000  Uiso   1.00
C295   C     0.79479   0.64594   0.23589   0.00000  Uiso   1.00
C296   C     0.83625   0.62374   0.23932   0.00000  Uiso   1.00
C297   C     0.96613   0.52598   0.28338   0.00000  Uiso   1.00
C298   C     0.68239   0.52626   0.28295   0.00000  Uiso   1.00
C299   C     0.81572   0.49208   0.48770   0.00000  Uiso   1.00
C300   C     0.70003   0.47276   0.21932   0.00000  Uiso   1.00
C301   C     0.98457   0.47335   0.21795   0.00000  Uiso   1.00
C302   C     0.83361   0.42080   0.24911   0.00000  Uiso   1.00
C303   C     0.85921   0.49737   0.15015   0.00000  Uiso   1.00
C304   C     0.93650   0.48415   0.01098   0.00000  Uiso   1.00
C305   C     0.87397   0.49151   0.09337   0.00000  Uiso   1.00
C306   C     0.74703   0.50900   0.43492   0.00000  Uiso   1.00
C307   C     0.73516   0.51599   0.48817   0.00000  Uiso   1.00
C308   C     0.76938   0.50876   0.01418   0.00000  Uiso   1.00
C309   C     0.82825   0.48495   0.43339   0.00000  Uiso   1.00
C310   C     0.85129   0.48559   0.01367   0.00000  Uiso   1.00
C311   C     0.90064   0.48023   0.48507   0.00000  Uiso   1.00
C312   C     0.91203   0.46931   0.43210   0.00000  Uiso   1.00
C313   C     0.87516   0.46847   0.40796   0.00000  Uiso   1.00
C314   C     0.83894   0.48288   0.06742   0.00000  Uiso   1.00
C315   C     0.92309   0.49265   0.06442   0.00000  Uiso   1.00
Cu316  Cu    0.78645   0.49999   0.25000   0.00000  Uiso   1.00
Cu317  Cu    0.88022   0.50001   0.25000   0.00000  Uiso   1.00
H318   H     0.95124   0.49773   0.08331   0.00000  Uiso   1.00
H319   H     0.72498   0.44986   0.19643   0.00000  Uiso   1.00
H320   H     0.72018   0.51668   0.41564   0.00000  Uiso   1.00
H321   H     0.75973   0.51771   0.05494   0.00000  Uiso   1.00
H322   H     0.69987   0.52879   0.00921   0.00000  Uiso   1.00
H323   H     0.88450   0.45518   0.36905   0.00000  Uiso   1.00
H324   H     0.91010   0.37107   0.24300   0.00000  Uiso   1.00
H325   H     0.76178   0.37164   0.23850   0.00000  Uiso   1.00
H326   H     0.97466   0.48160   0.49020   0.00000  Uiso   1.00
N327   N     0.71598   0.49999   0.24999   0.00000  Uiso   1.00
N328   N     0.95069   0.50002   0.24999   0.00000  Uiso   1.00
O329   O     0.79375   0.56011   0.25001   0.00000  Uiso   1.00
O330   O     0.87294   0.56012   0.25000   0.00000  Uiso   1.00
O331   O     0.77441   0.49998   0.32549   0.00000  Uiso   1.00
O332   O     0.85360   0.49999   0.32549   0.00000  Uiso   1.00
O333   O     0.79373   0.43988   0.24999   0.00000  Uiso   1.00
O334   O     0.87292   0.43989   0.24999   0.00000  Uiso   1.00
O335   O     0.81306   0.50001   0.17451   0.00000  Uiso   1.00
O336   O     0.89225   0.50002   0.17451   0.00000  Uiso   1.00
Br337  Br    0.07353   0.95543   0.21827   0.00000  Uiso   1.00
Br338  Br    0.25457   0.89557   0.33317   0.00000  Uiso   1.00
Br339  Br    0.03415   0.89649   0.33145   0.00000  Uiso   1.00
Br340  Br    0.30219   0.76869   0.16948   0.00000  Uiso   1.00
Br341  Br    0.30970   0.78599   0.39137   0.00000  Uiso   1.00
Br342  Br    0.11784   0.78195   0.09829   0.00000  Uiso   1.00
Br343  Br    0.27675   0.95518   0.22187   0.00000  Uiso   1.00
C344   C     0.16781   0.91242   0.24567   0.00000  Uiso   1.00
C345   C     0.12722   0.82866   0.40656   0.00000  Uiso   1.00
C346   C     0.21253   0.97904   0.23774   0.00000  Uiso   1.00
C347   C     0.14111   0.83087   0.34967   0.00000  Uiso   1.00
C348   C     0.21072   0.68815   0.24267   0.00000  Uiso   1.00
C349   C     0.16793   0.70958   0.24547   0.00000  Uiso   1.00
C350   C     0.12734   0.68845   0.24032   0.00000  Uiso   1.00
C351   C     0.12812   0.97927   0.23589   0.00000  Uiso   1.00
C352   C     0.16958   0.95707   0.23932   0.00000  Uiso   1.00
C353   C     0.29947   0.85932   0.28338   0.00000  Uiso   1.00
C354   C     0.01573   0.85959   0.28295   0.00000  Uiso   1.00
C355   C     0.14905   0.82541   0.48770   0.00000  Uiso   1.00
C356   C     0.03336   0.80609   0.21932   0.00000  Uiso   1.00
C357   C     0.31791   0.80668   0.21795   0.00000  Uiso   1.00
C358   C     0.16694   0.75413   0.24911   0.00000  Uiso   1.00
C359   C     0.19255   0.83071   0.15015   0.00000  Uiso   1.00
C360   C     0.26983   0.81749   0.01098   0.00000  Uiso   1.00
C361   C     0.20730   0.82485   0.09337   0.00000  Uiso   1.00
C362   C     0.08037   0.84233   0.43492   0.00000  Uiso   1.00
C363   C     0.06850   0.84932   0.48817   0.00000  Uiso   1.00
C364   C     0.10272   0.84209   0.01418   0.00000  Uiso   1.00
C365   C     0.16159   0.81828   0.43339   0.00000  Uiso   1.00
C366   C     0.18462   0.81892   0.01367   0.00000  Uiso   1.00
C367   C     0.23397   0.81356   0.48507   0.00000  Uiso   1.00
C368   C     0.24536   0.80264   0.43210   0.00000  Uiso   1.00
C369   C     0.20849   0.80180   0.40796   0.00000  Uiso   1.00
C370   C     0.17227   0.81622   0.06742   0.00000  Uiso   1.00
C371   C     0.25643   0.82599   0.06442   0.00000  Uiso   1.00
Cu372  Cu    0.11978   0.83333   0.25000   0.00000  Uiso   1.00
Cu373  Cu    0.21355   0.83334   0.25000   0.00000  Uiso   1.00
H374   H     0.28457   0.83107   0.08331   0.00000  Uiso   1.00
H375   H     0.05831   0.78319   0.19643   0.00000  Uiso   1.00
H376   H     0.05351   0.85001   0.41564   0.00000  Uiso   1.00
H377   H     0.09306   0.85105   0.05494   0.00000  Uiso   1.00
H378   H     0.03321   0.86213   0.00921   0.00000  Uiso   1.00
H379   H     0.21783   0.78852   0.36905   0.00000  Uiso   1.00
H380   H     0.24343   0.70440   0.24300   0.00000  Uiso   1.00
H381   H     0.09512   0.70497   0.23850   0.00000  Uiso   1.00
H382   H     0.30799   0.81494   0.49020   0.00000  Uiso   1.00
N383   N     0.04931   0.83332   0.24999   0.00000  Uiso   1.00
N384   N     0.28402   0.83335   0.24999   0.00000  Uiso   1.00
O385   O     0.12708   0.89345   0.25001   0.00000  Uiso   1.00
O386   O     0.20627   0.89346   0.25000   0.00000  Uiso   1.00
O387   O     0.10775   0.83332   0.32549   0.00000  Uiso   1.00
O388   O     0.18694   0.83333   0.32549   0.00000  Uiso   1.00
O389   O     0.12706   0.77321   0.24999   0.00000  Uiso   1.00
O390   O     0.20625   0.77322   0.24999   0.00000  Uiso   1.00
O391   O     0.14640   0.83334   0.17451   0.00000  Uiso   1.00
O392   O     0.22559   0.83335   0.17451   0.00000  Uiso   1.00
Br393  Br    0.40687   0.95543   0.21827   0.00000  Uiso   1.00
Br394  Br    0.58790   0.89557   0.33317   0.00000  Uiso   1.00
Br395  Br    0.36748   0.89649   0.33145   0.00000  Uiso   1.00
Br396  Br    0.63552   0.76869   0.16948   0.00000  Uiso   1.00
Br397  Br    0.64303   0.78599   0.39137   0.00000  Uiso   1.00
Br398  Br    0.45117   0.78195   0.09829   0.00000  Uiso   1.00
Br399  Br    0.61009   0.95518   0.22187   0.00000  Uiso   1.00
C400   C     0.50114   0.91242   0.24567   0.00000  Uiso   1.00
C401   C     0.46055   0.82866   0.40656   0.00000  Uiso   1.00
C402   C     0.54586   0.97904   0.23774   0.00000  Uiso   1.00
C403   C     0.47444   0.83087   0.34967   0.00000  Uiso   1.00
C404   C     0.54405   0.68815   0.24267   0.00000  Uiso   1.00
C405   C     0.50126   0.70958   0.24547   0.00000  Uiso   1.00
C406   C     0.46068   0.68845   0.24032   0.00000  Uiso   1.00
C407   C     0.46145   0.97927   0.23589   0.00000  Uiso   1.00
C408   C     0.50292   0.95707   0.23932   0.00000  Uiso   1.00
C409   C     0.63280   0.85932   0.28338   0.00000  Uiso   1.00
C410   C     0.34906   0.85959   0.28295   0.00000  Uiso   1.00
C411   C     0.48239   0.82541   0.48770   0.00000  Uiso   1.00
C412   C     0.36669   0.80609   0.21932   0.00000  Uiso   1.00
C413   C     0.65124   0.80668   0.21795   0.00000  Uiso   1.00
C414   C     0.50027   0.75413   0.24911   0.00000  Uiso   1.00
C415   C     0.52588   0.83071   0.15015   0.00000  Uiso   1.00
C416   C     0.60316   0.81749   0.01098   0.00000  Uiso   1.00
C417   C     0.54063   0.82485   0.09337   0.00000  Uiso   1.00
C418   C     0.41370   0.84233   0.43492   0.00000  Uiso   1.00
C419   C     0.40183   0.84932   0.48817   0.00000  Uiso   1.00
C420   C     0.43605   0.84209   0.01418   0.00000  Uiso   1.00
C421   C     0.49492   0.81828   0.43339   0.00000  Uiso   1.00
C422   C     0.51795   0.81892   0.01367   0.00000  Uiso   1.00
C423   C     0.56731   0.81356   0.48507   0.00000  Uiso   1.00
C424   C     0.57870   0.80264   0.43210   0.00000  Uiso   1.00
C425   C     0.54182   0.80180   0.40796   0.00000  Uiso   1.00
C426   C     0.50560   0.81622   0.06742   0.00000  Uiso   1.00
C427   C     0.58976   0.82599   0.06442   0.00000  Uiso   1.00
Cu428  Cu    0.45311   0.83333   0.25000   0.00000  Uiso   1.00
Cu429  Cu    0.54689   0.83334   0.25000   0.00000  Uiso   1.00
H430   H     0.61791   0.83107   0.08331   0.00000  Uiso   1.00
H431   H     0.39165   0.78319   0.19643   0.00000  Uiso   1.00
H432   H     0.38685   0.85001   0.41564   0.00000  Uiso   1.00
H433   H     0.42640   0.85105   0.05494   0.00000  Uiso   1.00
H434   H     0.36654   0.86213   0.00921   0.00000  Uiso   1.00
H435   H     0.55116   0.78852   0.36905   0.00000  Uiso   1.00
H436   H     0.57677   0.70440   0.24300   0.00000  Uiso   1.00
H437   H     0.42845   0.70497   0.23850   0.00000  Uiso   1.00
H438   H     0.64133   0.81494   0.49020   0.00000  Uiso   1.00
N439   N     0.38265   0.83332   0.24999   0.00000  Uiso   1.00
N440   N     0.61735   0.83335   0.24999   0.00000  Uiso   1.00
O441   O     0.46042   0.89345   0.25001   0.00000  Uiso   1.00
O442   O     0.53961   0.89346   0.25000   0.00000  Uiso   1.00
O443   O     0.44108   0.83332   0.32549   0.00000  Uiso   1.00
O444   O     0.52027   0.83333   0.32549   0.00000  Uiso   1.00
O445   O     0.46039   0.77321   0.24999   0.00000  Uiso   1.00
O446   O     0.53958   0.77322   0.24999   0.00000  Uiso   1.00
O447   O     0.47973   0.83334   0.17451   0.00000  Uiso   1.00
O448   O     0.55892   0.83335   0.17451   0.00000  Uiso   1.00
Br449  Br    0.74020   0.95543   0.21827   0.00000  Uiso   1.00
Br450  Br    0.92123   0.89557   0.33317   0.00000  Uiso   1.00
Br451  Br    0.70081   0.89649   0.33145   0.00000  Uiso   1.00
Br452  Br    0.96885   0.76869   0.16948   0.00000  Uiso   1.00
Br453  Br    0.97637   0.78599   0.39137   0.00000  Uiso   1.00
Br454  Br    0.78450   0.78195   0.09829   0.00000  Uiso   1.00
Br455  Br    0.94342   0.95518   0.22187   0.00000  Uiso   1.00
C456   C     0.83448   0.91242   0.24567   0.00000  Uiso   1.00
C457   C     0.79388   0.82866   0.40656   0.00000  Uiso   1.00
C458   C     0.87920   0.97904   0.23774   0.00000  Uiso   1.00
C459   C     0.80778   0.83087   0.34967   0.00000  Uiso   1.00
C460   C     0.87738   0.68815   0.24267   0.00000  Uiso   1.00
C461   C     0.83460   0.70958   0.24547   0.00000  Uiso   1.00
C462   C     0.79401   0.68845   0.24032   0.00000  Uiso   1.00
C463   C     0.79479   0.97927   0.23589   0.00000  Uiso   1.00
C464   C     0.83625   0.95707   0.23932   0.00000  Uiso   1.00
C465   C     0.96613   0.85932   0.28338   0.00000  Uiso   1.00
C466   C     0.68239   0.85959   0.28295   0.00000  Uiso   1.00
C467   C     0.81572   0.82541   0.48770   0.00000  Uiso   1.00
C468   C     0.70003   0.80609   0.21932   0.00000  Uiso   1.00
C469   C     0.98457   0.80668   0.21795   0.00000  Uiso   1.00
C470   C     0.83361   0.75413   0.24911   0.00000  Uiso   1.00
C471   C     0.85921   0.83071   0.15015   0.00000  Uiso   1.00
C472   C     0.93650   0.81749   0.01098   0.00000  Uiso   1.00
C473   C     0.87397   0.82485   0.09337   0.00000  Uiso   1.00
C474   C     0.74703   0.84233   0.43492   0.00000  Uiso   1.00
C475   C     0.73516   0.84932   0.48817   0.00000  Uiso   1.00
C476   C     0.76938   0.84209   0.01418   0.00000  Uiso   1.00
C477   C     0.82825   0.81828   0.43339   0.00000  Uiso   1.00
C478   C     0.85129   0.81892   0.01367   0.00000  Uiso   1.00
C479   C     0.90064   0.81356   0.48507   0.00000  Uiso   1.00
C480   C     0.91203   0.80264   0.43210   0.00000  Uiso   1.00
C481   C     0.87516   0.80180   0.40796   0.00000  Uiso   1.00
C482   C     0.83894   0.81622   0.06742   0.00000  Uiso   1.00
C483   C     0.92309   0.82599   0.06442   0.00000  Uiso   1.00
Cu484  Cu    0.78645   0.83333   0.25000   0.00000  Uiso   1.00
Cu485  Cu    0.88022   0.83334   0.25000   0.00000  Uiso   1.00
H486   H     0.95124   0.83107   0.08331   0.00000  Uiso   1.00
H487   H     0.72498   0.78319   0.19643   0.00000  Uiso   1.00
H488   H     0.72018   0.85001   0.41564   0.00000  Uiso   1.00
H489   H     0.75973   0.85105   0.05494   0.00000  Uiso   1.00
H490   H     0.69987   0.86213   0.00921   0.00000  Uiso   1.00
H491   H     0.88450   0.78852   0.36905   0.00000  Uiso   1.00
H492   H     0.91010   0.70440   0.24300   0.00000  Uiso   1.00
H493   H     0.76178   0.70497   0.23850   0.00000  Uiso   1.00
H494   H     0.97466   0.81494   0.49020   0.00000  Uiso   1.00
N495   N     0.71598   0.83332   0.24999   0.00000  Uiso   1.00
N496   N     0.95069   0.83335   0.24999   0.00000  Uiso   1.00
O497   O     0.79375   0.89345   0.25001   0.00000  Uiso   1.00
O498   O     0.87294   0.89346   0.25000   0.00000  Uiso   1.00
O499   O     0.77441   0.83332   0.32549   0.00000  Uiso   1.00
O500   O     0.85360   0.83333   0.32549   0.00000  Uiso   1.00
O501   O     0.79373   0.77321   0.24999   0.00000  Uiso   1.00
O502   O     0.87292   0.77322   0.24999   0.00000  Uiso   1.00
O503   O     0.81306   0.83334   0.17451   0.00000  Uiso   1.00
O504   O     0.89225   0.83335   0.17451   0.00000  Uiso   1.00
Br505  Br    0.07353   0.28876   0.71827   0.00000  Uiso   1.00
Br506  Br    0.25457   0.22890   0.83317   0.00000  Uiso   1.00
Br507  Br    0.03415   0.22982   0.83145   0.00000  Uiso   1.00
Br508  Br    0.30219   0.10203   0.66948   0.00000  Uiso   1.00
Br509  Br    0.30970   0.11932   0.89137   0.00000  Uiso   1.00
Br510  Br    0.11784   0.11529   0.59829   0.00000  Uiso   1.00
Br511  Br    0.27675   0.28851   0.72187   0.00000  Uiso   1.00
C512   C     0.16781   0.24575   0.74567   0.00000  Uiso   1.00
C513   C     0.12722   0.16199   0.90656   0.00000  Uiso   1.00
C514   C     0.21253   0.31237   0.73774   0.00000  Uiso   1.00
C515   C     0.14111   0.16421   0.84967   0.00000  Uiso   1.00
C516   C     0.21072   0.02149   0.74267   0.00000  Uiso   1.00
C517   C     0.16793   0.04291   0.74547   0.00000  Uiso   1.00
C518   C     0.12734   0.02178   0.74032   0.00000  Uiso   1.00
C519   C     0.12812   0.31261   0.73589   0.00000  Uiso   1.00
C520   C     0.16958   0.29040   0.73932   0.00000  Uiso   1.00
C521   C     0.29947   0.19265   0.78338   0.00000  Uiso   1.00
C522   C     0.01573   0.19292   0.78295   0.00000  Uiso   1.00
C523   C     0.14905   0.15874   0.98770   0.00000  Uiso   1.00
C524   C     0.03336   0.13942   0.71932   0.00000  Uiso   1.00
C525   C     0.31791   0.14001   0.71795   0.00000  Uiso   1.00
C526   C     0.16694   0.08746   0.74911   0.00000  Uiso   1.00
C527   C     0.19255   0.16404   0.65015   0.00000  Uiso   1.00
C528   C     0.26983   0.15082   0.51098   0.00000  Uiso   1.00
C529   C     0.20730   0.15818   0.59337   0.00000  Uiso   1.00
C530   C     0.08037   0.17567   0.93492   0.00000  Uiso   1.00
C531   C     0.06850   0.18265   0.98817   0.00000  Uiso   1.00
C532   C     0.10272   0.17542   0.51418   0.00000  Uiso   1.00
C533   C     0.16159   0.15162   0.93339   0.00000  Uiso   1.00
C534   C     0.18462   0.15226   0.51367   0.00000  Uiso   1.00
C535   C     0.23397   0.14689   0.98507   0.00000  Uiso   1.00
C536   C     0.24536   0.13597   0.93210   0.00000  Uiso   1.00
C537   C     0.20849   0.13513   0.90796   0.00000  Uiso   1.00
C538   C     0.17227   0.14955   0.56742   0.00000  Uiso   1.00
C539   C     0.25643   0.15932   0.56442   0.00000  Uiso   1.00
Cu540  Cu    0.11978   0.16666   0.75000   0.00000  Uiso   1.00
Cu541  Cu    0.21355   0.16667   0.75000   0.00000  Uiso   1.00
H542   H     0.28457   0.16440   0.58331   0.00000  Uiso   1.00
H543   H     0.05831   0.11652   0.69643   0.00000  Uiso   1.00
H544   H     0.05351   0.18334   0.91564   0.00000  Uiso   1.00
H545   H     0.09306   0.18438   0.55494   0.00000  Uiso   1.00
H546   H     0.03321   0.19546   0.50921   0.00000  Uiso   1.00
H547   H     0.21783   0.12185   0.86905   0.00000  Uiso   1.00
H548   H     0.24343   0.03774   0.74300   0.00000  Uiso   1.00
H549   H     0.09512   0.03831   0.73850   0.00000  Uiso   1.00
H550   H     0.30799   0.14827   0.99020   0.00000  Uiso   1.00
N551   N     0.04931   0.16666   0.74999   0.00000  Uiso   1.00
N552   N     0.28402   0.16669   0.74999   0.00000  Uiso   1.00
O553   O     0.12708   0.22678   0.75001   0.00000  Uiso   1.00
O554   O     0.20627   0.22679   0.75000   0.00000  Uiso   1.00
O555   O     0.10775   0.16665   0.82549   0.00000  Uiso   1.00
O556   O     0.18694   0.16666   0.82549   0.00000  Uiso   1.00
O557   O     0.12706   0.10654   0.74999   0.00000  Uiso   1.00
O558   O     0.20625   0.10655   0.74999   0.00000  Uiso   1.00
O559   O     0.14640   0.16667   0.67451   0.00000  Uiso   1.00
O560   O     0.22559   0.16668   0.67451   0.00000  Uiso   1.00
Br561  Br    0.40687   0.28876   0.71827   0.00000  Uiso   1.00
Br562  Br    0.58790   0.22890   0.83317   0.00000  Uiso   1.00
Br563  Br    0.36748   0.22982   0.83145   0.00000  Uiso   1.00
Br564  Br    0.63552   0.10203   0.66948   0.00000  Uiso   1.00
Br565  Br    0.64303   0.11932   0.89137   0.00000  Uiso   1.00
Br566  Br    0.45117   0.11529   0.59829   0.00000  Uiso   1.00
Br567  Br    0.61009   0.28851   0.72187   0.00000  Uiso   1.00
C568   C     0.50114   0.24575   0.74567   0.00000  Uiso   1.00
C569   C     0.46055   0.16199   0.90656   0.00000  Uiso   1.00
C570   C     0.54586   0.31237   0.73774   0.00000  Uiso   1.00
C571   C     0.47444   0.16421   0.84967   0.00000  Uiso   1.00
C572   C     0.54405   0.02149   0.74267   0.00000  Uiso   1.00
C573   C     0.50126   0.04291   0.74547   0.00000  Uiso   1.00
C574   C     0.46068   0.02178   0.74032   0.00000  Uiso   1.00
C575   C     0.46145   0.31261   0.73589   0.00000  Uiso   1.00
C576   C     0.50292   0.29040   0.73932   0.00000  Uiso   1.00
C577   C     0.63280   0.19265   0.78338   0.00000  Uiso   1.00
C578   C     0.34906   0.19292   0.78295   0.00000  Uiso   1.00
C579   C     0.48239   0.15874   0.98770   0.00000  Uiso   1.00
C580   C     0.36669   0.13942   0.71932   0.00000  Uiso   1.00
C581   C     0.65124   0.14001   0.71795   0.00000  Uiso   1.00
C582   C     0.50027   0.08746   0.74911   0.00000  Uiso   1.00
C583   C     0.52588   0.16404   0.65015   0.00000  Uiso   1.00
C584   C     0.60316   0.15082   0.51098   0.00000  Uiso   1.00
C585   C     0.54063   0.15818   0.59337   0.00000  Uiso   1.00
C586   C     0.41370   0.17567   0.93492   0.00000  Uiso   1.00
C587   C     0.40183   0.18265   0.98817   0.00000  Uiso   1.00
C588   C     0.43605   0.17542   0.51418   0.00000  Uiso   1.00
C589   C     0.49492   0.15162   0.93339   0.00000  Uiso   1.00
C590   C     0.51795   0.15226   0.51367   0.00000  Uiso   1.00
C591   C     0.56731   0.14689   0.98507   0.00000  Uiso   1.00
C592   C     0.57870   0.13597   0.93210   0.00000  Uiso   1.00
C593   C     0.54182   0.13513   0.90796   0.00000  Uiso   1.00
C594   C     0.50560   0.14955   0.56742   0.00000  Uiso   1.00
C595   C     0.58976   0.15932   0.56442   0.00000  Uiso   1.00
Cu596  Cu    0.45311   0.16666   0.75000   0.00000  Uiso   1.00
Cu597  Cu    0.54689   0.16667   0.75000   0.00000  Uiso   1.00
H598   H     0.61791   0.16440   0.58331   0.00000  Uiso   1.00
H599   H     0.39165   0.11652   0.69643   0.00000  Uiso   1.00
H600   H     0.38685   0.18334   0.91564   0.00000  Uiso   1.00
H601   H     0.42640   0.18438   0.55494   0.00000  Uiso   1.00
H602   H     0.36654   0.19546   0.50921   0.00000  Uiso   1.00
H603   H     0.55116   0.12185   0.86905   0.00000  Uiso   1.00
H604   H     0.57677   0.03774   0.74300   0.00000  Uiso   1.00
H605   H     0.42845   0.03831   0.73850   0.00000  Uiso   1.00
H606   H     0.64133   0.14827   0.99020   0.00000  Uiso   1.00
N607   N     0.38265   0.16666   0.74999   0.00000  Uiso   1.00
N608   N     0.61735   0.16669   0.74999   0.00000  Uiso   1.00
O609   O     0.46042   0.22678   0.75001   0.00000  Uiso   1.00
O610   O     0.53961   0.22679   0.75000   0.00000  Uiso   1.00
O611   O     0.44108   0.16665   0.82549   0.00000  Uiso   1.00
O612   O     0.52027   0.16666   0.82549   0.00000  Uiso   1.00
O613   O     0.46039   0.10654   0.74999   0.00000  Uiso   1.00
O614   O     0.53958   0.10655   0.74999   0.00000  Uiso   1.00
O615   O     0.47973   0.16667   0.67451   0.00000  Uiso   1.00
O616   O     0.55892   0.16668   0.67451   0.00000  Uiso   1.00
Br617  Br    0.74020   0.28876   0.71827   0.00000  Uiso   1.00
Br618  Br    0.92123   0.22890   0.83317   0.00000  Uiso   1.00
Br619  Br    0.70081   0.22982   0.83145   0.00000  Uiso   1.00
Br620  Br    0.96885   0.10203   0.66948   0.00000  Uiso   1.00
Br621  Br    0.97637   0.11932   0.89137   0.00000  Uiso   1.00
Br622  Br    0.78450   0.11529   0.59829   0.00000  Uiso   1.00
Br623  Br    0.94342   0.28851   0.72187   0.00000  Uiso   1.00
C624   C     0.83448   0.24575   0.74567   0.00000  Uiso   1.00
C625   C     0.79388   0.16199   0.90656   0.00000  Uiso   1.00
C626   C     0.87920   0.31237   0.73774   0.00000  Uiso   1.00
C627   C     0.80778   0.16421   0.84967   0.00000  Uiso   1.00
C628   C     0.87738   0.02149   0.74267   0.00000  Uiso   1.00
C629   C     0.83460   0.04291   0.74547   0.00000  Uiso   1.00
C630   C     0.79401   0.02178   0.74032   0.00000  Uiso   1.00
C631   C     0.79479   0.31261   0.73589   0.00000  Uiso   1.00
C632   C     0.83625   0.29040   0.73932   0.00000  Uiso   1.00
C633   C     0.96613   0.19265   0.78338   0.00000  Uiso   1.00
C634   C     0.68239   0.19292   0.78295   0.00000  Uiso   1.00
C635   C     0.81572   0.15874   0.98770   0.00000  Uiso   1.00
C636   C     0.70003   0.13942   0.71932   0.00000  Uiso   1.00
C637   C     0.98457   0.14001   0.71795   0.00000  Uiso   1.00
C638   C     0.83361   0.08746   0.74911   0.00000  Uiso   1.00
C639   C     0.85921   0.16404   0.65015   0.00000  Uiso   1.00
C640   C     0.93650   0.15082   0.51098   0.00000  Uiso   1.00
C641   C     0.87397   0.15818   0.59337   0.00000  Uiso   1.00
C642   C     0.74703   0.17567   0.93492   0.00000  Uiso   1.00
C643   C     0.73516   0.18265   0.98817   0.00000  Uiso   1.00
C644   C     0.76938   0.17542   0.51418   0.00000  Uiso   1.00
C645   C     0.82825   0.15162   0.93339   0.00000  Uiso   1.00
C646   C     0.85129   0.15226   0.51367   0.00000  Uiso   1.00
C647   C     0.90064   0.14689   0.98507   0.00000  Uiso   1.00
C648   C     0.91203   0.13597   0.93210   0.00000  Uiso   1.00
C649   C     0.87516   0.13513   0.90796   0.00000  Uiso   1.00
C650   C     0.83894   0.14955   0.56742   0.00000  Uiso   1.00
C651   C     0.92309   0.15932   0.56442   0.00000  Uiso   1.00
Cu652  Cu    0.78645   0.16666   0.75000   0.00000  Uiso   1.00
Cu653  Cu    0.88022   0.16667   0.75000   0.00000  Uiso   1.00
H654   H     0.95124   0.16440   0.58331   0.00000  Uiso   1.00
H655   H     0.72498   0.11652   0.69643   0.00000  Uiso   1.00
H656   H     0.72018   0.18334   0.91564   0.00000  Uiso   1.00
H657   H     0.75973   0.18438   0.55494   0.00000  Uiso   1.00
H658   H     0.69987   0.19546   0.50921   0.00000  Uiso   1.00
H659   H     0.88450   0.12185   0.86905   0.00000  Uiso   1.00
H660   H     0.91010   0.03774   0.74300   0.00000  Uiso   1.00
H661   H     0.76178   0.03831   0.73850   0.00000  Uiso   1.00
H662   H     0.97466   0.14827   0.99020   0.00000  Uiso   1.00
N663   N     0.71598   0.16666   0.74999   0.00000  Uiso   1.00
N664   N     0.95069   0.16669   0.74999   0.00000  Uiso   1.00
O665   O     0.79375   0.22678   0.75001   0.00000  Uiso   1.00
O666   O     0.87294   0.22679   0.75000   0.00000  Uiso   1.00
O667   O     0.77441   0.16665   0.82549   0.00000  Uiso   1.00
O668   O     0.85360   0.16666   0.82549   0.00000  Uiso   1.00
O669   O     0.79373   0.10654   0.74999   0.00000  Uiso   1.00
O670   O     0.87292   0.10655   0.74999   0.00000  Uiso   1.00
O671   O     0.81306   0.16667   0.67451   0.00000  Uiso   1.00
O672   O     0.89225   0.16668   0.67451   0.00000  Uiso   1.00
Br673  Br    0.07353   0.62209   0.71827   0.00000  Uiso   1.00
Br674  Br    0.25457   0.56223   0.83317   0.00000  Uiso   1.00
Br675  Br    0.03415   0.56316   0.83145   0.00000  Uiso   1.00
Br676  Br    0.30219   0.43536   0.66948   0.00000  Uiso   1.00
Br677  Br    0.30970   0.45265   0.89137   0.00000  Uiso   1.00
Br678  Br    0.11784   0.44862   0.59829   0.00000  Uiso   1.00
Br679  Br    0.27675   0.62184   0.72187   0.00000  Uiso   1.00
C680   C     0.16781   0.57908   0.74567   0.00000  Uiso   1.00
C681   C     0.12722   0.49533   0.90656   0.00000  Uiso   1.00
C682   C     0.21253   0.64570   0.73774   0.00000  Uiso   1.00
C683   C     0.14111   0.49754   0.84967   0.00000  Uiso   1.00
C684   C     0.21072   0.35482   0.74267   0.00000  Uiso   1.00
C685   C     0.16793   0.37624   0.74547   0.00000  Uiso   1.00
C686   C     0.12734   0.35511   0.74032   0.00000  Uiso   1.00
C687   C     0.12812   0.64594   0.73589   0.00000  Uiso   1.00
C688   C     0.16958   0.62374   0.73932   0.00000  Uiso   1.00
C689   C     0.29947   0.52598   0.78338   0.00000  Uiso   1.00
C690   C     0.01573   0.52626   0.78295   0.00000  Uiso   1.00
C691   C     0.14905   0.49208   0.98770   0.00000  Uiso   1.00
C692   C     0.03336   0.47276   0.71932   0.00000  Uiso   1.00
C693   C     0.31791   0.47335   0.71795   0.00000  Uiso   1.00
C694   C     0.16694   0.42080   0.74911   0.00000  Uiso   1.00
C695   C     0.19255   0.49737   0.65015   0.00000  Uiso   1.00
C696   C     0.26983   0.48415   0.51098   0.00000  Uiso   1.00
C697   C     0.20730   0.49151   0.59337   0.00000  Uiso   1.00
C698   C     0.08037   0.50900   0.93492   0.00000  Uiso   1.00
C699   C     0.06850   0.51599   0.98817   0.00000  Uiso   1.00
C700   C     0.10272   0.50876   0.51418   0.00000  Uiso   1.00
C701   C     0.16159   0.48495   0.93339   0.00000  Uiso   1.00
C702   C     0.18462   0.48559   0.51367   0.00000  Uiso   1.00
C703   C     0.23397   0.48023   0.98507   0.00000  Uiso   1.00
C704   C     0.24536   0.46931   0.93210   0.00000  Uiso   1.00
C705   C     0.20849   0.46847   0.90796   0.00000  Uiso   1.00
C706   C     0.17227   0.48288   0.56742   0.00000  Uiso   1.00
C707   C     0.25643   0.49265   0.56442   0.00000  Uiso   1.00
Cu708  Cu    0.11978   0.49999   0.75000   0.00000  Uiso   1.00
Cu709  Cu    0.21355   0.50001   0.75000   0.00000  Uiso   1.00
H710   H     0.28457   0.49773   0.58331   0.00000  Uiso   1.00
H711   H     0.05831   0.44986   0.69643   0.00000  Uiso   1.00
H712   H     0.05351   0.51668   0.91564   0.00000  Uiso   1.00
H713   H     0.09306   0.51771   0.55494   0.00000  Uiso   1.00
H714   H     0.03321   0.52879   0.50921   0.00000  Uiso   1.00
H715   H     0.21783   0.45518   0.86905   0.00000  Uiso   1.00
H716   H     0.24343   0.37107   0.74300   0.00000  Uiso   1.00
H717   H     0.09512   0.37164   0.73850   0.00000  Uiso   1.00
H718   H     0.30799   0.48160   0.99020   0.00000  Uiso   1.00
N719   N     0.04931   0.49999   0.74999   0.00000  Uiso   1.00
N720   N     0.28402   0.50002   0.74999   0.00000  Uiso   1.00
O721   O     0.12708   0.56011   0.75001   0.00000  Uiso   1.00
O722   O     0.20627   0.56012   0.75000   0.00000  Uiso   1.00
O723   O     0.10775   0.49998   0.82549   0.00000  Uiso   1.00
O724   O     0.18694   0.49999   0.82549   0.00000  Uiso   1.00
O725   O     0.12706   0.43988   0.74999   0.00000  Uiso   1.00
O726   O     0.20625   0.43989   0.74999   0.00000  Uiso   1.00
O727   O     0.14640   0.50001   0.67451   0.00000  Uiso   1.00
O728   O     0.22559   0.50002   0.67451   0.00000  Uiso   1.00
Br729  Br    0.40687   0.62209   0.71827   0.00000  Uiso   1.00
Br730  Br    0.58790   0.56223   0.83317   0.00000  Uiso   1.00
Br731  Br    0.36748   0.56316   0.83145   0.00000  Uiso   1.00
Br732  Br    0.63552   0.43536   0.66948   0.00000  Uiso   1.00
Br733  Br    0.64303   0.45265   0.89137   0.00000  Uiso   1.00
Br734  Br    0.45117   0.44862   0.59829   0.00000  Uiso   1.00
Br735  Br    0.61009   0.62184   0.72187   0.00000  Uiso   1.00
C736   C     0.50114   0.57908   0.74567   0.00000  Uiso   1.00
C737   C     0.46055   0.49533   0.90656   0.00000  Uiso   1.00
C738   C     0.54586   0.64570   0.73774   0.00000  Uiso   1.00
C739   C     0.47444   0.49754   0.84967   0.00000  Uiso   1.00
C740   C     0.54405   0.35482   0.74267   0.00000  Uiso   1.00
C741   C     0.50126   0.37624   0.74547   0.00000  Uiso   1.00
C742   C     0.46068   0.35511   0.74032   0.00000  Uiso   1.00
C743   C     0.46145   0.64594   0.73589   0.00000  Uiso   1.00
C744   C     0.50292   0.62374   0.73932   0.00000  Uiso   1.00
C745   C     0.63280   0.52598   0.78338   0.00000  Uiso   1.00
C746   C     0.34906   0.52626   0.78295   0.00000  Uiso   1.00
C747   C     0.48239   0.49208   0.98770   0.00000  Uiso   1.00
C748   C     0.36669   0.47276   0.71932   0.00000  Uiso   1.00
C749   C     0.65124   0.47335   0.71795   0.00000  Uiso   1.00
C750   C     0.50027   0.42080   0.74911   0.00000  Uiso   1.00
C751   C     0.52588   0.49737   0.65015   0.00000  Uiso   1.00
C752   C     0.60316   0.48415   0.51098   0.00000  Uiso   1.00
C753   C     0.54063   0.49151   0.59337   0.00000  Uiso   1.00
C754   C     0.41370   0.50900   0.93492   0.00000  Uiso   1.00
C755   C     0.40183   0.51599   0.98817   0.00000  Uiso   1.00
C756   C     0.43605   0.50876   0.51418   0.00000  Uiso   1.00
C757   C     0.49492   0.48495   0.93339   0.00000  Uiso   1.00
C758   C     0.51795   0.48559   0.51367   0.00000  Uiso   1.00
C759   C     0.56731   0.48023   0.98507   0.00000  Uiso   1.00
C760   C     0.57870   0.46931   0.93210   0.00000  Uiso   1.00
C761   C     0.54182   0.46847   0.90796   0.00000  Uiso   1.00
C762   C     0.50560   0.48288   0.56742   0.00000  Uiso   1.00
C763   C     0.58976   0.49265   0.56442   0.00000  Uiso   1.00
Cu764  Cu    0.45311   0.49999   0.75000   0.00000  Uiso   1.00
Cu765  Cu    0.54689   0.50001   0.75000   0.00000  Uiso   1.00
H766   H     0.61791   0.49773   0.58331   0.00000  Uiso   1.00
H767   H     0.39165   0.44986   0.69643   0.00000  Uiso   1.00
H768   H     0.38685   0.51668   0.91564   0.00000  Uiso   1.00
H769   H     0.42640   0.51771   0.55494   0.00000  Uiso   1.00
H770   H     0.36654   0.52879   0.50921   0.00000  Uiso   1.00
H771   H     0.55116   0.45518   0.86905   0.00000  Uiso   1.00
H772   H     0.57677   0.37107   0.74300   0.00000  Uiso   1.00
H773   H     0.42845   0.37164   0.73850   0.00000  Uiso   1.00
H774   H     0.64133   0.48160   0.99020   0.00000  Uiso   1.00
N775   N     0.38265   0.49999   0.74999   0.00000  Uiso   1.00
N776   N     0.61735   0.50002   0.74999   0.00000  Uiso   1.00
O777   O     0.46042   0.56011   0.75001   0.00000  Uiso   1.00
O778   O     0.53961   0.56012   0.75000   0.00000  Uiso   1.00
O779   O     0.44108   0.49998   0.82549   0.00000  Uiso   1.00
O780   O     0.52027   0.49999   0.82549   0.00000  Uiso   1.00
O781   O     0.46039   0.43988   0.74999   0.00000  Uiso   1.00
O782   O     0.53958   0.43989   0.74999   0.00000  Uiso   1.00
O783   O     0.47973   0.50001   0.67451   0.00000  Uiso   1.00
O784   O     0.55892   0.50002   0.67451   0.00000  Uiso   1.00
Br785  Br    0.74020   0.62209   0.71827   0.00000  Uiso   1.00
Br786  Br    0.92123   0.56223   0.83317   0.00000  Uiso   1.00
Br787  Br    0.70081   0.56316   0.83145   0.00000  Uiso   1.00
Br788  Br    0.96885   0.43536   0.66948   0.00000  Uiso   1.00
Br789  Br    0.97637   0.45265   0.89137   0.00000  Uiso   1.00
Br790  Br    0.78450   0.44862   0.59829   0.00000  Uiso   1.00
Br791  Br    0.94342   0.62184   0.72187   0.00000  Uiso   1.00
C792   C     0.83448   0.57908   0.74567   0.00000  Uiso   1.00
C793   C     0.79388   0.49533   0.90656   0.00000  Uiso   1.00
C794   C     0.87920   0.64570   0.73774   0.00000  Uiso   1.00
C795   C     0.80778   0.49754   0.84967   0.00000  Uiso   1.00
C796   C     0.87738   0.35482   0.74267   0.00000  Uiso   1.00
C797   C     0.83460   0.37624   0.74547   0.00000  Uiso   1.00
C798   C     0.79401   0.35511   0.74032   0.00000  Uiso   1.00
C799   C     0.79479   0.64594   0.73589   0.00000  Uiso   1.00
C800   C     0.83625   0.62374   0.73932   0.00000  Uiso   1.00
C801   C     0.96613   0.52598   0.78338   0.00000  Uiso   1.00
C802   C     0.68239   0.52626   0.78295   0.00000  Uiso   1.00
C803   C     0.81572   0.49208   0.98770   0.00000  Uiso   1.00
C804   C     0.70003   0.47276   0.71932   0.00000  Uiso   1.00
C805   C     0.98457   0.47335   0.71795   0.00000  Uiso   1.00
C806   C     0.83361   0.42080   0.74911   0.00000  Uiso   1.00
C807   C     0.85921   0.49737   0.65015   0.00000  Uiso   1.00
C808   C     0.93650   0.48415   0.51098   0.00000  Uiso   1.00
C809   C     0.87397   0.49151   0.59337   0.00000  Uiso   1.00
C810   C     0.74703   0.50900   0.93492   0.00000  Uiso   1.00
C811   C     0.73516   0.51599   0.98817   0.00000  Uiso   1.00
C812   C     0.76938   0.50876   0.51418   0.00000  Uiso   1.00
C813   C     0.82825   0.48495   0.93339   0.00000  Uiso   1.00
C814   C     0.85129   0.48559   0.51367   0.00000  Uiso   1.00
C815   C     0.90064   0.48023   0.98507   0.00000  Uiso   1.00
C816   C     0.91203   0.46931   0.93210   0.00000  Uiso   1.00
C817   C     0.87516   0.46847   0.90796   0.00000  Uiso   1.00
C818   C     0.83894   0.48288   0.56742   0.00000  Uiso   1.00
C819   C     0.92309   0.49265   0.56442   0.00000  Uiso   1.00
Cu820  Cu    0.78645   0.49999   0.75000   0.00000  Uiso   1.00
Cu821  Cu    0.88022   0.50001   0.75000   0.00000  Uiso   1.00
H822   H     0.95124   0.49773   0.58331   0.00000  Uiso   1.00
H823   H     0.72498   0.44986   0.69643   0.00000  Uiso   1.00
H824   H     0.72018   0.51668   0.91564   0.00000  Uiso   1.00
H825   H     0.75973   0.51771   0.55494   0.00000  Uiso   1.00
H826   H     0.69987   0.52879   0.50921   0.00000  Uiso   1.00
H827   H     0.88450   0.45518   0.86905   0.00000  Uiso   1.00
H828   H     0.91010   0.37107   0.74300   0.00000  Uiso   1.00
H829   H     0.76178   0.37164   0.73850   0.00000  Uiso   1.00
H830   H     0.97466   0.48160   0.99020   0.00000  Uiso   1.00
N831   N     0.71598   0.49999   0.74999   0.00000  Uiso   1.00
N832   N     0.95069   0.50002   0.74999   0.00000  Uiso   1.00
O833   O     0.79375   0.56011   0.75001   0.00000  Uiso   1.00
O834   O     0.87294   0.56012   0.75000   0.00000  Uiso   1.00
O835   O     0.77441   0.49998   0.82549   0.00000  Uiso   1.00
O836   O     0.85360   0.49999   0.82549   0.00000  Uiso   1.00
O837   O     0.79373   0.43988   0.74999   0.00000  Uiso   1.00
O838   O     0.87292   0.43989   0.74999   0.00000  Uiso   1.00
O839   O     0.81306   0.50001   0.67451   0.00000  Uiso   1.00
O840   O     0.89225   0.50002   0.67451   0.00000  Uiso   1.00
Br841  Br    0.07353   0.95543   0.71827   0.00000  Uiso   1.00
Br842  Br    0.25457   0.89557   0.83317   0.00000  Uiso   1.00
Br843  Br    0.03415   0.89649   0.83145   0.00000  Uiso   1.00
Br844  Br    0.30219   0.76869   0.66948   0.00000  Uiso   1.00
Br845  Br    0.30970   0.78599   0.89137   0.00000  Uiso   1.00
Br846  Br    0.11784   0.78195   0.59829   0.00000  Uiso   1.00
Br847  Br    0.27675   0.95518   0.72187   0.00000  Uiso   1.00
C848   C     0.16781   0.91242   0.74567   0.00000  Uiso   1.00
C849   C     0.12722   0.82866   0.90656   0.00000  Uiso   1.00
C850   C     0.21253   0.97904   0.73774   0.00000  Uiso   1.00
C851   C     0.14111   0.83087   0.84967   0.00000  Uiso   1.00
C852   C     0.21072   0.68815   0.74267   0.00000  Uiso   1.00
C853   C     0.16793   0.70958   0.74547   0.00000  Uiso   1.00
C854   C     0.12734   0.68845   0.74032   0.00000  Uiso   1.00
C855   C     0.12812   0.97927   0.73589   0.00000  Uiso   1.00
C856   C     0.16958   0.95707   0.73932   0.00000  Uiso   1.00
C857   C     0.29947   0.85932   0.78338   0.00000  Uiso   1.00
C858   C     0.01573   0.85959   0.78295   0.00000  Uiso   1.00
C859   C     0.14905   0.82541   0.98770   0.00000  Uiso   1.00
C860   C     0.03336   0.80609   0.71932   0.00000  Uiso   1.00
C861   C     0.31791   0.80668   0.71795   0.00000  Uiso   1.00
C862   C     0.16694   0.75413   0.74911   0.00000  Uiso   1.00
C863   C     0.19255   0.83071   0.65015   0.00000  Uiso   1.00
C864   C     0.26983   0.81749   0.51098   0.00000  Uiso   1.00
C865   C     0.20730   0.82485   0.59337   0.00000  Uiso   1.00
C866   C     0.08037   0.84233   0.93492   0.00000  Uiso   1.00
C867   C     0.06850   0.84932   0.98817   0.00000  Uiso   1.00
C868   C     0.10272   0.84209   0.51418   0.00000  Uiso   1.00
C869   C     0.16159   0.81828   0.93339   0.00000  Uiso   1.00
C870   C     0.18462   0.81892   0.51367   0.00000  Uiso   1.00
C871   C     0.23397   0.81356   0.98507   0.00000  Uiso   1.00
C872   C     0.24536   0.80264   0.93210   0.00000  Uiso   1.00
C873   C     0.20849   0.80180   0.90796   0.00000  Uiso   1.00
C874   C     0.17227   0.81622   0.56742   0.00000  Uiso   1.00
C875   C     0.25643   0.82599   0.56442   0.00000  Uiso   1.00
Cu876  Cu    0.11978   0.83333   0.75000   0.00000  Uiso   1.00
Cu877  Cu    0.21355   0.83334   0.75000   0.00000  Uiso   1.00
H878   H     0.28457   0.83107   0.58331   0.00000  Uiso   1.00
H879   H     0.05831   0.78319   0.69643   0.00000  Uiso   1.00
H880   H     0.05351   0.85001   0.91564   0.00000  Uiso   1.00
H881   H     0.09306   0.85105   0.55494   0.00000  Uiso   1.00
H882   H     0.03321   0.86213   0.50921   0.00000  Uiso   1.00
H883   H     0.21783   0.78852   0.86905   0.00000  Uiso   1.00
H884   H     0.24343   0.70440   0.74300   0.00000  Uiso   1.00
H885   H     0.09512   0.70497   0.73850   0.00000  Uiso   1.00
H886   H     0.30799   0.81494   0.99020   0.00000  Uiso   1.00
N887   N     0.04931   0.83332   0.74999   0.00000  Uiso   1.00
N888   N     0.28402   0.83335   0.74999   0.00000  Uiso   1.00
O889   O     0.12708   0.89345   0.75001   0.00000  Uiso   1.00
O890   O     0.20627   0.89346   0.75000   0.00000  Uiso   1.00
O891   O     0.10775   0.83332   0.82549   0.00000  Uiso   1.00
O892   O     0.18694   0.83333   0.82549   0.00000  Uiso   1.00
O893   O     0.12706   0.77321   0.74999   0.00000  Uiso   1.00
O894   O     0.20625   0.77322   0.74999   0.00000  Uiso   1.00
O895   O     0.14640   0.83334   0.67451   0.00000  Uiso   1.00
O896   O     0.22559   0.83335   0.67451   0.00000  Uiso   1.00
Br897  Br    0.40687   0.95543   0.71827   0.00000  Uiso   1.00
Br898  Br    0.58790   0.89557   0.83317   0.00000  Uiso   1.00
Br899  Br    0.36748   0.89649   0.83145   0.00000  Uiso   1.00
Br900  Br    0.63552   0.76869   0.66948   0.00000  Uiso   1.00
Br901  Br    0.64303   0.78599   0.89137   0.00000  Uiso   1.00
Br902  Br    0.45117   0.78195   0.59829   0.00000  Uiso   1.00
Br903  Br    0.61009   0.95518   0.72187   0.00000  Uiso   1.00
C904   C     0.50114   0.91242   0.74567   0.00000  Uiso   1.00
C905   C     0.46055   0.82866   0.90656   0.00000  Uiso   1.00
C906   C     0.54586   0.97904   0.73774   0.00000  Uiso   1.00
C907   C     0.47444   0.83087   0.84967   0.00000  Uiso   1.00
C908   C     0.54405   0.68815   0.74267   0.00000  Uiso   1.00
C909   C     0.50126   0.70958   0.74547   0.00000  Uiso   1.00
C910   C     0.46068   0.68845   0.74032   0.00000  Uiso   1.00
C911   C     0.46145   0.97927   0.73589   0.00000  Uiso   1.00
C912   C     0.50292   0.95707   0.73932   0.00000  Uiso   1.00
C913   C     0.63280   0.85932   0.78338   0.00000  Uiso   1.00
C914   C     0.34906   0.85959   0.78295   0.00000  Uiso   1.00
C915   C     0.48239   0.82541   0.98770   0.00000  Uiso   1.00
C916   C     0.36669   0.80609   0.71932   0.00000  Uiso   1.00
C917   C     0.65124   0.80668   0.71795   0.00000  Uiso   1.00
C918   C     0.50027   0.75413   0.74911   0.00000  Uiso   1.00
C919   C     0.52588   0.83071   0.65015   0.00000  Uiso   1.00
C920   C     0.60316   0.81749   0.51098   0.00000  Uiso   1.00
C921   C     0.54063   0.82485   0.59337   0.00000  Uiso   1.00
C922   C     0.41370   0.84233   0.93492   0.00000  Uiso   1.00
C923   C     0.40183   0.84932   0.98817   0.00000  Uiso   1.00
C924   C     0.43605   0.84209   0.51418   0.00000  Uiso   1.00
C925   C     0.49492   0.81828   0.93339   0.00000  Uiso   1.00
C926   C     0.51795   0.81892   0.51367   0.00000  Uiso   1.00
C927   C     0.56731   0.81356   0.98507   0.00000  Uiso   1.00
C928   C     0.57870   0.80264   0.93210   0.00000  Uiso   1.00
C929   C     0.54182   0.80180   0.90796   0.00000  Uiso   1.00
C930   C     0.50560   0.81622   0.56742   0.00000  Uiso   1.00
C931   C     0.58976   0.82599   0.56442   0.00000  Uiso   1.00
Cu932  Cu    0.45311   0.83333   0.75000   0.00000  Uiso   1.00
Cu933  Cu    0.54689   0.83334   0.75000   0.00000  Uiso   1.00
H934   H     0.61791   0.83107   0.58331   0.00000  Uiso   1.00
H935   H     0.39165   0.78319   0.69643   0.00000  Uiso   1.00
H936   H     0.38685   0.85001   0.91564   0.00000  Uiso   1.00
H937   H     0.42640   0.85105   0.55494   0.00000  Uiso   1.00
H938   H     0.36654   0.86213   0.50921   0.00000  Uiso   1.00
H939   H     0.55116   0.78852   0.86905   0.00000  Uiso   1.00
H940   H     0.57677   0.70440   0.74300   0.00000  Uiso   1.00
H941   H     0.42845   0.70497   0.73850   0.00000  Uiso   1.00
H942   H     0.64133   0.81494   0.99020   0.00000  Uiso   1.00
N943   N     0.38265   0.83332   0.74999   0.00000  Uiso   1.00
N944   N     0.61735   0.83335   0.74999   0.00000  Uiso   1.00
O945   O     0.46042   0.89345   0.75001   0.00000  Uiso   1.00
O946   O     0.53961   0.89346   0.75000   0.00000  Uiso   1.00
O947   O     0.44108   0.83332   0.82549   0.00000  Uiso   1.00
O948   O     0.52027   0.83333   0.82549   0.00000  Uiso   1.00
O949   O     0.46039   0.77321   0.74999   0.00000  Uiso   1.00
O950   O     0.53958   0.77322   0.74999   0.00000  Uiso   1.00
O951   O     0.47973   0.83334   0.67451   0.00000  Uiso   1.00
O952   O     0.55892   0.83335   0.67451   0.00000  Uiso   1.00
Br953  Br    0.74020   0.95543   0.71827   0.00000  Uiso   1.00
Br954  Br    0.92123   0.89557   0.83317   0.00000  Uiso   1.00
Br955  Br    0.70081   0.89649   0.83145   0.00000  Uiso   1.00
Br956  Br    0.96885   0.76869   0.66948   0.00000  Uiso   1.00
Br957  Br    0.97637   0.78599   0.89137   0.00000  Uiso   1.00
Br958  Br    0.78450   0.78195   0.59829   0.00000  Uiso   1.00
Br959  Br    0.94342   0.95518   0.72187   0.00000  Uiso   1.00
C960   C     0.83448   0.91242   0.74567   0.00000  Uiso   1.00
C961   C     0.79388   0.82866   0.90656   0.00000  Uiso   1.00
C962   C     0.87920   0.97904   0.73774   0.00000  Uiso   1.00
C963   C     0.80778   0.83087   0.84967   0.00000  Uiso   1.00
C964   C     0.87738   0.68815   0.74267   0.00000  Uiso   1.00
C965   C     0.83460   0.70958   0.74547   0.00000  Uiso   1.00
C966   C     0.79401   0.68845   0.74032   0.00000  Uiso   1.00
C967   C     0.79479   0.97927   0.73589   0.00000  Uiso   1.00
C968   C     0.83625   0.95707   0.73932   0.00000  Uiso   1.00
C969   C     0.96613   0.85932   0.78338   0.00000  Uiso   1.00
C970   C     0.68239   0.85959   0.78295   0.00000  Uiso   1.00
C971   C     0.81572   0.82541   0.98770   0.00000  Uiso   1.00
C972   C     0.70003   0.80609   0.71932   0.00000  Uiso   1.00
C973   C     0.98457   0.80668   0.71795   0.00000  Uiso   1.00
C974   C     0.83361   0.75413   0.74911   0.00000  Uiso   1.00
C975   C     0.85921   0.83071   0.65015   0.00000  Uiso   1.00
C976   C     0.93650   0.81749   0.51098   0.00000  Uiso   1.00
C977   C     0.87397   0.82485   0.59337   0.00000  Uiso   1.00
C978   C     0.74703   0.84233   0.93492   0.00000  Uiso   1.00
C979   C     0.73516   0.84932   0.98817   0.00000  Uiso   1.00
C980   C     0.76938   0.84209   0.51418   0.00000  Uiso   1.00
C981   C     0.82825   0.81828   0.93339   0.00000  Uiso   1.00
C982   C     0.85129   0.81892   0.51367   0.00000  Uiso   1.00
C983   C     0.90064   0.81356   0.98507   0.00000  Uiso   1.00
C984   C     0.91203   0.80264   0.93210   0.00000  Uiso   1.00
C985   C     0.87516   0.80180   0.90796   0.00000  Uiso   1.00
C986   C     0.83894   0.81622   0.56742   0.00000  Uiso   1.00
C987   C     0.92309   0.82599   0.56442   0.00000  Uiso   1.00
Cu988  Cu    0.78645   0.83333   0.75000   0.00000  Uiso   1.00
Cu989  Cu    0.88022   0.83334   0.75000   0.00000  Uiso   1.00
H990   H     0.95124   0.83107   0.58331   0.00000  Uiso   1.00
H991   H     0.72498   0.78319   0.69643   0.00000  Uiso   1.00
H992   H     0.72018   0.85001   0.91564   0.00000  Uiso   1.00
H993   H     0.75973   0.85105   0.55494   0.00000  Uiso   1.00
H994   H     0.69987   0.86213   0.50921   0.00000  Uiso   1.00
H995   H     0.88450   0.78852   0.86905   0.00000  Uiso   1.00
H996   H     0.91010   0.70440   0.74300   0.00000  Uiso   1.00
H997   H     0.76178   0.70497   0.73850   0.00000  Uiso   1.00
H998   H     0.97466   0.81494   0.99020   0.00000  Uiso   1.00
N999   N     0.71598   0.83332   0.74999   0.00000  Uiso   1.00
N1000  N     0.95069   0.83335   0.74999   0.00000  Uiso   1.00
O1001  O     0.79375   0.89345   0.75001   0.00000  Uiso   1.00
O1002  O     0.87294   0.89346   0.75000   0.00000  Uiso   1.00
O1003  O     0.77441   0.83332   0.82549   0.00000  Uiso   1.00
O1004  O     0.85360   0.83333   0.82549   0.00000  Uiso   1.00
O1005  O     0.79373   0.77321   0.74999   0.00000  Uiso   1.00
O1006  O     0.87292   0.77322   0.74999   0.00000  Uiso   1.00
O1007  O     0.81306   0.83334   0.67451   0.00000  Uiso   1.00
O1008  O     0.89225   0.83335   0.67451   0.00000  Uiso   1.00
loop_
_geom_bond_atom_site_label_1
_geom_bond_atom_site_label_2
_geom_bond_distance
_geom_bond_site_symmetry_2
_ccdc_geom_bond_type
Br1    C15     1.924   .     S
Br2    C17     1.931   .     S
Br3    C18     1.928   .     S
Br4    C21     1.913   .     S
Br5    C32     1.922   .     S
Br6    C34     1.930   .     S
Br7    C10     1.924   .     S
C8     O50     1.301   .     A
C8     C16     1.471   .     S
C8     O49     1.303   .     A
C9     C26     1.404   .     A
C9     C29     1.429   .     A
C9     C11     1.476   .     S
C10    C16     1.420   .     A
C10    C180    1.383   .     S
C11    O51     1.309   .     A
C11    O52     1.295   .     A
C12    H44     1.083   .     S
C12    C13     1.393   .     A
C12    C346    1.383   1_545 S
C13    C14     1.395   .     A
C13    C22     1.450   .     S
C14    H45     1.084   .     S
C14    C351    1.385   1_545 S
C15    C16     1.419   .     A
C15    C182    1.385   .     S
C17    N48     1.377   .     A
C17    C74     1.422   .     S
C18    N47     1.376   .     A
C18    C129    1.422   1_455 S
C19    C29     1.414   .     A
C19    C532    1.412   .     S
C19    C534    1.415   .     S
C20    N47     1.358   .     A
C20    H39     1.075   .     S
C20    C133    1.413   1_455 S
C21    N48     1.378   .     A
C21    C76     1.413   .     S
C22    O54     1.298   .     A
C22    O53     1.295   .     A
C23    O55     1.301   .     A
C23    O56     1.302   .     A
C23    C25     1.472   .     S
C24    C35     1.397   .     A
C24    C535    1.406   1_554 S
C24    H550    1.080   1_554 S
C25    C34     1.405   .     A
C25    C35     1.405   .     A
C26    H40     1.081   .     S
C26    C27     1.387   .     A
C27    C532    1.387   .     S
C27    H546    1.082   .     S
C28    H41     1.082   .     S
C28    C531    1.387   1_554 S
C28    C523    1.412   1_554 S
C29    C33     1.417   .     A
C30    C34     1.397   .     A
C30    C523    1.415   1_554 S
C30    C535    1.413   1_554 S
C31    C32     1.402   .     A
C31    C528    1.406   .     S
C31    C534    1.413   .     S
C32    C33     1.394   .     A
C33    H43     1.078   .     S
C35    H38     1.083   .     S
Cu36   O55     1.959   .     S
Cu36   O53     1.969   .     S
Cu36   O51     1.965   .     S
Cu36   Cu37    2.695   .     S
Cu36   N47     2.025   .     S
Cu36   O49     1.970   .     S
Cu37   N48     2.025   .     S
Cu37   O54     1.970   .     S
Cu37   O50     1.969   .     S
Cu37   O52     1.959   .     S
Cu37   O56     1.965   .     S
H42    C531    1.082   1_554 S
H46    C528    1.080   .     S
Br57   C71     1.924   .     S
Br58   C73     1.931   .     S
Br59   C74     1.928   .     S
Br60   C77     1.913   .     S
Br61   C88     1.922   .     S
Br62   C90     1.930   .     S
Br63   C66     1.924   .     S
C64    O106    1.301   .     A
C64    C72     1.471   .     S
C64    O105    1.303   .     A
C65    C82     1.404   .     A
C65    C85     1.429   .     A
C65    C67     1.476   .     S
C66    C72     1.420   .     A
C66    C236    1.383   .     S
C67    O107    1.309   .     A
C67    O108    1.295   .     A
C68    H100    1.083   .     S
C68    C69     1.393   .     A
C68    C402    1.383   1_545 S
C69    C70     1.395   .     A
C69    C78     1.450   .     S
C70    H101    1.084   .     S
C70    C407    1.385   1_545 S
C71    C72     1.419   .     A
C71    C238    1.385   .     S
C73    N104    1.377   .     A
C73    C130    1.422   .     S
C74    N103    1.376   .     A
C75    C85     1.414   .     A
C75    C588    1.412   .     S
C75    C590    1.415   .     S
C76    N103    1.358   .     A
C76    H95     1.075   .     S
C77    N104    1.378   .     A
C77    C132    1.413   .     S
C78    O110    1.298   .     A
C78    O109    1.295   .     A
C79    O111    1.301   .     A
C79    O112    1.302   .     A
C79    C81     1.472   .     S
C80    C91     1.397   .     A
C80    C591    1.406   1_554 S
C80    H606    1.080   1_554 S
C81    C90     1.405   .     A
C81    C91     1.405   .     A
C82    H96     1.081   .     S
C82    C83     1.387   .     A
C83    C588    1.387   .     S
C83    H602    1.082   .     S
C84    H97     1.082   .     S
C84    C587    1.387   1_554 S
C84    C579    1.412   1_554 S
C85    C89     1.417   .     A
C86    C90     1.397   .     A
C86    C579    1.415   1_554 S
C86    C591    1.413   1_554 S
C87    C88     1.402   .     A
C87    C584    1.406   .     S
C87    C590    1.413   .     S
C88    C89     1.394   .     A
C89    H99     1.078   .     S
C91    H94     1.083   .     S
Cu92   O111    1.959   .     S
Cu92   O109    1.969   .     S
Cu92   O107    1.965   .     S
Cu92   Cu93    2.695   .     S
Cu92   N103    2.025   .     S
Cu92   O105    1.970   .     S
Cu93   N104    2.025   .     S
Cu93   O110    1.970   .     S
Cu93   O106    1.969   .     S
Cu93   O108    1.959   .     S
Cu93   O112    1.965   .     S
H98    C587    1.082   1_554 S
H102   C584    1.080   .     S
Br113  C127    1.924   .     S
Br114  C129    1.931   .     S
Br115  C130    1.928   .     S
Br116  C133    1.913   .     S
Br117  C144    1.922   .     S
Br118  C146    1.930   .     S
Br119  C122    1.924   .     S
C120   O162    1.301   .     A
C120   C128    1.471   .     S
C120   O161    1.303   .     A
C121   C138    1.404   .     A
C121   C141    1.429   .     A
C121   C123    1.476   .     S
C122   C128    1.420   .     A
C122   C292    1.383   .     S
C123   O163    1.309   .     A
C123   O164    1.295   .     A
C124   H156    1.083   .     S
C124   C125    1.393   .     A
C124   C458    1.383   1_545 S
C125   C126    1.395   .     A
C125   C134    1.450   .     S
C126   H157    1.084   .     S
C126   C463    1.385   1_545 S
C127   C128    1.419   .     A
C127   C294    1.385   .     S
C129   N160    1.377   .     A
C129   C18     1.422   1_655 S
C130   N159    1.376   .     A
C131   C141    1.414   .     A
C131   C644    1.412   .     S
C131   C646    1.415   .     S
C132   N159    1.358   .     A
C132   H151    1.075   .     S
C133   N160    1.378   .     A
C133   C20     1.413   1_655 S
C134   O166    1.298   .     A
C134   O165    1.295   .     A
C135   O167    1.301   .     A
C135   O168    1.302   .     A
C135   C137    1.472   .     S
C136   C147    1.397   .     A
C136   C647    1.406   1_554 S
C136   H662    1.080   1_554 S
C137   C146    1.405   .     A
C137   C147    1.405   .     A
C138   H152    1.081   .     S
C138   C139    1.387   .     A
C139   C644    1.387   .     S
C139   H658    1.082   .     S
C140   H153    1.082   .     S
C140   C643    1.387   1_554 S
C140   C635    1.412   1_554 S
C141   C145    1.417   .     A
C142   C146    1.397   .     A
C142   C635    1.415   1_554 S
C142   C647    1.413   1_554 S
C143   C144    1.402   .     A
C143   C640    1.406   .     S
C143   C646    1.413   .     S
C144   C145    1.394   .     A
C145   H155    1.078   .     S
C147   H150    1.083   .     S
Cu148  O167    1.959   .     S
Cu148  O165    1.969   .     S
Cu148  O163    1.965   .     S
Cu148  Cu149   2.695   .     S
Cu148  N159    2.025   .     S
Cu148  O161    1.970   .     S
Cu149  N160    2.025   .     S
Cu149  O166    1.970   .     S
Cu149  O162    1.969   .     S
Cu149  O164    1.959   .     S
Cu149  O168    1.965   .     S
H154   C643    1.082   1_554 S
H158   C640    1.080   .     S
Br169  C183    1.924   .     S
Br170  C185    1.931   .     S
Br171  C186    1.928   .     S
Br172  C189    1.913   .     S
Br173  C200    1.922   .     S
Br174  C202    1.930   .     S
Br175  C178    1.924   .     S
C176   O218    1.301   .     A
C176   C184    1.471   .     S
C176   O217    1.303   .     A
C177   C194    1.404   .     A
C177   C197    1.429   .     A
C177   C179    1.476   .     S
C178   C184    1.420   .     A
C178   C348    1.383   .     S
C179   O219    1.309   .     A
C179   O220    1.295   .     A
C180   H212    1.083   .     S
C180   C181    1.393   .     A
C181   C182    1.395   .     A
C181   C190    1.450   .     S
C182   H213    1.084   .     S
C183   C184    1.419   .     A
C183   C350    1.385   .     S
C185   N216    1.377   .     A
C185   C242    1.422   .     S
C186   N215    1.376   .     A
C186   C297    1.422   1_455 S
C187   C197    1.414   .     A
C187   C700    1.412   .     S
C187   C702    1.415   .     S
C188   N215    1.358   .     A
C188   H207    1.075   .     S
C188   C301    1.413   1_455 S
C189   N216    1.378   .     A
C189   C244    1.413   .     S
C190   O222    1.298   .     A
C190   O221    1.295   .     A
C191   O223    1.301   .     A
C191   O224    1.302   .     A
C191   C193    1.472   .     S
C192   C203    1.397   .     A
C192   C703    1.406   1_554 S
C192   H718    1.080   1_554 S
C193   C202    1.405   .     A
C193   C203    1.405   .     A
C194   H208    1.081   .     S
C194   C195    1.387   .     A
C195   C700    1.387   .     S
C195   H714    1.082   .     S
C196   H209    1.082   .     S
C196   C699    1.387   1_554 S
C196   C691    1.412   1_554 S
C197   C201    1.417   .     A
C198   C202    1.397   .     A
C198   C691    1.415   1_554 S
C198   C703    1.413   1_554 S
C199   C200    1.402   .     A
C199   C696    1.406   .     S
C199   C702    1.413   .     S
C200   C201    1.394   .     A
C201   H211    1.078   .     S
C203   H206    1.083   .     S
Cu204  O223    1.959   .     S
Cu204  O221    1.969   .     S
Cu204  O219    1.965   .     S
Cu204  Cu205   2.695   .     S
Cu204  N215    2.025   .     S
Cu204  O217    1.970   .     S
Cu205  N216    2.025   .     S
Cu205  O222    1.970   .     S
Cu205  O218    1.969   .     S
Cu205  O220    1.959   .     S
Cu205  O224    1.965   .     S
H210   C699    1.082   1_554 S
H214   C696    1.080   .     S
Br225  C239    1.924   .     S
Br226  C241    1.931   .     S
Br227  C242    1.928   .     S
Br228  C245    1.913   .     S
Br229  C256    1.922   .     S
Br230  C258    1.930   .     S
Br231  C234    1.924   .     S
C232   O274    1.301   .     A
C232   C240    1.471   .     S
C232   O273    1.303   .     A
C233   C250    1.404   .     A
C233   C253    1.429   .     A
C233   C235    1.476   .     S
C234   C240    1.420   .     A
C234   C404    1.383   .     S
C235   O275    1.309   .     A
C235   O276    1.295   .     A
C236   H268    1.083   .     S
C236   C237    1.393   .     A
C237   C238    1.395   .     A
C237   C246    1.450   .     S
C238   H269    1.084   .     S
C239   C240    1.419   .     A
C239   C406    1.385   .     S
C241   N272    1.377   .     A
C241   C298    1.422   .     S
C242   N271    1.376   .     A
C243   C253    1.414   .     A
C243   C756    1.412   .     S
C243   C758    1.415   .     S
C244   N271    1.358   .     A
C244   H263    1.075   .     S
C245   N272    1.378   .     A
C245   C300    1.413   .     S
C246   O278    1.298   .     A
C246   O277    1.295   .     A
C247   O279    1.301   .     A
C247   O280    1.302   .     A
C247   C249    1.472   .     S
C248   C259    1.397   .     A
C248   C759    1.406   1_554 S
C248   H774    1.080   1_554 S
C249   C258    1.405   .     A
C249   C259    1.405   .     A
C250   H264    1.081   .     S
C250   C251    1.387   .     A
C251   C756    1.387   .     S
C251   H770    1.082   .     S
C252   H265    1.082   .     S
C252   C755    1.387   1_554 S
C252   C747    1.412   1_554 S
C253   C257    1.417   .     A
C254   C258    1.397   .     A
C254   C747    1.415   1_554 S
C254   C759    1.413   1_554 S
C255   C256    1.402   .     A
C255   C752    1.406   .     S
C255   C758    1.413   .     S
C256   C257    1.394   .     A
C257   H267    1.078   .     S
C259   H262    1.083   .     S
Cu260  O279    1.959   .     S
Cu260  O277    1.969   .     S
Cu260  O275    1.965   .     S
Cu260  Cu261   2.695   .     S
Cu260  N271    2.025   .     S
Cu260  O273    1.970   .     S
Cu261  N272    2.025   .     S
Cu261  O278    1.970   .     S
Cu261  O274    1.969   .     S
Cu261  O276    1.959   .     S
Cu261  O280    1.965   .     S
H266   C755    1.082   1_554 S
H270   C752    1.080   .     S
Br281  C295    1.924   .     S
Br282  C297    1.931   .     S
Br283  C298    1.928   .     S
Br284  C301    1.913   .     S
Br285  C312    1.922   .     S
Br286  C314    1.930   .     S
Br287  C290    1.924   .     S
C288   O330    1.301   .     A
C288   C296    1.471   .     S
C288   O329    1.303   .     A
C289   C306    1.404   .     A
C289   C309    1.429   .     A
C289   C291    1.476   .     S
C290   C296    1.420   .     A
C290   C460    1.383   .     S
C291   O331    1.309   .     A
C291   O332    1.295   .     A
C292   H324    1.083   .     S
C292   C293    1.393   .     A
C293   C294    1.395   .     A
C293   C302    1.450   .     S
C294   H325    1.084   .     S
C295   C296    1.419   .     A
C295   C462    1.385   .     S
C297   N328    1.377   .     A
C297   C186    1.422   1_655 S
C298   N327    1.376   .     A
C299   C309    1.414   .     A
C299   C812    1.412   .     S
C299   C814    1.415   .     S
C300   N327    1.358   .     A
C300   H319    1.075   .     S
C301   N328    1.378   .     A
C301   C188    1.413   1_655 S
C302   O334    1.298   .     A
C302   O333    1.295   .     A
C303   O335    1.301   .     A
C303   O336    1.302   .     A
C303   C305    1.472   .     S
C304   C315    1.397   .     A
C304   C815    1.406   1_554 S
C304   H830    1.080   1_554 S
C305   C314    1.405   .     A
C305   C315    1.405   .     A
C306   H320    1.081   .     S
C306   C307    1.387   .     A
C307   C812    1.387   .     S
C307   H826    1.082   .     S
C308   H321    1.082   .     S
C308   C811    1.387   1_554 S
C308   C803    1.412   1_554 S
C309   C313    1.417   .     A
C310   C314    1.397   .     A
C310   C803    1.415   1_554 S
C310   C815    1.413   1_554 S
C311   C312    1.402   .     A
C311   C808    1.406   .     S
C311   C814    1.413   .     S
C312   C313    1.394   .     A
C313   H323    1.078   .     S
C315   H318    1.083   .     S
Cu316  O335    1.959   .     S
Cu316  O333    1.969   .     S
Cu316  O331    1.965   .     S
Cu316  Cu317   2.695   .     S
Cu316  N327    2.025   .     S
Cu316  O329    1.970   .     S
Cu317  N328    2.025   .     S
Cu317  O334    1.970   .     S
Cu317  O330    1.969   .     S
Cu317  O332    1.959   .     S
Cu317  O336    1.965   .     S
H322   C811    1.082   1_554 S
H326   C808    1.080   .     S
Br337  C351    1.924   .     S
Br338  C353    1.931   .     S
Br339  C354    1.928   .     S
Br340  C357    1.913   .     S
Br341  C368    1.922   .     S
Br342  C370    1.930   .     S
Br343  C346    1.924   .     S
C344   O386    1.301   .     A
C344   C352    1.471   .     S
C344   O385    1.303   .     A
C345   C362    1.404   .     A
C345   C365    1.429   .     A
C345   C347    1.476   .     S
C346   C352    1.420   .     A
C346   C12     1.383   1_565 S
C347   O387    1.309   .     A
C347   O388    1.295   .     A
C348   H380    1.083   .     S
C348   C349    1.393   .     A
C349   C350    1.395   .     A
C349   C358    1.450   .     S
C350   H381    1.084   .     S
C351   C352    1.419   .     A
C351   C14     1.385   1_565 S
C353   N384    1.377   .     A
C353   C410    1.422   .     S
C354   N383    1.376   .     A
C354   C465    1.422   1_455 S
C355   C365    1.414   .     A
C355   C868    1.412   .     S
C355   C870    1.415   .     S
C356   N383    1.358   .     A
C356   H375    1.075   .     S
C356   C469    1.413   1_455 S
C357   N384    1.378   .     A
C357   C412    1.413   .     S
C358   O390    1.298   .     A
C358   O389    1.295   .     A
C359   O391    1.301   .     A
C359   O392    1.302   .     A
C359   C361    1.472   .     S
C360   C371    1.397   .     A
C360   C871    1.406   1_554 S
C360   H886    1.080   1_554 S
C361   C370    1.405   .     A
C361   C371    1.405   .     A
C362   H376    1.081   .     S
C362   C363    1.387   .     A
C363   C868    1.387   .     S
C363   H882    1.082   .     S
C364   H377    1.082   .     S
C364   C867    1.387   1_554 S
C364   C859    1.412   1_554 S
C365   C369    1.417   .     A
C366   C370    1.397   .     A
C366   C859    1.415   1_554 S
C366   C871    1.413   1_554 S
C367   C368    1.402   .     A
C367   C864    1.406   .     S
C367   C870    1.413   .     S
C368   C369    1.394   .     A
C369   H379    1.078   .     S
C371   H374    1.083   .     S
Cu372  O391    1.959   .     S
Cu372  O389    1.969   .     S
Cu372  O387    1.965   .     S
Cu372  Cu373   2.695   .     S
Cu372  N383    2.025   .     S
Cu372  O385    1.970   .     S
Cu373  N384    2.025   .     S
Cu373  O390    1.970   .     S
Cu373  O386    1.969   .     S
Cu373  O388    1.959   .     S
Cu373  O392    1.965   .     S
H378   C867    1.082   1_554 S
H382   C864    1.080   .     S
Br393  C407    1.924   .     S
Br394  C409    1.931   .     S
Br395  C410    1.928   .     S
Br396  C413    1.913   .     S
Br397  C424    1.922   .     S
Br398  C426    1.930   .     S
Br399  C402    1.924   .     S
C400   O442    1.301   .     A
C400   C408    1.471   .     S
C400   O441    1.303   .     A
C401   C418    1.404   .     A
C401   C421    1.429   .     A
C401   C403    1.476   .     S
C402   C408    1.420   .     A
C402   C68     1.383   1_565 S
C403   O443    1.309   .     A
C403   O444    1.295   .     A
C404   H436    1.083   .     S
C404   C405    1.393   .     A
C405   C406    1.395   .     A
C405   C414    1.450   .     S
C406   H437    1.084   .     S
C407   C408    1.419   .     A
C407   C70     1.385   1_565 S
C409   N440    1.377   .     A
C409   C466    1.422   .     S
C410   N439    1.376   .     A
C411   C421    1.414   .     A
C411   C924    1.412   .     S
C411   C926    1.415   .     S
C412   N439    1.358   .     A
C412   H431    1.075   .     S
C413   N440    1.378   .     A
C413   C468    1.413   .     S
C414   O446    1.298   .     A
C414   O445    1.295   .     A
C415   O447    1.301   .     A
C415   O448    1.302   .     A
C415   C417    1.472   .     S
C416   C427    1.397   .     A
C416   C927    1.406   1_554 S
C416   H942    1.080   1_554 S
C417   C426    1.405   .     A
C417   C427    1.405   .     A
C418   H432    1.081   .     S
C418   C419    1.387   .     A
C419   C924    1.387   .     S
C419   H938    1.082   .     S
C420   H433    1.082   .     S
C420   C923    1.387   1_554 S
C420   C915    1.412   1_554 S
C421   C425    1.417   .     A
C422   C426    1.397   .     A
C422   C915    1.415   1_554 S
C422   C927    1.413   1_554 S
C423   C424    1.402   .     A
C423   C920    1.406   .     S
C423   C926    1.413   .     S
C424   C425    1.394   .     A
C425   H435    1.078   .     S
C427   H430    1.083   .     S
Cu428  O447    1.959   .     S
Cu428  O445    1.969   .     S
Cu428  O443    1.965   .     S
Cu428  Cu429   2.695   .     S
Cu428  N439    2.025   .     S
Cu428  O441    1.970   .     S
Cu429  N440    2.025   .     S
Cu429  O446    1.970   .     S
Cu429  O442    1.969   .     S
Cu429  O444    1.959   .     S
Cu429  O448    1.965   .     S
H434   C923    1.082   1_554 S
H438   C920    1.080   .     S
Br449  C463    1.924   .     S
Br450  C465    1.931   .     S
Br451  C466    1.928   .     S
Br452  C469    1.913   .     S
Br453  C480    1.922   .     S
Br454  C482    1.930   .     S
Br455  C458    1.924   .     S
C456   O498    1.301   .     A
C456   C464    1.471   .     S
C456   O497    1.303   .     A
C457   C474    1.404   .     A
C457   C477    1.429   .     A
C457   C459    1.476   .     S
C458   C464    1.420   .     A
C458   C124    1.383   1_565 S
C459   O499    1.309   .     A
C459   O500    1.295   .     A
C460   H492    1.083   .     S
C460   C461    1.393   .     A
C461   C462    1.395   .     A
C461   C470    1.450   .     S
C462   H493    1.084   .     S
C463   C464    1.419   .     A
C463   C126    1.385   1_565 S
C465   N496    1.377   .     A
C465   C354    1.422   1_655 S
C466   N495    1.376   .     A
C467   C477    1.414   .     A
C467   C980    1.412   .     S
C467   C982    1.415   .     S
C468   N495    1.358   .     A
C468   H487    1.075   .     S
C469   N496    1.378   .     A
C469   C356    1.413   1_655 S
C470   O502    1.298   .     A
C470   O501    1.295   .     A
C471   O503    1.301   .     A
C471   O504    1.302   .     A
C471   C473    1.472   .     S
C472   C483    1.397   .     A
C472   C983    1.406   1_554 S
C472   H998    1.080   1_554 S
C473   C482    1.405   .     A
C473   C483    1.405   .     A
C474   H488    1.081   .     S
C474   C475    1.387   .     A
C475   C980    1.387   .     S
C475   H994    1.082   .     S
C476   H489    1.082   .     S
C476   C979    1.387   1_554 S
C476   C971    1.412   1_554 S
C477   C481    1.417   .     A
C478   C482    1.397   .     A
C478   C971    1.415   1_554 S
C478   C983    1.413   1_554 S
C479   C480    1.402   .     A
C479   C976    1.406   .     S
C479   C982    1.413   .     S
C480   C481    1.394   .     A
C481   H491    1.078   .     S
C483   H486    1.083   .     S
Cu484  O503    1.959   .     S
Cu484  O501    1.969   .     S
Cu484  O499    1.965   .     S
Cu484  Cu485   2.695   .     S
Cu484  N495    2.025   .     S
Cu484  O497    1.970   .     S
Cu485  N496    2.025   .     S
Cu485  O502    1.970   .     S
Cu485  O498    1.969   .     S
Cu485  O500    1.959   .     S
Cu485  O504    1.965   .     S
H490   C979    1.082   1_554 S
H494   C976    1.080   .     S
Br505  C519    1.924   .     S
Br506  C521    1.931   .     S
Br507  C522    1.928   .     S
Br508  C525    1.913   .     S
Br509  C536    1.922   .     S
Br510  C538    1.930   .     S
Br511  C514    1.924   .     S
C512   O554    1.301   .     A
C512   C520    1.471   .     S
C512   O553    1.303   .     A
C513   C530    1.404   .     A
C513   C533    1.429   .     A
C513   C515    1.476   .     S
C514   C520    1.420   .     A
C514   C684    1.383   .     S
C515   O555    1.309   .     A
C515   O556    1.295   .     A
C516   H548    1.083   .     S
C516   C517    1.393   .     A
C516   C850    1.383   1_545 S
C517   C518    1.395   .     A
C517   C526    1.450   .     S
C518   H549    1.084   .     S
C518   C855    1.385   1_545 S
C519   C520    1.419   .     A
C519   C686    1.385   .     S
C521   N552    1.377   .     A
C521   C578    1.422   .     S
C522   N551    1.376   .     A
C522   C633    1.422   1_455 S
C523   C533    1.414   .     A
C523   C28     1.412   1_556 S
C523   C30     1.415   1_556 S
C524   N551    1.358   .     A
C524   H543    1.075   .     S
C524   C637    1.413   1_455 S
C525   N552    1.378   .     A
C525   C580    1.413   .     S
C526   O558    1.298   .     A
C526   O557    1.295   .     A
C527   O559    1.301   .     A
C527   O560    1.302   .     A
C527   C529    1.472   .     S
C528   C539    1.397   .     A
C529   C538    1.405   .     A
C529   C539    1.405   .     A
C530   H544    1.081   .     S
C530   C531    1.387   .     A
C531   C28     1.387   1_556 S
C531   H42     1.082   1_556 S
C532   H545    1.082   .     S
C533   C537    1.417   .     A
C534   C538    1.397   .     A
C535   C536    1.402   .     A
C535   C24     1.406   1_556 S
C535   C30     1.413   1_556 S
C536   C537    1.394   .     A
C537   H547    1.078   .     S
C539   H542    1.083   .     S
Cu540  O559    1.959   .     S
Cu540  O557    1.969   .     S
Cu540  O555    1.965   .     S
Cu540  Cu541   2.695   .     S
Cu540  N551    2.025   .     S
Cu540  O553    1.970   .     S
Cu541  N552    2.025   .     S
Cu541  O558    1.970   .     S
Cu541  O554    1.969   .     S
Cu541  O556    1.959   .     S
Cu541  O560    1.965   .     S
H550   C24     1.080   1_556 S
Br561  C575    1.924   .     S
Br562  C577    1.931   .     S
Br563  C578    1.928   .     S
Br564  C581    1.913   .     S
Br565  C592    1.922   .     S
Br566  C594    1.930   .     S
Br567  C570    1.924   .     S
C568   O610    1.301   .     A
C568   C576    1.471   .     S
C568   O609    1.303   .     A
C569   C586    1.404   .     A
C569   C589    1.429   .     A
C569   C571    1.476   .     S
C570   C576    1.420   .     A
C570   C740    1.383   .     S
C571   O611    1.309   .     A
C571   O612    1.295   .     A
C572   H604    1.083   .     S
C572   C573    1.393   .     A
C572   C906    1.383   1_545 S
C573   C574    1.395   .     A
C573   C582    1.450   .     S
C574   H605    1.084   .     S
C574   C911    1.385   1_545 S
C575   C576    1.419   .     A
C575   C742    1.385   .     S
C577   N608    1.377   .     A
C577   C634    1.422   .     S
C578   N607    1.376   .     A
C579   C589    1.414   .     A
C579   C84     1.412   1_556 S
C579   C86     1.415   1_556 S
C580   N607    1.358   .     A
C580   H599    1.075   .     S
C581   N608    1.378   .     A
C581   C636    1.413   .     S
C582   O614    1.298   .     A
C582   O613    1.295   .     A
C583   O615    1.301   .     A
C583   O616    1.302   .     A
C583   C585    1.472   .     S
C584   C595    1.397   .     A
C585   C594    1.405   .     A
C585   C595    1.405   .     A
C586   H600    1.081   .     S
C586   C587    1.387   .     A
C587   C84     1.387   1_556 S
C587   H98     1.082   1_556 S
C588   H601    1.082   .     S
C589   C593    1.417   .     A
C590   C594    1.397   .     A
C591   C592    1.402   .     A
C591   C80     1.406   1_556 S
C591   C86     1.413   1_556 S
C592   C593    1.394   .     A
C593   H603    1.078   .     S
C595   H598    1.083   .     S
Cu596  O615    1.959   .     S
Cu596  O613    1.969   .     S
Cu596  O611    1.965   .     S
Cu596  Cu597   2.695   .     S
Cu596  N607    2.025   .     S
Cu596  O609    1.970   .     S
Cu597  N608    2.025   .     S
Cu597  O614    1.970   .     S
Cu597  O610    1.969   .     S
Cu597  O612    1.959   .     S
Cu597  O616    1.965   .     S
H606   C80     1.080   1_556 S
Br617  C631    1.924   .     S
Br618  C633    1.931   .     S
Br619  C634    1.928   .     S
Br620  C637    1.913   .     S
Br621  C648    1.922   .     S
Br622  C650    1.930   .     S
Br623  C626    1.924   .     S
C624   O666    1.301   .     A
C624   C632    1.471   .     S
C624   O665    1.303   .     A
C625   C642    1.404   .     A
C625   C645    1.429   .     A
C625   C627    1.476   .     S
C626   C632    1.420   .     A
C626   C796    1.383   .     S
C627   O667    1.309   .     A
C627   O668    1.295   .     A
C628   H660    1.083   .     S
C628   C629    1.393   .     A
C628   C962    1.383   1_545 S
C629   C630    1.395   .     A
C629   C638    1.450   .     S
C630   H661    1.084   .     S
C630   C967    1.385   1_545 S
C631   C632    1.419   .     A
C631   C798    1.385   .     S
C633   N664    1.377   .     A
C633   C522    1.422   1_655 S
C634   N663    1.376   .     A
C635   C645    1.414   .     A
C635   C140    1.412   1_556 S
C635   C142    1.415   1_556 S
C636   N663    1.358   .     A
C636   H655    1.075   .     S
C637   N664    1.378   .     A
C637   C524    1.413   1_655 S
C638   O670    1.298   .     A
C638   O669    1.295   .     A
C639   O671    1.301   .     A
C639   O672    1.302   .     A
C639   C641    1.472   .     S
C640   C651    1.397   .     A
C641   C650    1.405   .     A
C641   C651    1.405   .     A
C642   H656    1.081   .     S
C642   C643    1.387   .     A
C643   C140    1.387   1_556 S
C643   H154    1.082   1_556 S
C644   H657    1.082   .     S
C645   C649    1.417   .     A
C646   C650    1.397   .     A
C647   C648    1.402   .     A
C647   C136    1.406   1_556 S
C647   C142    1.413   1_556 S
C648   C649    1.394   .     A
C649   H659    1.078   .     S
C651   H654    1.083   .     S
Cu652  O671    1.959   .     S
Cu652  O669    1.969   .     S
Cu652  O667    1.965   .     S
Cu652  Cu653   2.695   .     S
Cu652  N663    2.025   .     S
Cu652  O665    1.970   .     S
Cu653  N664    2.025   .     S
Cu653  O670    1.970   .     S
Cu653  O666    1.969   .     S
Cu653  O668    1.959   .     S
Cu653  O672    1.965   .     S
H662   C136    1.080   1_556 S
Br673  C687    1.924   .     S
Br674  C689    1.931   .     S
Br675  C690    1.928   .     S
Br676  C693    1.913   .     S
Br677  C704    1.922   .     S
Br678  C706    1.930   .     S
Br679  C682    1.924   .     S
C680   O722    1.301   .     A
C680   C688    1.471   .     S
C680   O721    1.303   .     A
C681   C698    1.404   .     A
C681   C701    1.429   .     A
C681   C683    1.476   .     S
C682   C688    1.420   .     A
C682   C852    1.383   .     S
C683   O723    1.309   .     A
C683   O724    1.295   .     A
C684   H716    1.083   .     S
C684   C685    1.393   .     A
C685   C686    1.395   .     A
C685   C694    1.450   .     S
C686   H717    1.084   .     S
C687   C688    1.419   .     A
C687   C854    1.385   .     S
C689   N720    1.377   .     A
C689   C746    1.422   .     S
C690   N719    1.376   .     A
C690   C801    1.422   1_455 S
C691   C701    1.414   .     A
C691   C196    1.412   1_556 S
C691   C198    1.415   1_556 S
C692   N719    1.358   .     A
C692   H711    1.075   .     S
C692   C805    1.413   1_455 S
C693   N720    1.378   .     A
C693   C748    1.413   .     S
C694   O726    1.298   .     A
C694   O725    1.295   .     A
C695   O727    1.301   .     A
C695   O728    1.302   .     A
C695   C697    1.472   .     S
C696   C707    1.397   .     A
C697   C706    1.405   .     A
C697   C707    1.405   .     A
C698   H712    1.081   .     S
C698   C699    1.387   .     A
C699   C196    1.387   1_556 S
C699   H210    1.082   1_556 S
C700   H713    1.082   .     S
C701   C705    1.417   .     A
C702   C706    1.397   .     A
C703   C704    1.402   .     A
C703   C192    1.406   1_556 S
C703   C198    1.413   1_556 S
C704   C705    1.394   .     A
C705   H715    1.078   .     S
C707   H710    1.083   .     S
Cu708  O727    1.959   .     S
Cu708  O725    1.969   .     S
Cu708  O723    1.965   .     S
Cu708  Cu709   2.695   .     S
Cu708  N719    2.025   .     S
Cu708  O721    1.970   .     S
Cu709  N720    2.025   .     S
Cu709  O726    1.970   .     S
Cu709  O722    1.969   .     S
Cu709  O724    1.959   .     S
Cu709  O728    1.965   .     S
H718   C192    1.080   1_556 S
Br729  C743    1.924   .     S
Br730  C745    1.931   .     S
Br731  C746    1.928   .     S
Br732  C749    1.913   .     S
Br733  C760    1.922   .     S
Br734  C762    1.930   .     S
Br735  C738    1.924   .     S
C736   O778    1.301   .     A
C736   C744    1.471   .     S
C736   O777    1.303   .     A
C737   C754    1.404   .     A
C737   C757    1.429   .     A
C737   C739    1.476   .     S
C738   C744    1.420   .     A
C738   C908    1.383   .     S
C739   O779    1.309   .     A
C739   O780    1.295   .     A
C740   H772    1.083   .     S
C740   C741    1.393   .     A
C741   C742    1.395   .     A
C741   C750    1.450   .     S
C742   H773    1.084   .     S
C743   C744    1.419   .     A
C743   C910    1.385   .     S
C745   N776    1.377   .     A
C745   C802    1.422   .     S
C746   N775    1.376   .     A
C747   C757    1.414   .     A
C747   C252    1.412   1_556 S
C747   C254    1.415   1_556 S
C748   N775    1.358   .     A
C748   H767    1.075   .     S
C749   N776    1.378   .     A
C749   C804    1.413   .     S
C750   O782    1.298   .     A
C750   O781    1.295   .     A
C751   O783    1.301   .     A
C751   O784    1.302   .     A
C751   C753    1.472   .     S
C752   C763    1.397   .     A
C753   C762    1.405   .     A
C753   C763    1.405   .     A
C754   H768    1.081   .     S
C754   C755    1.387   .     A
C755   C252    1.387   1_556 S
C755   H266    1.082   1_556 S
C756   H769    1.082   .     S
C757   C761    1.417   .     A
C758   C762    1.397   .     A
C759   C760    1.402   .     A
C759   C248    1.406   1_556 S
C759   C254    1.413   1_556 S
C760   C761    1.394   .     A
C761   H771    1.078   .     S
C763   H766    1.083   .     S
Cu764  O783    1.959   .     S
Cu764  O781    1.969   .     S
Cu764  O779    1.965   .     S
Cu764  Cu765   2.695   .     S
Cu764  N775    2.025   .     S
Cu764  O777    1.970   .     S
Cu765  N776    2.025   .     S
Cu765  O782    1.970   .     S
Cu765  O778    1.969   .     S
Cu765  O780    1.959   .     S
Cu765  O784    1.965   .     S
H774   C248    1.080   1_556 S
Br785  C799    1.924   .     S
Br786  C801    1.931   .     S
Br787  C802    1.928   .     S
Br788  C805    1.913   .     S
Br789  C816    1.922   .     S
Br790  C818    1.930   .     S
Br791  C794    1.924   .     S
C792   O834    1.301   .     A
C792   C800    1.471   .     S
C792   O833    1.303   .     A
C793   C810    1.404   .     A
C793   C813    1.429   .     A
C793   C795    1.476   .     S
C794   C800    1.420   .     A
C794   C964    1.383   .     S
C795   O835    1.309   .     A
C795   O836    1.295   .     A
C796   H828    1.083   .     S
C796   C797    1.393   .     A
C797   C798    1.395   .     A
C797   C806    1.450   .     S
C798   H829    1.084   .     S
C799   C800    1.419   .     A
C799   C966    1.385   .     S
C801   N832    1.377   .     A
C801   C690    1.422   1_655 S
C802   N831    1.376   .     A
C803   C813    1.414   .     A
C803   C308    1.412   1_556 S
C803   C310    1.415   1_556 S
C804   N831    1.358   .     A
C804   H823    1.075   .     S
C805   N832    1.378   .     A
C805   C692    1.413   1_655 S
C806   O838    1.298   .     A
C806   O837    1.295   .     A
C807   O839    1.301   .     A
C807   O840    1.302   .     A
C807   C809    1.472   .     S
C808   C819    1.397   .     A
C809   C818    1.405   .     A
C809   C819    1.405   .     A
C810   H824    1.081   .     S
C810   C811    1.387   .     A
C811   C308    1.387   1_556 S
C811   H322    1.082   1_556 S
C812   H825    1.082   .     S
C813   C817    1.417   .     A
C814   C818    1.397   .     A
C815   C816    1.402   .     A
C815   C304    1.406   1_556 S
C815   C310    1.413   1_556 S
C816   C817    1.394   .     A
C817   H827    1.078   .     S
C819   H822    1.083   .     S
Cu820  O839    1.959   .     S
Cu820  O837    1.969   .     S
Cu820  O835    1.965   .     S
Cu820  Cu821   2.695   .     S
Cu820  N831    2.025   .     S
Cu820  O833    1.970   .     S
Cu821  N832    2.025   .     S
Cu821  O838    1.970   .     S
Cu821  O834    1.969   .     S
Cu821  O836    1.959   .     S
Cu821  O840    1.965   .     S
H830   C304    1.080   1_556 S
Br841  C855    1.924   .     S
Br842  C857    1.931   .     S
Br843  C858    1.928   .     S
Br844  C861    1.913   .     S
Br845  C872    1.922   .     S
Br846  C874    1.930   .     S
Br847  C850    1.924   .     S
C848   O890    1.301   .     A
C848   C856    1.471   .     S
C848   O889    1.303   .     A
C849   C866    1.404   .     A
C849   C869    1.429   .     A
C849   C851    1.476   .     S
C850   C856    1.420   .     A
C850   C516    1.383   1_565 S
C851   O891    1.309   .     A
C851   O892    1.295   .     A
C852   H884    1.083   .     S
C852   C853    1.393   .     A
C853   C854    1.395   .     A
C853   C862    1.450   .     S
C854   H885    1.084   .     S
C855   C856    1.419   .     A
C855   C518    1.385   1_565 S
C857   N888    1.377   .     A
C857   C914    1.422   .     S
C858   N887    1.376   .     A
C858   C969    1.422   1_455 S
C859   C869    1.414   .     A
C859   C364    1.412   1_556 S
C859   C366    1.415   1_556 S
C860   N887    1.358   .     A
C860   H879    1.075   .     S
C860   C973    1.413   1_455 S
C861   N888    1.378   .     A
C861   C916    1.413   .     S
C862   O894    1.298   .     A
C862   O893    1.295   .     A
C863   O895    1.301   .     A
C863   O896    1.302   .     A
C863   C865    1.472   .     S
C864   C875    1.397   .     A
C865   C874    1.405   .     A
C865   C875    1.405   .     A
C866   H880    1.081   .     S
C866   C867    1.387   .     A
C867   C364    1.387   1_556 S
C867   H378    1.082   1_556 S
C868   H881    1.082   .     S
C869   C873    1.417   .     A
C870   C874    1.397   .     A
C871   C872    1.402   .     A
C871   C360    1.406   1_556 S
C871   C366    1.413   1_556 S
C872   C873    1.394   .     A
C873   H883    1.078   .     S
C875   H878    1.083   .     S
Cu876  O895    1.959   .     S
Cu876  O893    1.969   .     S
Cu876  O891    1.965   .     S
Cu876  Cu877   2.695   .     S
Cu876  N887    2.025   .     S
Cu876  O889    1.970   .     S
Cu877  N888    2.025   .     S
Cu877  O894    1.970   .     S
Cu877  O890    1.969   .     S
Cu877  O892    1.959   .     S
Cu877  O896    1.965   .     S
H886   C360    1.080   1_556 S
Br897  C911    1.924   .     S
Br898  C913    1.931   .     S
Br899  C914    1.928   .     S
Br900  C917    1.913   .     S
Br901  C928    1.922   .     S
Br902  C930    1.930   .     S
Br903  C906    1.924   .     S
C904   O946    1.301   .     A
C904   C912    1.471   .     S
C904   O945    1.303   .     A
C905   C922    1.404   .     A
C905   C925    1.429   .     A
C905   C907    1.476   .     S
C906   C912    1.420   .     A
C906   C572    1.383   1_565 S
C907   O947    1.309   .     A
C907   O948    1.295   .     A
C908   H940    1.083   .     S
C908   C909    1.393   .     A
C909   C910    1.395   .     A
C909   C918    1.450   .     S
C910   H941    1.084   .     S
C911   C912    1.419   .     A
C911   C574    1.385   1_565 S
C913   N944    1.377   .     A
C913   C970    1.422   .     S
C914   N943    1.376   .     A
C915   C925    1.414   .     A
C915   C420    1.412   1_556 S
C915   C422    1.415   1_556 S
C916   N943    1.358   .     A
C916   H935    1.075   .     S
C917   N944    1.378   .     A
C917   C972    1.413   .     S
C918   O950    1.298   .     A
C918   O949    1.295   .     A
C919   O951    1.301   .     A
C919   O952    1.302   .     A
C919   C921    1.472   .     S
C920   C931    1.397   .     A
C921   C930    1.405   .     A
C921   C931    1.405   .     A
C922   H936    1.081   .     S
C922   C923    1.387   .     A
C923   C420    1.387   1_556 S
C923   H434    1.082   1_556 S
C924   H937    1.082   .     S
C925   C929    1.417   .     A
C926   C930    1.397   .     A
C927   C928    1.402   .     A
C927   C416    1.406   1_556 S
C927   C422    1.413   1_556 S
C928   C929    1.394   .     A
C929   H939    1.078   .     S
C931   H934    1.083   .     S
Cu932  O951    1.959   .     S
Cu932  O949    1.969   .     S
Cu932  O947    1.965   .     S
Cu932  Cu933   2.695   .     S
Cu932  N943    2.025   .     S
Cu932  O945    1.970   .     S
Cu933  N944    2.025   .     S
Cu933  O950    1.970   .     S
Cu933  O946    1.969   .     S
Cu933  O948    1.959   .     S
Cu933  O952    1.965   .     S
H942   C416    1.080   1_556 S
Br953  C967    1.924   .     S
Br954  C969    1.931   .     S
Br955  C970    1.928   .     S
Br956  C973    1.913   .     S
Br957  C984    1.922   .     S
Br958  C986    1.930   .     S
Br959  C962    1.924   .     S
C960   O1002   1.301   .     A
C960   C968    1.471   .     S
C960   O1001   1.303   .     A
C961   C978    1.404   .     A
C961   C981    1.429   .     A
C961   C963    1.476   .     S
C962   C968    1.420   .     A
C962   C628    1.383   1_565 S
C963   O1003   1.309   .     A
C963   O1004   1.295   .     A
C964   H996    1.083   .     S
C964   C965    1.393   .     A
C965   C966    1.395   .     A
C965   C974    1.450   .     S
C966   H997    1.084   .     S
C967   C968    1.419   .     A
C967   C630    1.385   1_565 S
C969   N1000   1.377   .     A
C969   C858    1.422   1_655 S
C970   N999    1.376   .     A
C971   C981    1.414   .     A
C971   C476    1.412   1_556 S
C971   C478    1.415   1_556 S
C972   N999    1.358   .     A
C972   H991    1.075   .     S
C973   N1000   1.378   .     A
C973   C860    1.413   1_655 S
C974   O1006   1.298   .     A
C974   O1005   1.295   .     A
C975   O1007   1.301   .     A
C975   O1008   1.302   .     A
C975   C977    1.472   .     S
C976   C987    1.397   .     A
C977   C986    1.405   .     A
C977   C987    1.405   .     A
C978   H992    1.081   .     S
C978   C979    1.387   .     A
C979   C476    1.387   1_556 S
C979   H490    1.082   1_556 S
C980   H993    1.082   .     S
C981   C985    1.417   .     A
C982   C986    1.397   .     A
C983   C984    1.402   .     A
C983   C472    1.406   1_556 S
C983   C478    1.413   1_556 S
C984   C985    1.394   .     A
C985   H995    1.078   .     S
C987   H990    1.083   .     S
Cu988  O1007   1.959   .     S
Cu988  O1005   1.969   .     S
Cu988  O1003   1.965   .     S
Cu988  Cu989   2.695   .     S
Cu988  N999    2.025   .     S
Cu988  O1001   1.970   .     S
Cu989  N1000   2.025   .     S
Cu989  O1006   1.970   .     S
Cu989  O1002   1.969   .     S
Cu989  O1004   1.959   .     S
Cu989  O1008   1.965   .     S
H998   C472    1.080   1_556 S
