data_str_m2_o2_o10_pcu_sym.155
_audit_creation_date              2020-01-03
_audit_creation_method            'Materials Studio'
_symmetry_space_group_name_H-M    'P1'
_symmetry_Int_Tables_number       1
_symmetry_cell_setting            triclinic
loop_
_symmetry_equiv_pos_as_xyz
  x,y,z
_cell_length_a                    26.4647
_cell_length_b                    30.1883
_cell_length_c                    27.7054
_cell_angle_alpha                 90.1285
_cell_angle_beta                  97.7160
_cell_angle_gamma                 90.0937
loop_
_atom_site_label
_atom_site_type_symbol
_atom_site_fract_x
_atom_site_fract_y
_atom_site_fract_z
_atom_site_U_iso_or_equiv
_atom_site_adp_type
_atom_site_occupancy
C1     C     0.16856   0.16500   0.25023   0.00000  Uiso   1.00
C2     C     0.16486   0.33506   0.24989   0.00000  Uiso   1.00
C3     C     0.19044   0.28412   0.05708   0.00000  Uiso   1.00
C4     C     0.12776   0.22887   0.44099   0.00000  Uiso   1.00
C5     C     0.19032   0.28331   0.10781   0.00000  Uiso   1.00
C6     C     0.12871   0.22894   0.39037   0.00000  Uiso   1.00
C7     C     0.14316   0.21663   0.10161   0.00000  Uiso   1.00
C8     C     0.20475   0.27092   0.40019   0.00000  Uiso   1.00
C9     C     0.14313   0.21576   0.05086   0.00000  Uiso   1.00
C10    C     0.20574   0.27099   0.45106   0.00000  Uiso   1.00
C11    C     0.16678   0.24994   0.02734   0.00000  Uiso   1.00
C12    C     0.16676   0.24994   0.47264   0.00000  Uiso   1.00
C13    C     0.06814   0.24947   0.23780   0.00000  Uiso   1.00
C14    C     0.26519   0.25038   0.26222   0.00000  Uiso   1.00
C15    C     0.01362   0.24437   0.23175   0.00000  Uiso   1.00
C16    C     0.31971   0.25525   0.26838   0.00000  Uiso   1.00
C17    C     0.13952   0.04794   0.21347   0.00000  Uiso   1.00
C18    C     0.19388   0.45177   0.21908   0.00000  Uiso   1.00
C19    C     0.14028   0.09378   0.21401   0.00000  Uiso   1.00
C20    C     0.19225   0.40594   0.21935   0.00000  Uiso   1.00
C21    C     0.17164   0.11672   0.25048   0.00000  Uiso   1.00
C22    C     0.16265   0.38349   0.24979   0.00000  Uiso   1.00
C23    C     0.20469   0.09329   0.28628   0.00000  Uiso   1.00
C24    C     0.13246   0.40759   0.27957   0.00000  Uiso   1.00
C25    C     0.20335   0.04649   0.28552   0.00000  Uiso   1.00
C26    C     0.13470   0.45436   0.27918   0.00000  Uiso   1.00
C27    C     0.17022   0.02430   0.24929   0.00000  Uiso   1.00
C28    C     0.16588   0.47596   0.24916   0.00000  Uiso   1.00
Cu29   Cu    0.16667   0.24999   0.29821   0.00000  Uiso   1.00
Cu30   Cu    0.16667   0.25000   0.20178   0.00000  Uiso   1.00
H31    H     0.11417   0.03074   0.18558   0.00000  Uiso   1.00
H32    H     0.21769   0.46853   0.19591   0.00000  Uiso   1.00
H33    H     0.11529   0.11151   0.18643   0.00000  Uiso   1.00
H34    H     0.21519   0.38784   0.19640   0.00000  Uiso   1.00
H35    H     0.20847   0.31182   0.04149   0.00000  Uiso   1.00
H36    H     0.09613   0.21282   0.45486   0.00000  Uiso   1.00
H37    H     0.20910   0.30965   0.12993   0.00000  Uiso   1.00
H38    H     0.09872   0.21219   0.36683   0.00000  Uiso   1.00
H39    H     0.12441   0.19028   0.11880   0.00000  Uiso   1.00
H40    H     0.23478   0.28758   0.38438   0.00000  Uiso   1.00
H41    H     0.12516   0.18802   0.03053   0.00000  Uiso   1.00
H42    H     0.23740   0.28703   0.47310   0.00000  Uiso   1.00
N43    N     0.16667   0.25001   0.12934   0.00000  Uiso   1.00
N44    N     0.16667   0.24999   0.37065   0.00000  Uiso   1.00
O45    O     0.16667   0.18572   0.29071   0.00000  Uiso   1.00
O46    O     0.16666   0.31427   0.20928   0.00000  Uiso   1.00
O47    O     0.16667   0.18573   0.20928   0.00000  Uiso   1.00
O48    O     0.16666   0.31427   0.29072   0.00000  Uiso   1.00
O49    O     0.09161   0.24999   0.28132   0.00000  Uiso   1.00
O50    O     0.24172   0.25000   0.21868   0.00000  Uiso   1.00
O51    O     0.09161   0.25000   0.19988   0.00000  Uiso   1.00
O52    O     0.24172   0.25000   0.30011   0.00000  Uiso   1.00
C53    C     0.32482   0.22311   0.18657   0.00000  Uiso   1.00
N54    N     0.30740   0.20617   0.15061   0.00000  Uiso   1.00
C55    C     0.00837   0.27611   0.31382   0.00000  Uiso   1.00
N56    N     0.02544   0.29267   0.35010   0.00000  Uiso   1.00
C57    C     0.24273   0.11743   0.32346   0.00000  Uiso   1.00
C58    C     0.22306   0.12128   0.37269   0.00000  Uiso   1.00
H59    H     0.25066   0.14060   0.39824   0.00000  Uiso   1.00
H60    H     0.18568   0.13842   0.36884   0.00000  Uiso   1.00
H61    H     0.21862   0.08797   0.38850   0.00000  Uiso   1.00
H62    H     0.27985   0.09975   0.32828   0.00000  Uiso   1.00
H63    H     0.25182   0.15093   0.31064   0.00000  Uiso   1.00
C64    C     0.09649   0.38432   0.30989   0.00000  Uiso   1.00
C65    C     0.12019   0.38047   0.36315   0.00000  Uiso   1.00
H66    H     0.09381   0.36229   0.38402   0.00000  Uiso   1.00
H67    H     0.15686   0.36226   0.36625   0.00000  Uiso   1.00
H68    H     0.12724   0.41380   0.37970   0.00000  Uiso   1.00
H69    H     0.05992   0.40268   0.30788   0.00000  Uiso   1.00
H70    H     0.08538   0.35101   0.29519   0.00000  Uiso   1.00
C71    C     0.23600   0.02096   0.32138   0.00000  Uiso   1.00
N72    N     0.26203   0.00051   0.34996   0.00000  Uiso   1.00
C73    C     0.10484   0.48051   0.30900   0.00000  Uiso   1.00
N74    N     0.08105   0.00143   0.33276   0.00000  Uiso   1.00
C75    C     0.50189   0.16500   0.25023   0.00000  Uiso   1.00
C76    C     0.49819   0.33506   0.24989   0.00000  Uiso   1.00
C77    C     0.52377   0.28412   0.05708   0.00000  Uiso   1.00
C78    C     0.46109   0.22887   0.44099   0.00000  Uiso   1.00
C79    C     0.52365   0.28331   0.10781   0.00000  Uiso   1.00
C80    C     0.46204   0.22894   0.39037   0.00000  Uiso   1.00
C81    C     0.47649   0.21663   0.10161   0.00000  Uiso   1.00
C82    C     0.53808   0.27092   0.40019   0.00000  Uiso   1.00
C83    C     0.47646   0.21576   0.05086   0.00000  Uiso   1.00
C84    C     0.53907   0.27099   0.45106   0.00000  Uiso   1.00
C85    C     0.50011   0.24994   0.02734   0.00000  Uiso   1.00
C86    C     0.50009   0.24994   0.47264   0.00000  Uiso   1.00
C87    C     0.40147   0.24947   0.23780   0.00000  Uiso   1.00
C88    C     0.59852   0.25038   0.26222   0.00000  Uiso   1.00
C89    C     0.34695   0.24437   0.23175   0.00000  Uiso   1.00
C90    C     0.65304   0.25525   0.26838   0.00000  Uiso   1.00
C91    C     0.47286   0.04794   0.21347   0.00000  Uiso   1.00
C92    C     0.52722   0.45177   0.21908   0.00000  Uiso   1.00
C93    C     0.47362   0.09378   0.21401   0.00000  Uiso   1.00
C94    C     0.52558   0.40594   0.21935   0.00000  Uiso   1.00
C95    C     0.50497   0.11672   0.25048   0.00000  Uiso   1.00
C96    C     0.49599   0.38349   0.24979   0.00000  Uiso   1.00
C97    C     0.53802   0.09329   0.28628   0.00000  Uiso   1.00
C98    C     0.46579   0.40759   0.27957   0.00000  Uiso   1.00
C99    C     0.53668   0.04649   0.28552   0.00000  Uiso   1.00
C100   C     0.46803   0.45436   0.27918   0.00000  Uiso   1.00
C101   C     0.50355   0.02430   0.24929   0.00000  Uiso   1.00
C102   C     0.49921   0.47596   0.24916   0.00000  Uiso   1.00
Cu103  Cu    0.50000   0.24999   0.29821   0.00000  Uiso   1.00
Cu104  Cu    0.50000   0.25000   0.20178   0.00000  Uiso   1.00
H105   H     0.44751   0.03074   0.18558   0.00000  Uiso   1.00
H106   H     0.55103   0.46853   0.19591   0.00000  Uiso   1.00
H107   H     0.44862   0.11151   0.18643   0.00000  Uiso   1.00
H108   H     0.54852   0.38784   0.19640   0.00000  Uiso   1.00
H109   H     0.54180   0.31182   0.04149   0.00000  Uiso   1.00
H110   H     0.42947   0.21282   0.45486   0.00000  Uiso   1.00
H111   H     0.54244   0.30965   0.12993   0.00000  Uiso   1.00
H112   H     0.43205   0.21219   0.36683   0.00000  Uiso   1.00
H113   H     0.45775   0.19028   0.11880   0.00000  Uiso   1.00
H114   H     0.56811   0.28758   0.38438   0.00000  Uiso   1.00
H115   H     0.45849   0.18802   0.03053   0.00000  Uiso   1.00
H116   H     0.57073   0.28703   0.47310   0.00000  Uiso   1.00
N117   N     0.50000   0.25001   0.12934   0.00000  Uiso   1.00
N118   N     0.50000   0.24999   0.37065   0.00000  Uiso   1.00
O119   O     0.50000   0.18572   0.29071   0.00000  Uiso   1.00
O120   O     0.50000   0.31427   0.20928   0.00000  Uiso   1.00
O121   O     0.50000   0.18573   0.20928   0.00000  Uiso   1.00
O122   O     0.50000   0.31427   0.29072   0.00000  Uiso   1.00
O123   O     0.42495   0.24999   0.28132   0.00000  Uiso   1.00
O124   O     0.57505   0.25000   0.21868   0.00000  Uiso   1.00
O125   O     0.42495   0.25000   0.19988   0.00000  Uiso   1.00
O126   O     0.57505   0.25000   0.30011   0.00000  Uiso   1.00
C127   C     0.65815   0.22311   0.18657   0.00000  Uiso   1.00
N128   N     0.64073   0.20617   0.15061   0.00000  Uiso   1.00
C129   C     0.34170   0.27611   0.31382   0.00000  Uiso   1.00
N130   N     0.35877   0.29267   0.35010   0.00000  Uiso   1.00
C131   C     0.57607   0.11743   0.32346   0.00000  Uiso   1.00
C132   C     0.55639   0.12128   0.37269   0.00000  Uiso   1.00
H133   H     0.58399   0.14060   0.39824   0.00000  Uiso   1.00
H134   H     0.51901   0.13842   0.36884   0.00000  Uiso   1.00
H135   H     0.55195   0.08797   0.38850   0.00000  Uiso   1.00
H136   H     0.61318   0.09975   0.32828   0.00000  Uiso   1.00
H137   H     0.58515   0.15093   0.31064   0.00000  Uiso   1.00
C138   C     0.42982   0.38432   0.30989   0.00000  Uiso   1.00
C139   C     0.45352   0.38047   0.36315   0.00000  Uiso   1.00
H140   H     0.42714   0.36229   0.38402   0.00000  Uiso   1.00
H141   H     0.49019   0.36226   0.36625   0.00000  Uiso   1.00
H142   H     0.46058   0.41380   0.37970   0.00000  Uiso   1.00
H143   H     0.39325   0.40268   0.30788   0.00000  Uiso   1.00
H144   H     0.41872   0.35101   0.29519   0.00000  Uiso   1.00
C145   C     0.56933   0.02096   0.32138   0.00000  Uiso   1.00
N146   N     0.59536   0.00051   0.34996   0.00000  Uiso   1.00
C147   C     0.43817   0.48051   0.30900   0.00000  Uiso   1.00
N148   N     0.41438   0.00143   0.33276   0.00000  Uiso   1.00
C149   C     0.83523   0.16500   0.25023   0.00000  Uiso   1.00
C150   C     0.83152   0.33506   0.24989   0.00000  Uiso   1.00
C151   C     0.85711   0.28412   0.05708   0.00000  Uiso   1.00
C152   C     0.79443   0.22887   0.44099   0.00000  Uiso   1.00
C153   C     0.85698   0.28331   0.10781   0.00000  Uiso   1.00
C154   C     0.79538   0.22894   0.39037   0.00000  Uiso   1.00
C155   C     0.80982   0.21663   0.10161   0.00000  Uiso   1.00
C156   C     0.87141   0.27092   0.40019   0.00000  Uiso   1.00
C157   C     0.80979   0.21576   0.05086   0.00000  Uiso   1.00
C158   C     0.87240   0.27099   0.45106   0.00000  Uiso   1.00
C159   C     0.83344   0.24994   0.02734   0.00000  Uiso   1.00
C160   C     0.83342   0.24994   0.47264   0.00000  Uiso   1.00
C161   C     0.73480   0.24947   0.23780   0.00000  Uiso   1.00
C162   C     0.93185   0.25038   0.26222   0.00000  Uiso   1.00
C163   C     0.68028   0.24437   0.23175   0.00000  Uiso   1.00
C164   C     0.98638   0.25525   0.26838   0.00000  Uiso   1.00
C165   C     0.80619   0.04794   0.21347   0.00000  Uiso   1.00
C166   C     0.86055   0.45177   0.21908   0.00000  Uiso   1.00
C167   C     0.80695   0.09378   0.21401   0.00000  Uiso   1.00
C168   C     0.85891   0.40594   0.21935   0.00000  Uiso   1.00
C169   C     0.83831   0.11672   0.25048   0.00000  Uiso   1.00
C170   C     0.82932   0.38349   0.24979   0.00000  Uiso   1.00
C171   C     0.87136   0.09329   0.28628   0.00000  Uiso   1.00
C172   C     0.79912   0.40759   0.27957   0.00000  Uiso   1.00
C173   C     0.87002   0.04649   0.28552   0.00000  Uiso   1.00
C174   C     0.80137   0.45436   0.27918   0.00000  Uiso   1.00
C175   C     0.83688   0.02430   0.24929   0.00000  Uiso   1.00
C176   C     0.83255   0.47596   0.24916   0.00000  Uiso   1.00
Cu177  Cu    0.83333   0.24999   0.29821   0.00000  Uiso   1.00
Cu178  Cu    0.83333   0.25000   0.20178   0.00000  Uiso   1.00
H179   H     0.78084   0.03074   0.18558   0.00000  Uiso   1.00
H180   H     0.88436   0.46853   0.19591   0.00000  Uiso   1.00
H181   H     0.78196   0.11151   0.18643   0.00000  Uiso   1.00
H182   H     0.88186   0.38784   0.19640   0.00000  Uiso   1.00
H183   H     0.87514   0.31182   0.04149   0.00000  Uiso   1.00
H184   H     0.76280   0.21282   0.45486   0.00000  Uiso   1.00
H185   H     0.87577   0.30965   0.12993   0.00000  Uiso   1.00
H186   H     0.76538   0.21219   0.36683   0.00000  Uiso   1.00
H187   H     0.79108   0.19028   0.11880   0.00000  Uiso   1.00
H188   H     0.90144   0.28758   0.38438   0.00000  Uiso   1.00
H189   H     0.79182   0.18802   0.03053   0.00000  Uiso   1.00
H190   H     0.90406   0.28703   0.47310   0.00000  Uiso   1.00
N191   N     0.83333   0.25001   0.12934   0.00000  Uiso   1.00
N192   N     0.83333   0.24999   0.37065   0.00000  Uiso   1.00
O193   O     0.83334   0.18572   0.29071   0.00000  Uiso   1.00
O194   O     0.83333   0.31427   0.20928   0.00000  Uiso   1.00
O195   O     0.83334   0.18573   0.20928   0.00000  Uiso   1.00
O196   O     0.83333   0.31427   0.29072   0.00000  Uiso   1.00
O197   O     0.75828   0.24999   0.28132   0.00000  Uiso   1.00
O198   O     0.90839   0.25000   0.21868   0.00000  Uiso   1.00
O199   O     0.75828   0.25000   0.19988   0.00000  Uiso   1.00
O200   O     0.90839   0.25000   0.30011   0.00000  Uiso   1.00
C201   C     0.99148   0.22311   0.18657   0.00000  Uiso   1.00
N202   N     0.97406   0.20617   0.15061   0.00000  Uiso   1.00
C203   C     0.67503   0.27611   0.31382   0.00000  Uiso   1.00
N204   N     0.69210   0.29267   0.35010   0.00000  Uiso   1.00
C205   C     0.90940   0.11743   0.32346   0.00000  Uiso   1.00
C206   C     0.88972   0.12128   0.37269   0.00000  Uiso   1.00
H207   H     0.91733   0.14060   0.39824   0.00000  Uiso   1.00
H208   H     0.85235   0.13842   0.36884   0.00000  Uiso   1.00
H209   H     0.88528   0.08797   0.38850   0.00000  Uiso   1.00
H210   H     0.94652   0.09975   0.32828   0.00000  Uiso   1.00
H211   H     0.91849   0.15093   0.31064   0.00000  Uiso   1.00
C212   C     0.76316   0.38432   0.30989   0.00000  Uiso   1.00
C213   C     0.78685   0.38047   0.36315   0.00000  Uiso   1.00
H214   H     0.76048   0.36229   0.38402   0.00000  Uiso   1.00
H215   H     0.82353   0.36226   0.36625   0.00000  Uiso   1.00
H216   H     0.79391   0.41380   0.37970   0.00000  Uiso   1.00
H217   H     0.72658   0.40268   0.30788   0.00000  Uiso   1.00
H218   H     0.75205   0.35101   0.29519   0.00000  Uiso   1.00
C219   C     0.90267   0.02096   0.32138   0.00000  Uiso   1.00
N220   N     0.92869   0.00051   0.34996   0.00000  Uiso   1.00
C221   C     0.77151   0.48051   0.30900   0.00000  Uiso   1.00
N222   N     0.74771   0.00143   0.33276   0.00000  Uiso   1.00
C223   C     0.16856   0.66500   0.25023   0.00000  Uiso   1.00
C224   C     0.16486   0.83506   0.24989   0.00000  Uiso   1.00
C225   C     0.19044   0.78412   0.05708   0.00000  Uiso   1.00
C226   C     0.12776   0.72887   0.44099   0.00000  Uiso   1.00
C227   C     0.19032   0.78331   0.10781   0.00000  Uiso   1.00
C228   C     0.12871   0.72894   0.39037   0.00000  Uiso   1.00
C229   C     0.14316   0.71663   0.10161   0.00000  Uiso   1.00
C230   C     0.20475   0.77092   0.40019   0.00000  Uiso   1.00
C231   C     0.14313   0.71576   0.05086   0.00000  Uiso   1.00
C232   C     0.20574   0.77099   0.45106   0.00000  Uiso   1.00
C233   C     0.16678   0.74994   0.02734   0.00000  Uiso   1.00
C234   C     0.16676   0.74994   0.47264   0.00000  Uiso   1.00
C235   C     0.06814   0.74947   0.23780   0.00000  Uiso   1.00
C236   C     0.26519   0.75038   0.26222   0.00000  Uiso   1.00
C237   C     0.01362   0.74437   0.23175   0.00000  Uiso   1.00
C238   C     0.31971   0.75525   0.26838   0.00000  Uiso   1.00
C239   C     0.13952   0.54794   0.21347   0.00000  Uiso   1.00
C240   C     0.19388   0.95177   0.21908   0.00000  Uiso   1.00
C241   C     0.14028   0.59378   0.21401   0.00000  Uiso   1.00
C242   C     0.19225   0.90594   0.21935   0.00000  Uiso   1.00
C243   C     0.17164   0.61672   0.25048   0.00000  Uiso   1.00
C244   C     0.16265   0.88349   0.24979   0.00000  Uiso   1.00
C245   C     0.20469   0.59329   0.28628   0.00000  Uiso   1.00
C246   C     0.13246   0.90759   0.27957   0.00000  Uiso   1.00
C247   C     0.20335   0.54649   0.28552   0.00000  Uiso   1.00
C248   C     0.13470   0.95436   0.27918   0.00000  Uiso   1.00
C249   C     0.17022   0.52430   0.24929   0.00000  Uiso   1.00
C250   C     0.16588   0.97596   0.24916   0.00000  Uiso   1.00
Cu251  Cu    0.16667   0.74999   0.29821   0.00000  Uiso   1.00
Cu252  Cu    0.16667   0.75000   0.20178   0.00000  Uiso   1.00
H253   H     0.11417   0.53074   0.18558   0.00000  Uiso   1.00
H254   H     0.21769   0.96853   0.19591   0.00000  Uiso   1.00
H255   H     0.11529   0.61151   0.18643   0.00000  Uiso   1.00
H256   H     0.21519   0.88784   0.19640   0.00000  Uiso   1.00
H257   H     0.20847   0.81182   0.04149   0.00000  Uiso   1.00
H258   H     0.09613   0.71282   0.45486   0.00000  Uiso   1.00
H259   H     0.20910   0.80965   0.12993   0.00000  Uiso   1.00
H260   H     0.09872   0.71219   0.36683   0.00000  Uiso   1.00
H261   H     0.12441   0.69028   0.11880   0.00000  Uiso   1.00
H262   H     0.23478   0.78758   0.38438   0.00000  Uiso   1.00
H263   H     0.12516   0.68802   0.03053   0.00000  Uiso   1.00
H264   H     0.23740   0.78703   0.47310   0.00000  Uiso   1.00
N265   N     0.16667   0.75001   0.12934   0.00000  Uiso   1.00
N266   N     0.16667   0.74999   0.37065   0.00000  Uiso   1.00
O267   O     0.16667   0.68572   0.29071   0.00000  Uiso   1.00
O268   O     0.16666   0.81427   0.20928   0.00000  Uiso   1.00
O269   O     0.16667   0.68573   0.20928   0.00000  Uiso   1.00
O270   O     0.16666   0.81427   0.29072   0.00000  Uiso   1.00
O271   O     0.09161   0.74999   0.28132   0.00000  Uiso   1.00
O272   O     0.24172   0.75000   0.21868   0.00000  Uiso   1.00
O273   O     0.09161   0.75000   0.19988   0.00000  Uiso   1.00
O274   O     0.24172   0.75000   0.30011   0.00000  Uiso   1.00
C275   C     0.32482   0.72311   0.18657   0.00000  Uiso   1.00
N276   N     0.30740   0.70617   0.15061   0.00000  Uiso   1.00
C277   C     0.00837   0.77611   0.31382   0.00000  Uiso   1.00
N278   N     0.02544   0.79267   0.35010   0.00000  Uiso   1.00
C279   C     0.24273   0.61743   0.32346   0.00000  Uiso   1.00
C280   C     0.22306   0.62128   0.37269   0.00000  Uiso   1.00
H281   H     0.25066   0.64060   0.39824   0.00000  Uiso   1.00
H282   H     0.18568   0.63842   0.36884   0.00000  Uiso   1.00
H283   H     0.21862   0.58797   0.38850   0.00000  Uiso   1.00
H284   H     0.27985   0.59975   0.32828   0.00000  Uiso   1.00
H285   H     0.25182   0.65093   0.31064   0.00000  Uiso   1.00
C286   C     0.09649   0.88432   0.30989   0.00000  Uiso   1.00
C287   C     0.12019   0.88047   0.36315   0.00000  Uiso   1.00
H288   H     0.09381   0.86229   0.38402   0.00000  Uiso   1.00
H289   H     0.15686   0.86226   0.36625   0.00000  Uiso   1.00
H290   H     0.12724   0.91380   0.37970   0.00000  Uiso   1.00
H291   H     0.05992   0.90268   0.30788   0.00000  Uiso   1.00
H292   H     0.08538   0.85101   0.29519   0.00000  Uiso   1.00
C293   C     0.23600   0.52096   0.32138   0.00000  Uiso   1.00
N294   N     0.26203   0.50051   0.34996   0.00000  Uiso   1.00
C295   C     0.10484   0.98051   0.30900   0.00000  Uiso   1.00
N296   N     0.08105   0.50143   0.33276   0.00000  Uiso   1.00
C297   C     0.50189   0.66500   0.25023   0.00000  Uiso   1.00
C298   C     0.49819   0.83506   0.24989   0.00000  Uiso   1.00
C299   C     0.52377   0.78412   0.05708   0.00000  Uiso   1.00
C300   C     0.46109   0.72887   0.44099   0.00000  Uiso   1.00
C301   C     0.52365   0.78331   0.10781   0.00000  Uiso   1.00
C302   C     0.46204   0.72894   0.39037   0.00000  Uiso   1.00
C303   C     0.47649   0.71663   0.10161   0.00000  Uiso   1.00
C304   C     0.53808   0.77092   0.40019   0.00000  Uiso   1.00
C305   C     0.47646   0.71576   0.05086   0.00000  Uiso   1.00
C306   C     0.53907   0.77099   0.45106   0.00000  Uiso   1.00
C307   C     0.50011   0.74994   0.02734   0.00000  Uiso   1.00
C308   C     0.50009   0.74994   0.47264   0.00000  Uiso   1.00
C309   C     0.40147   0.74947   0.23780   0.00000  Uiso   1.00
C310   C     0.59852   0.75038   0.26222   0.00000  Uiso   1.00
C311   C     0.34695   0.74437   0.23175   0.00000  Uiso   1.00
C312   C     0.65304   0.75525   0.26838   0.00000  Uiso   1.00
C313   C     0.47286   0.54794   0.21347   0.00000  Uiso   1.00
C314   C     0.52722   0.95177   0.21908   0.00000  Uiso   1.00
C315   C     0.47362   0.59378   0.21401   0.00000  Uiso   1.00
C316   C     0.52558   0.90594   0.21935   0.00000  Uiso   1.00
C317   C     0.50497   0.61672   0.25048   0.00000  Uiso   1.00
C318   C     0.49599   0.88349   0.24979   0.00000  Uiso   1.00
C319   C     0.53802   0.59329   0.28628   0.00000  Uiso   1.00
C320   C     0.46579   0.90759   0.27957   0.00000  Uiso   1.00
C321   C     0.53668   0.54649   0.28552   0.00000  Uiso   1.00
C322   C     0.46803   0.95436   0.27918   0.00000  Uiso   1.00
C323   C     0.50355   0.52430   0.24929   0.00000  Uiso   1.00
C324   C     0.49921   0.97596   0.24916   0.00000  Uiso   1.00
Cu325  Cu    0.50000   0.74999   0.29821   0.00000  Uiso   1.00
Cu326  Cu    0.50000   0.75000   0.20178   0.00000  Uiso   1.00
H327   H     0.44751   0.53074   0.18558   0.00000  Uiso   1.00
H328   H     0.55103   0.96853   0.19591   0.00000  Uiso   1.00
H329   H     0.44862   0.61151   0.18643   0.00000  Uiso   1.00
H330   H     0.54852   0.88784   0.19640   0.00000  Uiso   1.00
H331   H     0.54180   0.81182   0.04149   0.00000  Uiso   1.00
H332   H     0.42947   0.71282   0.45486   0.00000  Uiso   1.00
H333   H     0.54244   0.80965   0.12993   0.00000  Uiso   1.00
H334   H     0.43205   0.71219   0.36683   0.00000  Uiso   1.00
H335   H     0.45775   0.69028   0.11880   0.00000  Uiso   1.00
H336   H     0.56811   0.78758   0.38438   0.00000  Uiso   1.00
H337   H     0.45849   0.68802   0.03053   0.00000  Uiso   1.00
H338   H     0.57073   0.78703   0.47310   0.00000  Uiso   1.00
N339   N     0.50000   0.75001   0.12934   0.00000  Uiso   1.00
N340   N     0.50000   0.74999   0.37065   0.00000  Uiso   1.00
O341   O     0.50000   0.68572   0.29071   0.00000  Uiso   1.00
O342   O     0.50000   0.81427   0.20928   0.00000  Uiso   1.00
O343   O     0.50000   0.68573   0.20928   0.00000  Uiso   1.00
O344   O     0.50000   0.81427   0.29072   0.00000  Uiso   1.00
O345   O     0.42495   0.74999   0.28132   0.00000  Uiso   1.00
O346   O     0.57505   0.75000   0.21868   0.00000  Uiso   1.00
O347   O     0.42495   0.75000   0.19988   0.00000  Uiso   1.00
O348   O     0.57505   0.75000   0.30011   0.00000  Uiso   1.00
C349   C     0.65815   0.72311   0.18657   0.00000  Uiso   1.00
N350   N     0.64073   0.70617   0.15061   0.00000  Uiso   1.00
C351   C     0.34170   0.77611   0.31382   0.00000  Uiso   1.00
N352   N     0.35877   0.79267   0.35010   0.00000  Uiso   1.00
C353   C     0.57607   0.61743   0.32346   0.00000  Uiso   1.00
C354   C     0.55639   0.62128   0.37269   0.00000  Uiso   1.00
H355   H     0.58399   0.64060   0.39824   0.00000  Uiso   1.00
H356   H     0.51901   0.63842   0.36884   0.00000  Uiso   1.00
H357   H     0.55195   0.58797   0.38850   0.00000  Uiso   1.00
H358   H     0.61318   0.59975   0.32828   0.00000  Uiso   1.00
H359   H     0.58515   0.65093   0.31064   0.00000  Uiso   1.00
C360   C     0.42982   0.88432   0.30989   0.00000  Uiso   1.00
C361   C     0.45352   0.88047   0.36315   0.00000  Uiso   1.00
H362   H     0.42714   0.86229   0.38402   0.00000  Uiso   1.00
H363   H     0.49019   0.86226   0.36625   0.00000  Uiso   1.00
H364   H     0.46058   0.91380   0.37970   0.00000  Uiso   1.00
H365   H     0.39325   0.90268   0.30788   0.00000  Uiso   1.00
H366   H     0.41872   0.85101   0.29519   0.00000  Uiso   1.00
C367   C     0.56933   0.52096   0.32138   0.00000  Uiso   1.00
N368   N     0.59536   0.50051   0.34996   0.00000  Uiso   1.00
C369   C     0.43817   0.98051   0.30900   0.00000  Uiso   1.00
N370   N     0.41438   0.50143   0.33276   0.00000  Uiso   1.00
C371   C     0.83523   0.66500   0.25023   0.00000  Uiso   1.00
C372   C     0.83152   0.83506   0.24989   0.00000  Uiso   1.00
C373   C     0.85711   0.78412   0.05708   0.00000  Uiso   1.00
C374   C     0.79443   0.72887   0.44099   0.00000  Uiso   1.00
C375   C     0.85698   0.78331   0.10781   0.00000  Uiso   1.00
C376   C     0.79538   0.72894   0.39037   0.00000  Uiso   1.00
C377   C     0.80982   0.71663   0.10161   0.00000  Uiso   1.00
C378   C     0.87141   0.77092   0.40019   0.00000  Uiso   1.00
C379   C     0.80979   0.71576   0.05086   0.00000  Uiso   1.00
C380   C     0.87240   0.77099   0.45106   0.00000  Uiso   1.00
C381   C     0.83344   0.74994   0.02734   0.00000  Uiso   1.00
C382   C     0.83342   0.74994   0.47264   0.00000  Uiso   1.00
C383   C     0.73480   0.74947   0.23780   0.00000  Uiso   1.00
C384   C     0.93185   0.75038   0.26222   0.00000  Uiso   1.00
C385   C     0.68028   0.74437   0.23175   0.00000  Uiso   1.00
C386   C     0.98638   0.75525   0.26838   0.00000  Uiso   1.00
C387   C     0.80619   0.54794   0.21347   0.00000  Uiso   1.00
C388   C     0.86055   0.95177   0.21908   0.00000  Uiso   1.00
C389   C     0.80695   0.59378   0.21401   0.00000  Uiso   1.00
C390   C     0.85891   0.90594   0.21935   0.00000  Uiso   1.00
C391   C     0.83831   0.61672   0.25048   0.00000  Uiso   1.00
C392   C     0.82932   0.88349   0.24979   0.00000  Uiso   1.00
C393   C     0.87136   0.59329   0.28628   0.00000  Uiso   1.00
C394   C     0.79912   0.90759   0.27957   0.00000  Uiso   1.00
C395   C     0.87002   0.54649   0.28552   0.00000  Uiso   1.00
C396   C     0.80137   0.95436   0.27918   0.00000  Uiso   1.00
C397   C     0.83688   0.52430   0.24929   0.00000  Uiso   1.00
C398   C     0.83255   0.97596   0.24916   0.00000  Uiso   1.00
Cu399  Cu    0.83333   0.74999   0.29821   0.00000  Uiso   1.00
Cu400  Cu    0.83333   0.75000   0.20178   0.00000  Uiso   1.00
H401   H     0.78084   0.53074   0.18558   0.00000  Uiso   1.00
H402   H     0.88436   0.96853   0.19591   0.00000  Uiso   1.00
H403   H     0.78196   0.61151   0.18643   0.00000  Uiso   1.00
H404   H     0.88186   0.88784   0.19640   0.00000  Uiso   1.00
H405   H     0.87514   0.81182   0.04149   0.00000  Uiso   1.00
H406   H     0.76280   0.71282   0.45486   0.00000  Uiso   1.00
H407   H     0.87577   0.80965   0.12993   0.00000  Uiso   1.00
H408   H     0.76538   0.71219   0.36683   0.00000  Uiso   1.00
H409   H     0.79108   0.69028   0.11880   0.00000  Uiso   1.00
H410   H     0.90144   0.78758   0.38438   0.00000  Uiso   1.00
H411   H     0.79182   0.68802   0.03053   0.00000  Uiso   1.00
H412   H     0.90406   0.78703   0.47310   0.00000  Uiso   1.00
N413   N     0.83333   0.75001   0.12934   0.00000  Uiso   1.00
N414   N     0.83333   0.74999   0.37065   0.00000  Uiso   1.00
O415   O     0.83334   0.68572   0.29071   0.00000  Uiso   1.00
O416   O     0.83333   0.81427   0.20928   0.00000  Uiso   1.00
O417   O     0.83334   0.68573   0.20928   0.00000  Uiso   1.00
O418   O     0.83333   0.81427   0.29072   0.00000  Uiso   1.00
O419   O     0.75828   0.74999   0.28132   0.00000  Uiso   1.00
O420   O     0.90839   0.75000   0.21868   0.00000  Uiso   1.00
O421   O     0.75828   0.75000   0.19988   0.00000  Uiso   1.00
O422   O     0.90839   0.75000   0.30011   0.00000  Uiso   1.00
C423   C     0.99148   0.72311   0.18657   0.00000  Uiso   1.00
N424   N     0.97406   0.70617   0.15061   0.00000  Uiso   1.00
C425   C     0.67503   0.77611   0.31382   0.00000  Uiso   1.00
N426   N     0.69210   0.79267   0.35010   0.00000  Uiso   1.00
C427   C     0.90940   0.61743   0.32346   0.00000  Uiso   1.00
C428   C     0.88972   0.62128   0.37269   0.00000  Uiso   1.00
H429   H     0.91733   0.64060   0.39824   0.00000  Uiso   1.00
H430   H     0.85235   0.63842   0.36884   0.00000  Uiso   1.00
H431   H     0.88528   0.58797   0.38850   0.00000  Uiso   1.00
H432   H     0.94652   0.59975   0.32828   0.00000  Uiso   1.00
H433   H     0.91849   0.65093   0.31064   0.00000  Uiso   1.00
C434   C     0.76316   0.88432   0.30989   0.00000  Uiso   1.00
C435   C     0.78685   0.88047   0.36315   0.00000  Uiso   1.00
H436   H     0.76048   0.86229   0.38402   0.00000  Uiso   1.00
H437   H     0.82353   0.86226   0.36625   0.00000  Uiso   1.00
H438   H     0.79391   0.91380   0.37970   0.00000  Uiso   1.00
H439   H     0.72658   0.90268   0.30788   0.00000  Uiso   1.00
H440   H     0.75205   0.85101   0.29519   0.00000  Uiso   1.00
C441   C     0.90267   0.52096   0.32138   0.00000  Uiso   1.00
N442   N     0.92869   0.50051   0.34996   0.00000  Uiso   1.00
C443   C     0.77151   0.98051   0.30900   0.00000  Uiso   1.00
N444   N     0.74771   0.50143   0.33276   0.00000  Uiso   1.00
C445   C     0.16856   0.16500   0.75023   0.00000  Uiso   1.00
C446   C     0.16486   0.33506   0.74989   0.00000  Uiso   1.00
C447   C     0.19044   0.28412   0.55708   0.00000  Uiso   1.00
C448   C     0.12776   0.22887   0.94099   0.00000  Uiso   1.00
C449   C     0.19032   0.28331   0.60781   0.00000  Uiso   1.00
C450   C     0.12871   0.22894   0.89037   0.00000  Uiso   1.00
C451   C     0.14316   0.21663   0.60161   0.00000  Uiso   1.00
C452   C     0.20475   0.27092   0.90019   0.00000  Uiso   1.00
C453   C     0.14313   0.21576   0.55086   0.00000  Uiso   1.00
C454   C     0.20574   0.27099   0.95106   0.00000  Uiso   1.00
C455   C     0.16678   0.24994   0.52734   0.00000  Uiso   1.00
C456   C     0.16676   0.24994   0.97264   0.00000  Uiso   1.00
C457   C     0.06814   0.24947   0.73780   0.00000  Uiso   1.00
C458   C     0.26519   0.25038   0.76222   0.00000  Uiso   1.00
C459   C     0.01362   0.24437   0.73175   0.00000  Uiso   1.00
C460   C     0.31971   0.25525   0.76838   0.00000  Uiso   1.00
C461   C     0.13952   0.04794   0.71347   0.00000  Uiso   1.00
C462   C     0.19388   0.45177   0.71908   0.00000  Uiso   1.00
C463   C     0.14028   0.09378   0.71401   0.00000  Uiso   1.00
C464   C     0.19225   0.40594   0.71935   0.00000  Uiso   1.00
C465   C     0.17164   0.11672   0.75048   0.00000  Uiso   1.00
C466   C     0.16265   0.38349   0.74979   0.00000  Uiso   1.00
C467   C     0.20469   0.09329   0.78628   0.00000  Uiso   1.00
C468   C     0.13246   0.40759   0.77957   0.00000  Uiso   1.00
C469   C     0.20335   0.04649   0.78552   0.00000  Uiso   1.00
C470   C     0.13470   0.45436   0.77918   0.00000  Uiso   1.00
C471   C     0.17022   0.02430   0.74929   0.00000  Uiso   1.00
C472   C     0.16588   0.47596   0.74916   0.00000  Uiso   1.00
Cu473  Cu    0.16667   0.24999   0.79821   0.00000  Uiso   1.00
Cu474  Cu    0.16667   0.25000   0.70178   0.00000  Uiso   1.00
H475   H     0.11417   0.03074   0.68558   0.00000  Uiso   1.00
H476   H     0.21769   0.46853   0.69591   0.00000  Uiso   1.00
H477   H     0.11529   0.11151   0.68643   0.00000  Uiso   1.00
H478   H     0.21519   0.38784   0.69640   0.00000  Uiso   1.00
H479   H     0.20847   0.31182   0.54149   0.00000  Uiso   1.00
H480   H     0.09613   0.21282   0.95486   0.00000  Uiso   1.00
H481   H     0.20910   0.30965   0.62993   0.00000  Uiso   1.00
H482   H     0.09872   0.21219   0.86683   0.00000  Uiso   1.00
H483   H     0.12441   0.19028   0.61880   0.00000  Uiso   1.00
H484   H     0.23478   0.28758   0.88438   0.00000  Uiso   1.00
H485   H     0.12516   0.18802   0.53053   0.00000  Uiso   1.00
H486   H     0.23740   0.28703   0.97310   0.00000  Uiso   1.00
N487   N     0.16667   0.25001   0.62934   0.00000  Uiso   1.00
N488   N     0.16667   0.24999   0.87065   0.00000  Uiso   1.00
O489   O     0.16667   0.18572   0.79071   0.00000  Uiso   1.00
O490   O     0.16666   0.31427   0.70928   0.00000  Uiso   1.00
O491   O     0.16667   0.18573   0.70928   0.00000  Uiso   1.00
O492   O     0.16666   0.31427   0.79072   0.00000  Uiso   1.00
O493   O     0.09161   0.24999   0.78132   0.00000  Uiso   1.00
O494   O     0.24172   0.25000   0.71868   0.00000  Uiso   1.00
O495   O     0.09161   0.25000   0.69988   0.00000  Uiso   1.00
O496   O     0.24172   0.25000   0.80011   0.00000  Uiso   1.00
C497   C     0.32482   0.22311   0.68657   0.00000  Uiso   1.00
N498   N     0.30740   0.20617   0.65061   0.00000  Uiso   1.00
C499   C     0.00837   0.27611   0.81382   0.00000  Uiso   1.00
N500   N     0.02544   0.29267   0.85010   0.00000  Uiso   1.00
C501   C     0.24273   0.11743   0.82346   0.00000  Uiso   1.00
C502   C     0.22306   0.12128   0.87269   0.00000  Uiso   1.00
H503   H     0.25066   0.14060   0.89824   0.00000  Uiso   1.00
H504   H     0.18568   0.13842   0.86884   0.00000  Uiso   1.00
H505   H     0.21862   0.08797   0.88850   0.00000  Uiso   1.00
H506   H     0.27985   0.09975   0.82828   0.00000  Uiso   1.00
H507   H     0.25182   0.15093   0.81064   0.00000  Uiso   1.00
C508   C     0.09649   0.38432   0.80989   0.00000  Uiso   1.00
C509   C     0.12019   0.38047   0.86315   0.00000  Uiso   1.00
H510   H     0.09381   0.36229   0.88402   0.00000  Uiso   1.00
H511   H     0.15686   0.36226   0.86625   0.00000  Uiso   1.00
H512   H     0.12724   0.41380   0.87970   0.00000  Uiso   1.00
H513   H     0.05992   0.40268   0.80788   0.00000  Uiso   1.00
H514   H     0.08538   0.35101   0.79519   0.00000  Uiso   1.00
C515   C     0.23600   0.02096   0.82138   0.00000  Uiso   1.00
N516   N     0.26203   0.00051   0.84996   0.00000  Uiso   1.00
C517   C     0.10484   0.48051   0.80900   0.00000  Uiso   1.00
N518   N     0.08105   0.00143   0.83276   0.00000  Uiso   1.00
C519   C     0.50189   0.16500   0.75023   0.00000  Uiso   1.00
C520   C     0.49819   0.33506   0.74989   0.00000  Uiso   1.00
C521   C     0.52377   0.28412   0.55708   0.00000  Uiso   1.00
C522   C     0.46109   0.22887   0.94099   0.00000  Uiso   1.00
C523   C     0.52365   0.28331   0.60781   0.00000  Uiso   1.00
C524   C     0.46204   0.22894   0.89037   0.00000  Uiso   1.00
C525   C     0.47649   0.21663   0.60161   0.00000  Uiso   1.00
C526   C     0.53808   0.27092   0.90019   0.00000  Uiso   1.00
C527   C     0.47646   0.21576   0.55086   0.00000  Uiso   1.00
C528   C     0.53907   0.27099   0.95106   0.00000  Uiso   1.00
C529   C     0.50011   0.24994   0.52734   0.00000  Uiso   1.00
C530   C     0.50009   0.24994   0.97264   0.00000  Uiso   1.00
C531   C     0.40147   0.24947   0.73780   0.00000  Uiso   1.00
C532   C     0.59852   0.25038   0.76222   0.00000  Uiso   1.00
C533   C     0.34695   0.24437   0.73175   0.00000  Uiso   1.00
C534   C     0.65304   0.25525   0.76838   0.00000  Uiso   1.00
C535   C     0.47286   0.04794   0.71347   0.00000  Uiso   1.00
C536   C     0.52722   0.45177   0.71908   0.00000  Uiso   1.00
C537   C     0.47362   0.09378   0.71401   0.00000  Uiso   1.00
C538   C     0.52558   0.40594   0.71935   0.00000  Uiso   1.00
C539   C     0.50497   0.11672   0.75048   0.00000  Uiso   1.00
C540   C     0.49599   0.38349   0.74979   0.00000  Uiso   1.00
C541   C     0.53802   0.09329   0.78628   0.00000  Uiso   1.00
C542   C     0.46579   0.40759   0.77957   0.00000  Uiso   1.00
C543   C     0.53668   0.04649   0.78552   0.00000  Uiso   1.00
C544   C     0.46803   0.45436   0.77918   0.00000  Uiso   1.00
C545   C     0.50355   0.02430   0.74929   0.00000  Uiso   1.00
C546   C     0.49921   0.47596   0.74916   0.00000  Uiso   1.00
Cu547  Cu    0.50000   0.24999   0.79821   0.00000  Uiso   1.00
Cu548  Cu    0.50000   0.25000   0.70178   0.00000  Uiso   1.00
H549   H     0.44751   0.03074   0.68558   0.00000  Uiso   1.00
H550   H     0.55103   0.46853   0.69591   0.00000  Uiso   1.00
H551   H     0.44862   0.11151   0.68643   0.00000  Uiso   1.00
H552   H     0.54852   0.38784   0.69640   0.00000  Uiso   1.00
H553   H     0.54180   0.31182   0.54149   0.00000  Uiso   1.00
H554   H     0.42947   0.21282   0.95486   0.00000  Uiso   1.00
H555   H     0.54244   0.30965   0.62993   0.00000  Uiso   1.00
H556   H     0.43205   0.21219   0.86683   0.00000  Uiso   1.00
H557   H     0.45775   0.19028   0.61880   0.00000  Uiso   1.00
H558   H     0.56811   0.28758   0.88438   0.00000  Uiso   1.00
H559   H     0.45849   0.18802   0.53053   0.00000  Uiso   1.00
H560   H     0.57073   0.28703   0.97310   0.00000  Uiso   1.00
N561   N     0.50000   0.25001   0.62934   0.00000  Uiso   1.00
N562   N     0.50000   0.24999   0.87065   0.00000  Uiso   1.00
O563   O     0.50000   0.18572   0.79071   0.00000  Uiso   1.00
O564   O     0.50000   0.31427   0.70928   0.00000  Uiso   1.00
O565   O     0.50000   0.18573   0.70928   0.00000  Uiso   1.00
O566   O     0.50000   0.31427   0.79072   0.00000  Uiso   1.00
O567   O     0.42495   0.24999   0.78132   0.00000  Uiso   1.00
O568   O     0.57505   0.25000   0.71868   0.00000  Uiso   1.00
O569   O     0.42495   0.25000   0.69988   0.00000  Uiso   1.00
O570   O     0.57505   0.25000   0.80011   0.00000  Uiso   1.00
C571   C     0.65815   0.22311   0.68657   0.00000  Uiso   1.00
N572   N     0.64073   0.20617   0.65061   0.00000  Uiso   1.00
C573   C     0.34170   0.27611   0.81382   0.00000  Uiso   1.00
N574   N     0.35877   0.29267   0.85010   0.00000  Uiso   1.00
C575   C     0.57607   0.11743   0.82346   0.00000  Uiso   1.00
C576   C     0.55639   0.12128   0.87269   0.00000  Uiso   1.00
H577   H     0.58399   0.14060   0.89824   0.00000  Uiso   1.00
H578   H     0.51901   0.13842   0.86884   0.00000  Uiso   1.00
H579   H     0.55195   0.08797   0.88850   0.00000  Uiso   1.00
H580   H     0.61318   0.09975   0.82828   0.00000  Uiso   1.00
H581   H     0.58515   0.15093   0.81064   0.00000  Uiso   1.00
C582   C     0.42982   0.38432   0.80989   0.00000  Uiso   1.00
C583   C     0.45352   0.38047   0.86315   0.00000  Uiso   1.00
H584   H     0.42714   0.36229   0.88402   0.00000  Uiso   1.00
H585   H     0.49019   0.36226   0.86625   0.00000  Uiso   1.00
H586   H     0.46058   0.41380   0.87970   0.00000  Uiso   1.00
H587   H     0.39325   0.40268   0.80788   0.00000  Uiso   1.00
H588   H     0.41872   0.35101   0.79519   0.00000  Uiso   1.00
C589   C     0.56933   0.02096   0.82138   0.00000  Uiso   1.00
N590   N     0.59536   0.00051   0.84996   0.00000  Uiso   1.00
C591   C     0.43817   0.48051   0.80900   0.00000  Uiso   1.00
N592   N     0.41438   0.00143   0.83276   0.00000  Uiso   1.00
C593   C     0.83523   0.16500   0.75023   0.00000  Uiso   1.00
C594   C     0.83152   0.33506   0.74989   0.00000  Uiso   1.00
C595   C     0.85711   0.28412   0.55708   0.00000  Uiso   1.00
C596   C     0.79443   0.22887   0.94099   0.00000  Uiso   1.00
C597   C     0.85698   0.28331   0.60781   0.00000  Uiso   1.00
C598   C     0.79538   0.22894   0.89037   0.00000  Uiso   1.00
C599   C     0.80982   0.21663   0.60161   0.00000  Uiso   1.00
C600   C     0.87141   0.27092   0.90019   0.00000  Uiso   1.00
C601   C     0.80979   0.21576   0.55086   0.00000  Uiso   1.00
C602   C     0.87240   0.27099   0.95106   0.00000  Uiso   1.00
C603   C     0.83344   0.24994   0.52734   0.00000  Uiso   1.00
C604   C     0.83342   0.24994   0.97264   0.00000  Uiso   1.00
C605   C     0.73480   0.24947   0.73780   0.00000  Uiso   1.00
C606   C     0.93185   0.25038   0.76222   0.00000  Uiso   1.00
C607   C     0.68028   0.24437   0.73175   0.00000  Uiso   1.00
C608   C     0.98638   0.25525   0.76838   0.00000  Uiso   1.00
C609   C     0.80619   0.04794   0.71347   0.00000  Uiso   1.00
C610   C     0.86055   0.45177   0.71908   0.00000  Uiso   1.00
C611   C     0.80695   0.09378   0.71401   0.00000  Uiso   1.00
C612   C     0.85891   0.40594   0.71935   0.00000  Uiso   1.00
C613   C     0.83831   0.11672   0.75048   0.00000  Uiso   1.00
C614   C     0.82932   0.38349   0.74979   0.00000  Uiso   1.00
C615   C     0.87136   0.09329   0.78628   0.00000  Uiso   1.00
C616   C     0.79912   0.40759   0.77957   0.00000  Uiso   1.00
C617   C     0.87002   0.04649   0.78552   0.00000  Uiso   1.00
C618   C     0.80137   0.45436   0.77918   0.00000  Uiso   1.00
C619   C     0.83688   0.02430   0.74929   0.00000  Uiso   1.00
C620   C     0.83255   0.47596   0.74916   0.00000  Uiso   1.00
Cu621  Cu    0.83333   0.24999   0.79821   0.00000  Uiso   1.00
Cu622  Cu    0.83333   0.25000   0.70178   0.00000  Uiso   1.00
H623   H     0.78084   0.03074   0.68558   0.00000  Uiso   1.00
H624   H     0.88436   0.46853   0.69591   0.00000  Uiso   1.00
H625   H     0.78196   0.11151   0.68643   0.00000  Uiso   1.00
H626   H     0.88186   0.38784   0.69640   0.00000  Uiso   1.00
H627   H     0.87514   0.31182   0.54149   0.00000  Uiso   1.00
H628   H     0.76280   0.21282   0.95486   0.00000  Uiso   1.00
H629   H     0.87577   0.30965   0.62993   0.00000  Uiso   1.00
H630   H     0.76538   0.21219   0.86683   0.00000  Uiso   1.00
H631   H     0.79108   0.19028   0.61880   0.00000  Uiso   1.00
H632   H     0.90144   0.28758   0.88438   0.00000  Uiso   1.00
H633   H     0.79182   0.18802   0.53053   0.00000  Uiso   1.00
H634   H     0.90406   0.28703   0.97310   0.00000  Uiso   1.00
N635   N     0.83333   0.25001   0.62934   0.00000  Uiso   1.00
N636   N     0.83333   0.24999   0.87065   0.00000  Uiso   1.00
O637   O     0.83334   0.18572   0.79071   0.00000  Uiso   1.00
O638   O     0.83333   0.31427   0.70928   0.00000  Uiso   1.00
O639   O     0.83334   0.18573   0.70928   0.00000  Uiso   1.00
O640   O     0.83333   0.31427   0.79072   0.00000  Uiso   1.00
O641   O     0.75828   0.24999   0.78132   0.00000  Uiso   1.00
O642   O     0.90839   0.25000   0.71868   0.00000  Uiso   1.00
O643   O     0.75828   0.25000   0.69988   0.00000  Uiso   1.00
O644   O     0.90839   0.25000   0.80011   0.00000  Uiso   1.00
C645   C     0.99148   0.22311   0.68657   0.00000  Uiso   1.00
N646   N     0.97406   0.20617   0.65061   0.00000  Uiso   1.00
C647   C     0.67503   0.27611   0.81382   0.00000  Uiso   1.00
N648   N     0.69210   0.29267   0.85010   0.00000  Uiso   1.00
C649   C     0.90940   0.11743   0.82346   0.00000  Uiso   1.00
C650   C     0.88972   0.12128   0.87269   0.00000  Uiso   1.00
H651   H     0.91733   0.14060   0.89824   0.00000  Uiso   1.00
H652   H     0.85235   0.13842   0.86884   0.00000  Uiso   1.00
H653   H     0.88528   0.08797   0.88850   0.00000  Uiso   1.00
H654   H     0.94652   0.09975   0.82828   0.00000  Uiso   1.00
H655   H     0.91849   0.15093   0.81064   0.00000  Uiso   1.00
C656   C     0.76316   0.38432   0.80989   0.00000  Uiso   1.00
C657   C     0.78685   0.38047   0.86315   0.00000  Uiso   1.00
H658   H     0.76048   0.36229   0.88402   0.00000  Uiso   1.00
H659   H     0.82353   0.36226   0.86625   0.00000  Uiso   1.00
H660   H     0.79391   0.41380   0.87970   0.00000  Uiso   1.00
H661   H     0.72658   0.40268   0.80788   0.00000  Uiso   1.00
H662   H     0.75205   0.35101   0.79519   0.00000  Uiso   1.00
C663   C     0.90267   0.02096   0.82138   0.00000  Uiso   1.00
N664   N     0.92869   0.00051   0.84996   0.00000  Uiso   1.00
C665   C     0.77151   0.48051   0.80900   0.00000  Uiso   1.00
N666   N     0.74771   0.00143   0.83276   0.00000  Uiso   1.00
C667   C     0.16856   0.66500   0.75023   0.00000  Uiso   1.00
C668   C     0.16486   0.83506   0.74989   0.00000  Uiso   1.00
C669   C     0.19044   0.78412   0.55708   0.00000  Uiso   1.00
C670   C     0.12776   0.72887   0.94099   0.00000  Uiso   1.00
C671   C     0.19032   0.78331   0.60781   0.00000  Uiso   1.00
C672   C     0.12871   0.72894   0.89037   0.00000  Uiso   1.00
C673   C     0.14316   0.71663   0.60161   0.00000  Uiso   1.00
C674   C     0.20475   0.77092   0.90019   0.00000  Uiso   1.00
C675   C     0.14313   0.71576   0.55086   0.00000  Uiso   1.00
C676   C     0.20574   0.77099   0.95106   0.00000  Uiso   1.00
C677   C     0.16678   0.74994   0.52734   0.00000  Uiso   1.00
C678   C     0.16676   0.74994   0.97264   0.00000  Uiso   1.00
C679   C     0.06814   0.74947   0.73780   0.00000  Uiso   1.00
C680   C     0.26519   0.75038   0.76222   0.00000  Uiso   1.00
C681   C     0.01362   0.74437   0.73175   0.00000  Uiso   1.00
C682   C     0.31971   0.75525   0.76838   0.00000  Uiso   1.00
C683   C     0.13952   0.54794   0.71347   0.00000  Uiso   1.00
C684   C     0.19388   0.95177   0.71908   0.00000  Uiso   1.00
C685   C     0.14028   0.59378   0.71401   0.00000  Uiso   1.00
C686   C     0.19225   0.90594   0.71935   0.00000  Uiso   1.00
C687   C     0.17164   0.61672   0.75048   0.00000  Uiso   1.00
C688   C     0.16265   0.88349   0.74979   0.00000  Uiso   1.00
C689   C     0.20469   0.59329   0.78628   0.00000  Uiso   1.00
C690   C     0.13246   0.90759   0.77957   0.00000  Uiso   1.00
C691   C     0.20335   0.54649   0.78552   0.00000  Uiso   1.00
C692   C     0.13470   0.95436   0.77918   0.00000  Uiso   1.00
C693   C     0.17022   0.52430   0.74929   0.00000  Uiso   1.00
C694   C     0.16588   0.97596   0.74916   0.00000  Uiso   1.00
Cu695  Cu    0.16667   0.74999   0.79821   0.00000  Uiso   1.00
Cu696  Cu    0.16667   0.75000   0.70178   0.00000  Uiso   1.00
H697   H     0.11417   0.53074   0.68558   0.00000  Uiso   1.00
H698   H     0.21769   0.96853   0.69591   0.00000  Uiso   1.00
H699   H     0.11529   0.61151   0.68643   0.00000  Uiso   1.00
H700   H     0.21519   0.88784   0.69640   0.00000  Uiso   1.00
H701   H     0.20847   0.81182   0.54149   0.00000  Uiso   1.00
H702   H     0.09613   0.71282   0.95486   0.00000  Uiso   1.00
H703   H     0.20910   0.80965   0.62993   0.00000  Uiso   1.00
H704   H     0.09872   0.71219   0.86683   0.00000  Uiso   1.00
H705   H     0.12441   0.69028   0.61880   0.00000  Uiso   1.00
H706   H     0.23478   0.78758   0.88438   0.00000  Uiso   1.00
H707   H     0.12516   0.68802   0.53053   0.00000  Uiso   1.00
H708   H     0.23740   0.78703   0.97310   0.00000  Uiso   1.00
N709   N     0.16667   0.75001   0.62934   0.00000  Uiso   1.00
N710   N     0.16667   0.74999   0.87065   0.00000  Uiso   1.00
O711   O     0.16667   0.68572   0.79071   0.00000  Uiso   1.00
O712   O     0.16666   0.81427   0.70928   0.00000  Uiso   1.00
O713   O     0.16667   0.68573   0.70928   0.00000  Uiso   1.00
O714   O     0.16666   0.81427   0.79072   0.00000  Uiso   1.00
O715   O     0.09161   0.74999   0.78132   0.00000  Uiso   1.00
O716   O     0.24172   0.75000   0.71868   0.00000  Uiso   1.00
O717   O     0.09161   0.75000   0.69988   0.00000  Uiso   1.00
O718   O     0.24172   0.75000   0.80011   0.00000  Uiso   1.00
C719   C     0.32482   0.72311   0.68657   0.00000  Uiso   1.00
N720   N     0.30740   0.70617   0.65061   0.00000  Uiso   1.00
C721   C     0.00837   0.77611   0.81382   0.00000  Uiso   1.00
N722   N     0.02544   0.79267   0.85010   0.00000  Uiso   1.00
C723   C     0.24273   0.61743   0.82346   0.00000  Uiso   1.00
C724   C     0.22306   0.62128   0.87269   0.00000  Uiso   1.00
H725   H     0.25066   0.64060   0.89824   0.00000  Uiso   1.00
H726   H     0.18568   0.63842   0.86884   0.00000  Uiso   1.00
H727   H     0.21862   0.58797   0.88850   0.00000  Uiso   1.00
H728   H     0.27985   0.59975   0.82828   0.00000  Uiso   1.00
H729   H     0.25182   0.65093   0.81064   0.00000  Uiso   1.00
C730   C     0.09649   0.88432   0.80989   0.00000  Uiso   1.00
C731   C     0.12019   0.88047   0.86315   0.00000  Uiso   1.00
H732   H     0.09381   0.86229   0.88402   0.00000  Uiso   1.00
H733   H     0.15686   0.86226   0.86625   0.00000  Uiso   1.00
H734   H     0.12724   0.91380   0.87970   0.00000  Uiso   1.00
H735   H     0.05992   0.90268   0.80788   0.00000  Uiso   1.00
H736   H     0.08538   0.85101   0.79519   0.00000  Uiso   1.00
C737   C     0.23600   0.52096   0.82138   0.00000  Uiso   1.00
N738   N     0.26203   0.50051   0.84996   0.00000  Uiso   1.00
C739   C     0.10484   0.98051   0.80900   0.00000  Uiso   1.00
N740   N     0.08105   0.50143   0.83276   0.00000  Uiso   1.00
C741   C     0.50189   0.66500   0.75023   0.00000  Uiso   1.00
C742   C     0.49819   0.83506   0.74989   0.00000  Uiso   1.00
C743   C     0.52377   0.78412   0.55708   0.00000  Uiso   1.00
C744   C     0.46109   0.72887   0.94099   0.00000  Uiso   1.00
C745   C     0.52365   0.78331   0.60781   0.00000  Uiso   1.00
C746   C     0.46204   0.72894   0.89037   0.00000  Uiso   1.00
C747   C     0.47649   0.71663   0.60161   0.00000  Uiso   1.00
C748   C     0.53808   0.77092   0.90019   0.00000  Uiso   1.00
C749   C     0.47646   0.71576   0.55086   0.00000  Uiso   1.00
C750   C     0.53907   0.77099   0.95106   0.00000  Uiso   1.00
C751   C     0.50011   0.74994   0.52734   0.00000  Uiso   1.00
C752   C     0.50009   0.74994   0.97264   0.00000  Uiso   1.00
C753   C     0.40147   0.74947   0.73780   0.00000  Uiso   1.00
C754   C     0.59852   0.75038   0.76222   0.00000  Uiso   1.00
C755   C     0.34695   0.74437   0.73175   0.00000  Uiso   1.00
C756   C     0.65304   0.75525   0.76838   0.00000  Uiso   1.00
C757   C     0.47286   0.54794   0.71347   0.00000  Uiso   1.00
C758   C     0.52722   0.95177   0.71908   0.00000  Uiso   1.00
C759   C     0.47362   0.59378   0.71401   0.00000  Uiso   1.00
C760   C     0.52558   0.90594   0.71935   0.00000  Uiso   1.00
C761   C     0.50497   0.61672   0.75048   0.00000  Uiso   1.00
C762   C     0.49599   0.88349   0.74979   0.00000  Uiso   1.00
C763   C     0.53802   0.59329   0.78628   0.00000  Uiso   1.00
C764   C     0.46579   0.90759   0.77957   0.00000  Uiso   1.00
C765   C     0.53668   0.54649   0.78552   0.00000  Uiso   1.00
C766   C     0.46803   0.95436   0.77918   0.00000  Uiso   1.00
C767   C     0.50355   0.52430   0.74929   0.00000  Uiso   1.00
C768   C     0.49921   0.97596   0.74916   0.00000  Uiso   1.00
Cu769  Cu    0.50000   0.74999   0.79821   0.00000  Uiso   1.00
Cu770  Cu    0.50000   0.75000   0.70178   0.00000  Uiso   1.00
H771   H     0.44751   0.53074   0.68558   0.00000  Uiso   1.00
H772   H     0.55103   0.96853   0.69591   0.00000  Uiso   1.00
H773   H     0.44862   0.61151   0.68643   0.00000  Uiso   1.00
H774   H     0.54852   0.88784   0.69640   0.00000  Uiso   1.00
H775   H     0.54180   0.81182   0.54149   0.00000  Uiso   1.00
H776   H     0.42947   0.71282   0.95486   0.00000  Uiso   1.00
H777   H     0.54244   0.80965   0.62993   0.00000  Uiso   1.00
H778   H     0.43205   0.71219   0.86683   0.00000  Uiso   1.00
H779   H     0.45775   0.69028   0.61880   0.00000  Uiso   1.00
H780   H     0.56811   0.78758   0.88438   0.00000  Uiso   1.00
H781   H     0.45849   0.68802   0.53053   0.00000  Uiso   1.00
H782   H     0.57073   0.78703   0.97310   0.00000  Uiso   1.00
N783   N     0.50000   0.75001   0.62934   0.00000  Uiso   1.00
N784   N     0.50000   0.74999   0.87065   0.00000  Uiso   1.00
O785   O     0.50000   0.68572   0.79071   0.00000  Uiso   1.00
O786   O     0.50000   0.81427   0.70928   0.00000  Uiso   1.00
O787   O     0.50000   0.68573   0.70928   0.00000  Uiso   1.00
O788   O     0.50000   0.81427   0.79072   0.00000  Uiso   1.00
O789   O     0.42495   0.74999   0.78132   0.00000  Uiso   1.00
O790   O     0.57505   0.75000   0.71868   0.00000  Uiso   1.00
O791   O     0.42495   0.75000   0.69988   0.00000  Uiso   1.00
O792   O     0.57505   0.75000   0.80011   0.00000  Uiso   1.00
C793   C     0.65815   0.72311   0.68657   0.00000  Uiso   1.00
N794   N     0.64073   0.70617   0.65061   0.00000  Uiso   1.00
C795   C     0.34170   0.77611   0.81382   0.00000  Uiso   1.00
N796   N     0.35877   0.79267   0.85010   0.00000  Uiso   1.00
C797   C     0.57607   0.61743   0.82346   0.00000  Uiso   1.00
C798   C     0.55639   0.62128   0.87269   0.00000  Uiso   1.00
H799   H     0.58399   0.64060   0.89824   0.00000  Uiso   1.00
H800   H     0.51901   0.63842   0.86884   0.00000  Uiso   1.00
H801   H     0.55195   0.58797   0.88850   0.00000  Uiso   1.00
H802   H     0.61318   0.59975   0.82828   0.00000  Uiso   1.00
H803   H     0.58515   0.65093   0.81064   0.00000  Uiso   1.00
C804   C     0.42982   0.88432   0.80989   0.00000  Uiso   1.00
C805   C     0.45352   0.88047   0.86315   0.00000  Uiso   1.00
H806   H     0.42714   0.86229   0.88402   0.00000  Uiso   1.00
H807   H     0.49019   0.86226   0.86625   0.00000  Uiso   1.00
H808   H     0.46058   0.91380   0.87970   0.00000  Uiso   1.00
H809   H     0.39325   0.90268   0.80788   0.00000  Uiso   1.00
H810   H     0.41872   0.85101   0.79519   0.00000  Uiso   1.00
C811   C     0.56933   0.52096   0.82138   0.00000  Uiso   1.00
N812   N     0.59536   0.50051   0.84996   0.00000  Uiso   1.00
C813   C     0.43817   0.98051   0.80900   0.00000  Uiso   1.00
N814   N     0.41438   0.50143   0.83276   0.00000  Uiso   1.00
C815   C     0.83523   0.66500   0.75023   0.00000  Uiso   1.00
C816   C     0.83152   0.83506   0.74989   0.00000  Uiso   1.00
C817   C     0.85711   0.78412   0.55708   0.00000  Uiso   1.00
C818   C     0.79443   0.72887   0.94099   0.00000  Uiso   1.00
C819   C     0.85698   0.78331   0.60781   0.00000  Uiso   1.00
C820   C     0.79538   0.72894   0.89037   0.00000  Uiso   1.00
C821   C     0.80982   0.71663   0.60161   0.00000  Uiso   1.00
C822   C     0.87141   0.77092   0.90019   0.00000  Uiso   1.00
C823   C     0.80979   0.71576   0.55086   0.00000  Uiso   1.00
C824   C     0.87240   0.77099   0.95106   0.00000  Uiso   1.00
C825   C     0.83344   0.74994   0.52734   0.00000  Uiso   1.00
C826   C     0.83342   0.74994   0.97264   0.00000  Uiso   1.00
C827   C     0.73480   0.74947   0.73780   0.00000  Uiso   1.00
C828   C     0.93185   0.75038   0.76222   0.00000  Uiso   1.00
C829   C     0.68028   0.74437   0.73175   0.00000  Uiso   1.00
C830   C     0.98638   0.75525   0.76838   0.00000  Uiso   1.00
C831   C     0.80619   0.54794   0.71347   0.00000  Uiso   1.00
C832   C     0.86055   0.95177   0.71908   0.00000  Uiso   1.00
C833   C     0.80695   0.59378   0.71401   0.00000  Uiso   1.00
C834   C     0.85891   0.90594   0.71935   0.00000  Uiso   1.00
C835   C     0.83831   0.61672   0.75048   0.00000  Uiso   1.00
C836   C     0.82932   0.88349   0.74979   0.00000  Uiso   1.00
C837   C     0.87136   0.59329   0.78628   0.00000  Uiso   1.00
C838   C     0.79912   0.90759   0.77957   0.00000  Uiso   1.00
C839   C     0.87002   0.54649   0.78552   0.00000  Uiso   1.00
C840   C     0.80137   0.95436   0.77918   0.00000  Uiso   1.00
C841   C     0.83688   0.52430   0.74929   0.00000  Uiso   1.00
C842   C     0.83255   0.97596   0.74916   0.00000  Uiso   1.00
Cu843  Cu    0.83333   0.74999   0.79821   0.00000  Uiso   1.00
Cu844  Cu    0.83333   0.75000   0.70178   0.00000  Uiso   1.00
H845   H     0.78084   0.53074   0.68558   0.00000  Uiso   1.00
H846   H     0.88436   0.96853   0.69591   0.00000  Uiso   1.00
H847   H     0.78196   0.61151   0.68643   0.00000  Uiso   1.00
H848   H     0.88186   0.88784   0.69640   0.00000  Uiso   1.00
H849   H     0.87514   0.81182   0.54149   0.00000  Uiso   1.00
H850   H     0.76280   0.71282   0.95486   0.00000  Uiso   1.00
H851   H     0.87577   0.80965   0.62993   0.00000  Uiso   1.00
H852   H     0.76538   0.71219   0.86683   0.00000  Uiso   1.00
H853   H     0.79108   0.69028   0.61880   0.00000  Uiso   1.00
H854   H     0.90144   0.78758   0.88438   0.00000  Uiso   1.00
H855   H     0.79182   0.68802   0.53053   0.00000  Uiso   1.00
H856   H     0.90406   0.78703   0.97310   0.00000  Uiso   1.00
N857   N     0.83333   0.75001   0.62934   0.00000  Uiso   1.00
N858   N     0.83333   0.74999   0.87065   0.00000  Uiso   1.00
O859   O     0.83334   0.68572   0.79071   0.00000  Uiso   1.00
O860   O     0.83333   0.81427   0.70928   0.00000  Uiso   1.00
O861   O     0.83334   0.68573   0.70928   0.00000  Uiso   1.00
O862   O     0.83333   0.81427   0.79072   0.00000  Uiso   1.00
O863   O     0.75828   0.74999   0.78132   0.00000  Uiso   1.00
O864   O     0.90839   0.75000   0.71868   0.00000  Uiso   1.00
O865   O     0.75828   0.75000   0.69988   0.00000  Uiso   1.00
O866   O     0.90839   0.75000   0.80011   0.00000  Uiso   1.00
C867   C     0.99148   0.72311   0.68657   0.00000  Uiso   1.00
N868   N     0.97406   0.70617   0.65061   0.00000  Uiso   1.00
C869   C     0.67503   0.77611   0.81382   0.00000  Uiso   1.00
N870   N     0.69210   0.79267   0.85010   0.00000  Uiso   1.00
C871   C     0.90940   0.61743   0.82346   0.00000  Uiso   1.00
C872   C     0.88972   0.62128   0.87269   0.00000  Uiso   1.00
H873   H     0.91733   0.64060   0.89824   0.00000  Uiso   1.00
H874   H     0.85235   0.63842   0.86884   0.00000  Uiso   1.00
H875   H     0.88528   0.58797   0.88850   0.00000  Uiso   1.00
H876   H     0.94652   0.59975   0.82828   0.00000  Uiso   1.00
H877   H     0.91849   0.65093   0.81064   0.00000  Uiso   1.00
C878   C     0.76316   0.88432   0.80989   0.00000  Uiso   1.00
C879   C     0.78685   0.88047   0.86315   0.00000  Uiso   1.00
H880   H     0.76048   0.86229   0.88402   0.00000  Uiso   1.00
H881   H     0.82353   0.86226   0.86625   0.00000  Uiso   1.00
H882   H     0.79391   0.91380   0.87970   0.00000  Uiso   1.00
H883   H     0.72658   0.90268   0.80788   0.00000  Uiso   1.00
H884   H     0.75205   0.85101   0.79519   0.00000  Uiso   1.00
C885   C     0.90267   0.52096   0.82138   0.00000  Uiso   1.00
N886   N     0.92869   0.50051   0.84996   0.00000  Uiso   1.00
C887   C     0.77151   0.98051   0.80900   0.00000  Uiso   1.00
N888   N     0.74771   0.50143   0.83276   0.00000  Uiso   1.00
loop_
_geom_bond_atom_site_label_1
_geom_bond_atom_site_label_2
_geom_bond_distance
_geom_bond_site_symmetry_2
_ccdc_geom_bond_type
C1     C21     1.460   .     S
C1     O45     1.290   .     A
C1     O47     1.292   .     A
C2     C22     1.463   .     S
C2     O48     1.290   .     A
C2     O46     1.293   .     A
C3     C11     1.411   .     A
C3     H35     1.081   .     S
C3     C5      1.406   .     A
C4     H36     1.081   .     S
C4     C6      1.406   .     A
C4     C12     1.411   .     A
C5     H37     1.081   .     S
C5     N43     1.364   .     A
C6     H38     1.081   .     S
C6     N44     1.363   .     A
C7     N43     1.364   .     A
C7     C9      1.406   .     A
C7     H39     1.081   .     S
C8     C10     1.406   .     A
C8     H40     1.081   .     S
C8     N44     1.363   .     A
C9     H41     1.081   .     S
C9     C11     1.411   .     A
C10    H42     1.081   .     S
C10    C12     1.411   .     A
C11    C456    1.515   1_554 S
C12    C455    1.515   .     S
C13    O49     1.280   .     A
C13    C15     1.438   .     S
C13    O51     1.290   .     A
C14    O50     1.281   .     A
C14    C16     1.437   .     S
C14    O52     1.290   .     A
C15    C164    1.361   1_455 S
C15    C201    1.456   1_455 S
C16    C89     1.361   .     S
C16    C129    1.456   .     S
C17    H31     1.084   .     S
C17    C27     1.394   .     A
C17    C19     1.384   .     A
C18    H32     1.084   .     S
C18    C28     1.393   .     A
C18    C20     1.384   .     A
C19    C21     1.400   .     A
C19    H33     1.084   .     S
C20    H34     1.084   .     S
C20    C22     1.401   .     A
C21    C23     1.422   .     A
C22    C24     1.423   .     A
C23    C57     1.524   .     S
C23    C25     1.413   .     A
C24    C64     1.523   .     S
C24    C26     1.413   .     A
C25    C71     1.450   .     S
C25    C27     1.408   .     A
C26    C73     1.451   .     S
C26    C28     1.408   .     A
C27    C250    1.464   1_545 S
C28    C249    1.464   .     S
Cu29   Cu30    2.672   .     S
Cu29   O49     1.979   .     S
Cu29   N44     2.007   .     S
Cu29   O48     1.952   .     S
Cu29   O45     1.951   .     S
Cu29   O52     1.980   .     S
Cu30   O51     1.980   .     S
Cu30   O50     1.979   .     S
Cu30   N43     2.007   .     S
Cu30   O47     1.952   .     S
Cu30   O46     1.951   .     S
C53    N54     1.158   .     T
C53    C89     1.456   .     S
C55    N56     1.157   .     T
C55    C164    1.456   1_455 S
C57    H62     1.111   .     S
C57    C58     1.528   .     S
C57    H63     1.109   .     S
C58    H61     1.110   .     S
C58    H60     1.110   .     S
C58    H59     1.110   .     S
C64    C65     1.529   .     S
C64    H69     1.111   .     S
C64    H70     1.109   .     S
C65    H68     1.110   .     S
C65    H66     1.110   .     S
C65    H67     1.110   .     S
C71    N72     1.157   .     T
C73    N296    1.157   .     S
N74    C295    1.157   1_545 S
C75    C95     1.460   .     S
C75    O119    1.290   .     A
C75    O121    1.292   .     A
C76    C96     1.463   .     S
C76    O122    1.290   .     A
C76    O120    1.293   .     A
C77    C85     1.411   .     A
C77    H109    1.081   .     S
C77    C79     1.406   .     A
C78    H110    1.081   .     S
C78    C80     1.406   .     A
C78    C86     1.411   .     A
C79    H111    1.081   .     S
C79    N117    1.364   .     A
C80    H112    1.081   .     S
C80    N118    1.363   .     A
C81    N117    1.364   .     A
C81    C83     1.406   .     A
C81    H113    1.081   .     S
C82    C84     1.406   .     A
C82    H114    1.081   .     S
C82    N118    1.363   .     A
C83    H115    1.081   .     S
C83    C85     1.411   .     A
C84    H116    1.081   .     S
C84    C86     1.411   .     A
C85    C530    1.515   1_554 S
C86    C529    1.515   .     S
C87    O123    1.280   .     A
C87    C89     1.438   .     S
C87    O125    1.290   .     A
C88    O124    1.281   .     A
C88    C90     1.437   .     S
C88    O126    1.290   .     A
C90    C163    1.361   .     S
C90    C203    1.456   .     S
C91    H105    1.084   .     S
C91    C101    1.394   .     A
C91    C93     1.384   .     A
C92    H106    1.084   .     S
C92    C102    1.393   .     A
C92    C94     1.384   .     A
C93    C95     1.400   .     A
C93    H107    1.084   .     S
C94    H108    1.084   .     S
C94    C96     1.401   .     A
C95    C97     1.422   .     A
C96    C98     1.423   .     A
C97    C131    1.524   .     S
C97    C99     1.413   .     A
C98    C138    1.523   .     S
C98    C100    1.413   .     A
C99    C145    1.450   .     S
C99    C101    1.408   .     A
C100   C147    1.451   .     S
C100   C102    1.408   .     A
C101   C324    1.464   1_545 S
C102   C323    1.464   .     S
Cu103  Cu104   2.672   .     S
Cu103  O123    1.979   .     S
Cu103  N118    2.007   .     S
Cu103  O122    1.952   .     S
Cu103  O119    1.951   .     S
Cu103  O126    1.980   .     S
Cu104  O125    1.980   .     S
Cu104  O124    1.979   .     S
Cu104  N117    2.007   .     S
Cu104  O121    1.952   .     S
Cu104  O120    1.951   .     S
C127   N128    1.158   .     T
C127   C163    1.456   .     S
C129   N130    1.157   .     T
C131   H136    1.111   .     S
C131   C132    1.528   .     S
C131   H137    1.109   .     S
C132   H135    1.110   .     S
C132   H134    1.110   .     S
C132   H133    1.110   .     S
C138   C139    1.529   .     S
C138   H143    1.111   .     S
C138   H144    1.109   .     S
C139   H142    1.110   .     S
C139   H140    1.110   .     S
C139   H141    1.110   .     S
C145   N146    1.157   .     T
C147   N370    1.157   .     S
N148   C369    1.157   1_545 S
C149   C169    1.460   .     S
C149   O193    1.290   .     A
C149   O195    1.292   .     A
C150   C170    1.463   .     S
C150   O196    1.290   .     A
C150   O194    1.293   .     A
C151   C159    1.411   .     A
C151   H183    1.081   .     S
C151   C153    1.406   .     A
C152   H184    1.081   .     S
C152   C154    1.406   .     A
C152   C160    1.411   .     A
C153   H185    1.081   .     S
C153   N191    1.364   .     A
C154   H186    1.081   .     S
C154   N192    1.363   .     A
C155   N191    1.364   .     A
C155   C157    1.406   .     A
C155   H187    1.081   .     S
C156   C158    1.406   .     A
C156   H188    1.081   .     S
C156   N192    1.363   .     A
C157   H189    1.081   .     S
C157   C159    1.411   .     A
C158   H190    1.081   .     S
C158   C160    1.411   .     A
C159   C604    1.515   1_554 S
C160   C603    1.515   .     S
C161   O197    1.280   .     A
C161   C163    1.438   .     S
C161   O199    1.290   .     A
C162   O198    1.281   .     A
C162   C164    1.437   .     S
C162   O200    1.290   .     A
C164   C15     1.361   1_655 S
C164   C55     1.456   1_655 S
C165   H179    1.084   .     S
C165   C175    1.394   .     A
C165   C167    1.384   .     A
C166   H180    1.084   .     S
C166   C176    1.393   .     A
C166   C168    1.384   .     A
C167   C169    1.400   .     A
C167   H181    1.084   .     S
C168   H182    1.084   .     S
C168   C170    1.401   .     A
C169   C171    1.422   .     A
C170   C172    1.423   .     A
C171   C205    1.524   .     S
C171   C173    1.413   .     A
C172   C212    1.523   .     S
C172   C174    1.413   .     A
C173   C219    1.450   .     S
C173   C175    1.408   .     A
C174   C221    1.451   .     S
C174   C176    1.408   .     A
C175   C398    1.464   1_545 S
C176   C397    1.464   .     S
Cu177  Cu178   2.672   .     S
Cu177  O197    1.979   .     S
Cu177  N192    2.007   .     S
Cu177  O196    1.952   .     S
Cu177  O193    1.951   .     S
Cu177  O200    1.980   .     S
Cu178  O199    1.980   .     S
Cu178  O198    1.979   .     S
Cu178  N191    2.007   .     S
Cu178  O195    1.952   .     S
Cu178  O194    1.951   .     S
C201   N202    1.158   .     T
C201   C15     1.456   1_655 S
C203   N204    1.157   .     T
C205   H210    1.111   .     S
C205   C206    1.528   .     S
C205   H211    1.109   .     S
C206   H209    1.110   .     S
C206   H208    1.110   .     S
C206   H207    1.110   .     S
C212   C213    1.529   .     S
C212   H217    1.111   .     S
C212   H218    1.109   .     S
C213   H216    1.110   .     S
C213   H214    1.110   .     S
C213   H215    1.110   .     S
C219   N220    1.157   .     T
C221   N444    1.157   .     S
N222   C443    1.157   1_545 S
C223   C243    1.460   .     S
C223   O267    1.290   .     A
C223   O269    1.292   .     A
C224   C244    1.463   .     S
C224   O270    1.290   .     A
C224   O268    1.293   .     A
C225   C233    1.411   .     A
C225   H257    1.081   .     S
C225   C227    1.406   .     A
C226   H258    1.081   .     S
C226   C228    1.406   .     A
C226   C234    1.411   .     A
C227   H259    1.081   .     S
C227   N265    1.364   .     A
C228   H260    1.081   .     S
C228   N266    1.363   .     A
C229   N265    1.364   .     A
C229   C231    1.406   .     A
C229   H261    1.081   .     S
C230   C232    1.406   .     A
C230   H262    1.081   .     S
C230   N266    1.363   .     A
C231   H263    1.081   .     S
C231   C233    1.411   .     A
C232   H264    1.081   .     S
C232   C234    1.411   .     A
C233   C678    1.515   1_554 S
C234   C677    1.515   .     S
C235   O271    1.280   .     A
C235   C237    1.438   .     S
C235   O273    1.290   .     A
C236   O272    1.281   .     A
C236   C238    1.437   .     S
C236   O274    1.290   .     A
C237   C386    1.361   1_455 S
C237   C423    1.456   1_455 S
C238   C311    1.361   .     S
C238   C351    1.456   .     S
C239   H253    1.084   .     S
C239   C249    1.394   .     A
C239   C241    1.384   .     A
C240   H254    1.084   .     S
C240   C250    1.393   .     A
C240   C242    1.384   .     A
C241   C243    1.400   .     A
C241   H255    1.084   .     S
C242   H256    1.084   .     S
C242   C244    1.401   .     A
C243   C245    1.422   .     A
C244   C246    1.423   .     A
C245   C279    1.524   .     S
C245   C247    1.413   .     A
C246   C286    1.523   .     S
C246   C248    1.413   .     A
C247   C293    1.450   .     S
C247   C249    1.408   .     A
C248   C295    1.451   .     S
C248   C250    1.408   .     A
C250   C27     1.464   1_565 S
Cu251  Cu252   2.672   .     S
Cu251  O271    1.979   .     S
Cu251  N266    2.007   .     S
Cu251  O270    1.952   .     S
Cu251  O267    1.951   .     S
Cu251  O274    1.980   .     S
Cu252  O273    1.980   .     S
Cu252  O272    1.979   .     S
Cu252  N265    2.007   .     S
Cu252  O269    1.952   .     S
Cu252  O268    1.951   .     S
C275   N276    1.158   .     T
C275   C311    1.456   .     S
C277   N278    1.157   .     T
C277   C386    1.456   1_455 S
C279   H284    1.111   .     S
C279   C280    1.528   .     S
C279   H285    1.109   .     S
C280   H283    1.110   .     S
C280   H282    1.110   .     S
C280   H281    1.110   .     S
C286   C287    1.529   .     S
C286   H291    1.111   .     S
C286   H292    1.109   .     S
C287   H290    1.110   .     S
C287   H288    1.110   .     S
C287   H289    1.110   .     S
C293   N294    1.157   .     T
C295   N74     1.157   1_565 S
C297   C317    1.460   .     S
C297   O341    1.290   .     A
C297   O343    1.292   .     A
C298   C318    1.463   .     S
C298   O344    1.290   .     A
C298   O342    1.293   .     A
C299   C307    1.411   .     A
C299   H331    1.081   .     S
C299   C301    1.406   .     A
C300   H332    1.081   .     S
C300   C302    1.406   .     A
C300   C308    1.411   .     A
C301   H333    1.081   .     S
C301   N339    1.364   .     A
C302   H334    1.081   .     S
C302   N340    1.363   .     A
C303   N339    1.364   .     A
C303   C305    1.406   .     A
C303   H335    1.081   .     S
C304   C306    1.406   .     A
C304   H336    1.081   .     S
C304   N340    1.363   .     A
C305   H337    1.081   .     S
C305   C307    1.411   .     A
C306   H338    1.081   .     S
C306   C308    1.411   .     A
C307   C752    1.515   1_554 S
C308   C751    1.515   .     S
C309   O345    1.280   .     A
C309   C311    1.438   .     S
C309   O347    1.290   .     A
C310   O346    1.281   .     A
C310   C312    1.437   .     S
C310   O348    1.290   .     A
C312   C385    1.361   .     S
C312   C425    1.456   .     S
C313   H327    1.084   .     S
C313   C323    1.394   .     A
C313   C315    1.384   .     A
C314   H328    1.084   .     S
C314   C324    1.393   .     A
C314   C316    1.384   .     A
C315   C317    1.400   .     A
C315   H329    1.084   .     S
C316   H330    1.084   .     S
C316   C318    1.401   .     A
C317   C319    1.422   .     A
C318   C320    1.423   .     A
C319   C353    1.524   .     S
C319   C321    1.413   .     A
C320   C360    1.523   .     S
C320   C322    1.413   .     A
C321   C367    1.450   .     S
C321   C323    1.408   .     A
C322   C369    1.451   .     S
C322   C324    1.408   .     A
C324   C101    1.464   1_565 S
Cu325  Cu326   2.672   .     S
Cu325  O345    1.979   .     S
Cu325  N340    2.007   .     S
Cu325  O344    1.952   .     S
Cu325  O341    1.951   .     S
Cu325  O348    1.980   .     S
Cu326  O347    1.980   .     S
Cu326  O346    1.979   .     S
Cu326  N339    2.007   .     S
Cu326  O343    1.952   .     S
Cu326  O342    1.951   .     S
C349   N350    1.158   .     T
C349   C385    1.456   .     S
C351   N352    1.157   .     T
C353   H358    1.111   .     S
C353   C354    1.528   .     S
C353   H359    1.109   .     S
C354   H357    1.110   .     S
C354   H356    1.110   .     S
C354   H355    1.110   .     S
C360   C361    1.529   .     S
C360   H365    1.111   .     S
C360   H366    1.109   .     S
C361   H364    1.110   .     S
C361   H362    1.110   .     S
C361   H363    1.110   .     S
C367   N368    1.157   .     T
C369   N148    1.157   1_565 S
C371   C391    1.460   .     S
C371   O415    1.290   .     A
C371   O417    1.292   .     A
C372   C392    1.463   .     S
C372   O418    1.290   .     A
C372   O416    1.293   .     A
C373   C381    1.411   .     A
C373   H405    1.081   .     S
C373   C375    1.406   .     A
C374   H406    1.081   .     S
C374   C376    1.406   .     A
C374   C382    1.411   .     A
C375   H407    1.081   .     S
C375   N413    1.364   .     A
C376   H408    1.081   .     S
C376   N414    1.363   .     A
C377   N413    1.364   .     A
C377   C379    1.406   .     A
C377   H409    1.081   .     S
C378   C380    1.406   .     A
C378   H410    1.081   .     S
C378   N414    1.363   .     A
C379   H411    1.081   .     S
C379   C381    1.411   .     A
C380   H412    1.081   .     S
C380   C382    1.411   .     A
C381   C826    1.515   1_554 S
C382   C825    1.515   .     S
C383   O419    1.280   .     A
C383   C385    1.438   .     S
C383   O421    1.290   .     A
C384   O420    1.281   .     A
C384   C386    1.437   .     S
C384   O422    1.290   .     A
C386   C237    1.361   1_655 S
C386   C277    1.456   1_655 S
C387   H401    1.084   .     S
C387   C397    1.394   .     A
C387   C389    1.384   .     A
C388   H402    1.084   .     S
C388   C398    1.393   .     A
C388   C390    1.384   .     A
C389   C391    1.400   .     A
C389   H403    1.084   .     S
C390   H404    1.084   .     S
C390   C392    1.401   .     A
C391   C393    1.422   .     A
C392   C394    1.423   .     A
C393   C427    1.524   .     S
C393   C395    1.413   .     A
C394   C434    1.523   .     S
C394   C396    1.413   .     A
C395   C441    1.450   .     S
C395   C397    1.408   .     A
C396   C443    1.451   .     S
C396   C398    1.408   .     A
C398   C175    1.464   1_565 S
Cu399  Cu400   2.672   .     S
Cu399  O419    1.979   .     S
Cu399  N414    2.007   .     S
Cu399  O418    1.952   .     S
Cu399  O415    1.951   .     S
Cu399  O422    1.980   .     S
Cu400  O421    1.980   .     S
Cu400  O420    1.979   .     S
Cu400  N413    2.007   .     S
Cu400  O417    1.952   .     S
Cu400  O416    1.951   .     S
C423   N424    1.158   .     T
C423   C237    1.456   1_655 S
C425   N426    1.157   .     T
C427   H432    1.111   .     S
C427   C428    1.528   .     S
C427   H433    1.109   .     S
C428   H431    1.110   .     S
C428   H430    1.110   .     S
C428   H429    1.110   .     S
C434   C435    1.529   .     S
C434   H439    1.111   .     S
C434   H440    1.109   .     S
C435   H438    1.110   .     S
C435   H436    1.110   .     S
C435   H437    1.110   .     S
C441   N442    1.157   .     T
C443   N222    1.157   1_565 S
C445   C465    1.460   .     S
C445   O489    1.290   .     A
C445   O491    1.292   .     A
C446   C466    1.463   .     S
C446   O492    1.290   .     A
C446   O490    1.293   .     A
C447   C455    1.411   .     A
C447   H479    1.081   .     S
C447   C449    1.406   .     A
C448   H480    1.081   .     S
C448   C450    1.406   .     A
C448   C456    1.411   .     A
C449   H481    1.081   .     S
C449   N487    1.364   .     A
C450   H482    1.081   .     S
C450   N488    1.363   .     A
C451   N487    1.364   .     A
C451   C453    1.406   .     A
C451   H483    1.081   .     S
C452   C454    1.406   .     A
C452   H484    1.081   .     S
C452   N488    1.363   .     A
C453   H485    1.081   .     S
C453   C455    1.411   .     A
C454   H486    1.081   .     S
C454   C456    1.411   .     A
C456   C11     1.515   1_556 S
C457   O493    1.280   .     A
C457   C459    1.438   .     S
C457   O495    1.290   .     A
C458   O494    1.281   .     A
C458   C460    1.437   .     S
C458   O496    1.290   .     A
C459   C608    1.361   1_455 S
C459   C645    1.456   1_455 S
C460   C533    1.361   .     S
C460   C573    1.456   .     S
C461   H475    1.084   .     S
C461   C471    1.394   .     A
C461   C463    1.384   .     A
C462   H476    1.084   .     S
C462   C472    1.393   .     A
C462   C464    1.384   .     A
C463   C465    1.400   .     A
C463   H477    1.084   .     S
C464   H478    1.084   .     S
C464   C466    1.401   .     A
C465   C467    1.422   .     A
C466   C468    1.423   .     A
C467   C501    1.524   .     S
C467   C469    1.413   .     A
C468   C508    1.523   .     S
C468   C470    1.413   .     A
C469   C515    1.450   .     S
C469   C471    1.408   .     A
C470   C517    1.451   .     S
C470   C472    1.408   .     A
C471   C694    1.464   1_545 S
C472   C693    1.464   .     S
Cu473  Cu474   2.672   .     S
Cu473  O493    1.979   .     S
Cu473  N488    2.007   .     S
Cu473  O492    1.952   .     S
Cu473  O489    1.951   .     S
Cu473  O496    1.980   .     S
Cu474  O495    1.980   .     S
Cu474  O494    1.979   .     S
Cu474  N487    2.007   .     S
Cu474  O491    1.952   .     S
Cu474  O490    1.951   .     S
C497   N498    1.158   .     T
C497   C533    1.456   .     S
C499   N500    1.157   .     T
C499   C608    1.456   1_455 S
C501   H506    1.111   .     S
C501   C502    1.528   .     S
C501   H507    1.109   .     S
C502   H505    1.110   .     S
C502   H504    1.110   .     S
C502   H503    1.110   .     S
C508   C509    1.529   .     S
C508   H513    1.111   .     S
C508   H514    1.109   .     S
C509   H512    1.110   .     S
C509   H510    1.110   .     S
C509   H511    1.110   .     S
C515   N516    1.157   .     T
C517   N740    1.157   .     S
N518   C739    1.157   1_545 S
C519   C539    1.460   .     S
C519   O563    1.290   .     A
C519   O565    1.292   .     A
C520   C540    1.463   .     S
C520   O566    1.290   .     A
C520   O564    1.293   .     A
C521   C529    1.411   .     A
C521   H553    1.081   .     S
C521   C523    1.406   .     A
C522   H554    1.081   .     S
C522   C524    1.406   .     A
C522   C530    1.411   .     A
C523   H555    1.081   .     S
C523   N561    1.364   .     A
C524   H556    1.081   .     S
C524   N562    1.363   .     A
C525   N561    1.364   .     A
C525   C527    1.406   .     A
C525   H557    1.081   .     S
C526   C528    1.406   .     A
C526   H558    1.081   .     S
C526   N562    1.363   .     A
C527   H559    1.081   .     S
C527   C529    1.411   .     A
C528   H560    1.081   .     S
C528   C530    1.411   .     A
C530   C85     1.515   1_556 S
C531   O567    1.280   .     A
C531   C533    1.438   .     S
C531   O569    1.290   .     A
C532   O568    1.281   .     A
C532   C534    1.437   .     S
C532   O570    1.290   .     A
C534   C607    1.361   .     S
C534   C647    1.456   .     S
C535   H549    1.084   .     S
C535   C545    1.394   .     A
C535   C537    1.384   .     A
C536   H550    1.084   .     S
C536   C546    1.393   .     A
C536   C538    1.384   .     A
C537   C539    1.400   .     A
C537   H551    1.084   .     S
C538   H552    1.084   .     S
C538   C540    1.401   .     A
C539   C541    1.422   .     A
C540   C542    1.423   .     A
C541   C575    1.524   .     S
C541   C543    1.413   .     A
C542   C582    1.523   .     S
C542   C544    1.413   .     A
C543   C589    1.450   .     S
C543   C545    1.408   .     A
C544   C591    1.451   .     S
C544   C546    1.408   .     A
C545   C768    1.464   1_545 S
C546   C767    1.464   .     S
Cu547  Cu548   2.672   .     S
Cu547  O567    1.979   .     S
Cu547  N562    2.007   .     S
Cu547  O566    1.952   .     S
Cu547  O563    1.951   .     S
Cu547  O570    1.980   .     S
Cu548  O569    1.980   .     S
Cu548  O568    1.979   .     S
Cu548  N561    2.007   .     S
Cu548  O565    1.952   .     S
Cu548  O564    1.951   .     S
C571   N572    1.158   .     T
C571   C607    1.456   .     S
C573   N574    1.157   .     T
C575   H580    1.111   .     S
C575   C576    1.528   .     S
C575   H581    1.109   .     S
C576   H579    1.110   .     S
C576   H578    1.110   .     S
C576   H577    1.110   .     S
C582   C583    1.529   .     S
C582   H587    1.111   .     S
C582   H588    1.109   .     S
C583   H586    1.110   .     S
C583   H584    1.110   .     S
C583   H585    1.110   .     S
C589   N590    1.157   .     T
C591   N814    1.157   .     S
N592   C813    1.157   1_545 S
C593   C613    1.460   .     S
C593   O637    1.290   .     A
C593   O639    1.292   .     A
C594   C614    1.463   .     S
C594   O640    1.290   .     A
C594   O638    1.293   .     A
C595   C603    1.411   .     A
C595   H627    1.081   .     S
C595   C597    1.406   .     A
C596   H628    1.081   .     S
C596   C598    1.406   .     A
C596   C604    1.411   .     A
C597   H629    1.081   .     S
C597   N635    1.364   .     A
C598   H630    1.081   .     S
C598   N636    1.363   .     A
C599   N635    1.364   .     A
C599   C601    1.406   .     A
C599   H631    1.081   .     S
C600   C602    1.406   .     A
C600   H632    1.081   .     S
C600   N636    1.363   .     A
C601   H633    1.081   .     S
C601   C603    1.411   .     A
C602   H634    1.081   .     S
C602   C604    1.411   .     A
C604   C159    1.515   1_556 S
C605   O641    1.280   .     A
C605   C607    1.438   .     S
C605   O643    1.290   .     A
C606   O642    1.281   .     A
C606   C608    1.437   .     S
C606   O644    1.290   .     A
C608   C459    1.361   1_655 S
C608   C499    1.456   1_655 S
C609   H623    1.084   .     S
C609   C619    1.394   .     A
C609   C611    1.384   .     A
C610   H624    1.084   .     S
C610   C620    1.393   .     A
C610   C612    1.384   .     A
C611   C613    1.400   .     A
C611   H625    1.084   .     S
C612   H626    1.084   .     S
C612   C614    1.401   .     A
C613   C615    1.422   .     A
C614   C616    1.423   .     A
C615   C649    1.524   .     S
C615   C617    1.413   .     A
C616   C656    1.523   .     S
C616   C618    1.413   .     A
C617   C663    1.450   .     S
C617   C619    1.408   .     A
C618   C665    1.451   .     S
C618   C620    1.408   .     A
C619   C842    1.464   1_545 S
C620   C841    1.464   .     S
Cu621  Cu622   2.672   .     S
Cu621  O641    1.979   .     S
Cu621  N636    2.007   .     S
Cu621  O640    1.952   .     S
Cu621  O637    1.951   .     S
Cu621  O644    1.980   .     S
Cu622  O643    1.980   .     S
Cu622  O642    1.979   .     S
Cu622  N635    2.007   .     S
Cu622  O639    1.952   .     S
Cu622  O638    1.951   .     S
C645   N646    1.158   .     T
C645   C459    1.456   1_655 S
C647   N648    1.157   .     T
C649   H654    1.111   .     S
C649   C650    1.528   .     S
C649   H655    1.109   .     S
C650   H653    1.110   .     S
C650   H652    1.110   .     S
C650   H651    1.110   .     S
C656   C657    1.529   .     S
C656   H661    1.111   .     S
C656   H662    1.109   .     S
C657   H660    1.110   .     S
C657   H658    1.110   .     S
C657   H659    1.110   .     S
C663   N664    1.157   .     T
C665   N888    1.157   .     S
N666   C887    1.157   1_545 S
C667   C687    1.460   .     S
C667   O711    1.290   .     A
C667   O713    1.292   .     A
C668   C688    1.463   .     S
C668   O714    1.290   .     A
C668   O712    1.293   .     A
C669   C677    1.411   .     A
C669   H701    1.081   .     S
C669   C671    1.406   .     A
C670   H702    1.081   .     S
C670   C672    1.406   .     A
C670   C678    1.411   .     A
C671   H703    1.081   .     S
C671   N709    1.364   .     A
C672   H704    1.081   .     S
C672   N710    1.363   .     A
C673   N709    1.364   .     A
C673   C675    1.406   .     A
C673   H705    1.081   .     S
C674   C676    1.406   .     A
C674   H706    1.081   .     S
C674   N710    1.363   .     A
C675   H707    1.081   .     S
C675   C677    1.411   .     A
C676   H708    1.081   .     S
C676   C678    1.411   .     A
C678   C233    1.515   1_556 S
C679   O715    1.280   .     A
C679   C681    1.438   .     S
C679   O717    1.290   .     A
C680   O716    1.281   .     A
C680   C682    1.437   .     S
C680   O718    1.290   .     A
C681   C830    1.361   1_455 S
C681   C867    1.456   1_455 S
C682   C755    1.361   .     S
C682   C795    1.456   .     S
C683   H697    1.084   .     S
C683   C693    1.394   .     A
C683   C685    1.384   .     A
C684   H698    1.084   .     S
C684   C694    1.393   .     A
C684   C686    1.384   .     A
C685   C687    1.400   .     A
C685   H699    1.084   .     S
C686   H700    1.084   .     S
C686   C688    1.401   .     A
C687   C689    1.422   .     A
C688   C690    1.423   .     A
C689   C723    1.524   .     S
C689   C691    1.413   .     A
C690   C730    1.523   .     S
C690   C692    1.413   .     A
C691   C737    1.450   .     S
C691   C693    1.408   .     A
C692   C739    1.451   .     S
C692   C694    1.408   .     A
C694   C471    1.464   1_565 S
Cu695  Cu696   2.672   .     S
Cu695  O715    1.979   .     S
Cu695  N710    2.007   .     S
Cu695  O714    1.952   .     S
Cu695  O711    1.951   .     S
Cu695  O718    1.980   .     S
Cu696  O717    1.980   .     S
Cu696  O716    1.979   .     S
Cu696  N709    2.007   .     S
Cu696  O713    1.952   .     S
Cu696  O712    1.951   .     S
C719   N720    1.158   .     T
C719   C755    1.456   .     S
C721   N722    1.157   .     T
C721   C830    1.456   1_455 S
C723   H728    1.111   .     S
C723   C724    1.528   .     S
C723   H729    1.109   .     S
C724   H727    1.110   .     S
C724   H726    1.110   .     S
C724   H725    1.110   .     S
C730   C731    1.529   .     S
C730   H735    1.111   .     S
C730   H736    1.109   .     S
C731   H734    1.110   .     S
C731   H732    1.110   .     S
C731   H733    1.110   .     S
C737   N738    1.157   .     T
C739   N518    1.157   1_565 S
C741   C761    1.460   .     S
C741   O785    1.290   .     A
C741   O787    1.292   .     A
C742   C762    1.463   .     S
C742   O788    1.290   .     A
C742   O786    1.293   .     A
C743   C751    1.411   .     A
C743   H775    1.081   .     S
C743   C745    1.406   .     A
C744   H776    1.081   .     S
C744   C746    1.406   .     A
C744   C752    1.411   .     A
C745   H777    1.081   .     S
C745   N783    1.364   .     A
C746   H778    1.081   .     S
C746   N784    1.363   .     A
C747   N783    1.364   .     A
C747   C749    1.406   .     A
C747   H779    1.081   .     S
C748   C750    1.406   .     A
C748   H780    1.081   .     S
C748   N784    1.363   .     A
C749   H781    1.081   .     S
C749   C751    1.411   .     A
C750   H782    1.081   .     S
C750   C752    1.411   .     A
C752   C307    1.515   1_556 S
C753   O789    1.280   .     A
C753   C755    1.438   .     S
C753   O791    1.290   .     A
C754   O790    1.281   .     A
C754   C756    1.437   .     S
C754   O792    1.290   .     A
C756   C829    1.361   .     S
C756   C869    1.456   .     S
C757   H771    1.084   .     S
C757   C767    1.394   .     A
C757   C759    1.384   .     A
C758   H772    1.084   .     S
C758   C768    1.393   .     A
C758   C760    1.384   .     A
C759   C761    1.400   .     A
C759   H773    1.084   .     S
C760   H774    1.084   .     S
C760   C762    1.401   .     A
C761   C763    1.422   .     A
C762   C764    1.423   .     A
C763   C797    1.524   .     S
C763   C765    1.413   .     A
C764   C804    1.523   .     S
C764   C766    1.413   .     A
C765   C811    1.450   .     S
C765   C767    1.408   .     A
C766   C813    1.451   .     S
C766   C768    1.408   .     A
C768   C545    1.464   1_565 S
Cu769  Cu770   2.672   .     S
Cu769  O789    1.979   .     S
Cu769  N784    2.007   .     S
Cu769  O788    1.952   .     S
Cu769  O785    1.951   .     S
Cu769  O792    1.980   .     S
Cu770  O791    1.980   .     S
Cu770  O790    1.979   .     S
Cu770  N783    2.007   .     S
Cu770  O787    1.952   .     S
Cu770  O786    1.951   .     S
C793   N794    1.158   .     T
C793   C829    1.456   .     S
C795   N796    1.157   .     T
C797   H802    1.111   .     S
C797   C798    1.528   .     S
C797   H803    1.109   .     S
C798   H801    1.110   .     S
C798   H800    1.110   .     S
C798   H799    1.110   .     S
C804   C805    1.529   .     S
C804   H809    1.111   .     S
C804   H810    1.109   .     S
C805   H808    1.110   .     S
C805   H806    1.110   .     S
C805   H807    1.110   .     S
C811   N812    1.157   .     T
C813   N592    1.157   1_565 S
C815   C835    1.460   .     S
C815   O859    1.290   .     A
C815   O861    1.292   .     A
C816   C836    1.463   .     S
C816   O862    1.290   .     A
C816   O860    1.293   .     A
C817   C825    1.411   .     A
C817   H849    1.081   .     S
C817   C819    1.406   .     A
C818   H850    1.081   .     S
C818   C820    1.406   .     A
C818   C826    1.411   .     A
C819   H851    1.081   .     S
C819   N857    1.364   .     A
C820   H852    1.081   .     S
C820   N858    1.363   .     A
C821   N857    1.364   .     A
C821   C823    1.406   .     A
C821   H853    1.081   .     S
C822   C824    1.406   .     A
C822   H854    1.081   .     S
C822   N858    1.363   .     A
C823   H855    1.081   .     S
C823   C825    1.411   .     A
C824   H856    1.081   .     S
C824   C826    1.411   .     A
C826   C381    1.515   1_556 S
C827   O863    1.280   .     A
C827   C829    1.438   .     S
C827   O865    1.290   .     A
C828   O864    1.281   .     A
C828   C830    1.437   .     S
C828   O866    1.290   .     A
C830   C681    1.361   1_655 S
C830   C721    1.456   1_655 S
C831   H845    1.084   .     S
C831   C841    1.394   .     A
C831   C833    1.384   .     A
C832   H846    1.084   .     S
C832   C842    1.393   .     A
C832   C834    1.384   .     A
C833   C835    1.400   .     A
C833   H847    1.084   .     S
C834   H848    1.084   .     S
C834   C836    1.401   .     A
C835   C837    1.422   .     A
C836   C838    1.423   .     A
C837   C871    1.524   .     S
C837   C839    1.413   .     A
C838   C878    1.523   .     S
C838   C840    1.413   .     A
C839   C885    1.450   .     S
C839   C841    1.408   .     A
C840   C887    1.451   .     S
C840   C842    1.408   .     A
C842   C619    1.464   1_565 S
Cu843  Cu844   2.672   .     S
Cu843  O863    1.979   .     S
Cu843  N858    2.007   .     S
Cu843  O862    1.952   .     S
Cu843  O859    1.951   .     S
Cu843  O866    1.980   .     S
Cu844  O865    1.980   .     S
Cu844  O864    1.979   .     S
Cu844  N857    2.007   .     S
Cu844  O861    1.952   .     S
Cu844  O860    1.951   .     S
C867   N868    1.158   .     T
C867   C681    1.456   1_655 S
C869   N870    1.157   .     T
C871   H876    1.111   .     S
C871   C872    1.528   .     S
C871   H877    1.109   .     S
C872   H875    1.110   .     S
C872   H874    1.110   .     S
C872   H873    1.110   .     S
C878   C879    1.529   .     S
C878   H883    1.111   .     S
C878   H884    1.109   .     S
C879   H882    1.110   .     S
C879   H880    1.110   .     S
C879   H881    1.110   .     S
C885   N886    1.157   .     T
C887   N666    1.157   1_565 S
