data_str_m3_o10_o18_pcu_sym.60
_audit_creation_date              2020-01-03
_audit_creation_method            'Materials Studio'
_symmetry_space_group_name_H-M    'P1'
_symmetry_Int_Tables_number       1
_symmetry_cell_setting            triclinic
loop_
_symmetry_equiv_pos_as_xyz
  x,y,z
_cell_length_a                    23.5026
_cell_length_b                    25.9373
_cell_length_c                    27.3772
_cell_angle_alpha                 93.6872
_cell_angle_beta                  92.4462
_cell_angle_gamma                 94.3237
loop_
_atom_site_label
_atom_site_type_symbol
_atom_site_fract_x
_atom_site_fract_y
_atom_site_fract_z
_atom_site_U_iso_or_equiv
_atom_site_adp_type
_atom_site_occupancy
O1     O     0.29719   0.24631   0.25309   0.00000  Uiso   1.00
O2     O     0.03614   0.08702   0.24690   0.00000  Uiso   1.00
O3     O     0.05822   0.23702   0.24501   0.00000  Uiso   1.00
O4     O     0.27512   0.09632   0.25498   0.00000  Uiso   1.00
C5     C     0.01436   0.26449   0.24619   0.00000  Uiso   1.00
C6     C     0.31790   0.06852   0.24829   0.00000  Uiso   1.00
O7     O     0.30328   0.17397   0.32247   0.00000  Uiso   1.00
O8     O     0.03005   0.15937   0.17753   0.00000  Uiso   1.00
O9     O     0.06431   0.16467   0.31439   0.00000  Uiso   1.00
O10    O     0.26902   0.16866   0.18561   0.00000  Uiso   1.00
C11    C     0.02077   0.17116   0.34138   0.00000  Uiso   1.00
C12    C     0.31245   0.16157   0.15878   0.00000  Uiso   1.00
Zn13   Zn    0.27033   0.17287   0.25539   0.00000  Uiso   1.00
Zn14   Zn    0.06300   0.16046   0.24460   0.00000  Uiso   1.00
C15    C     0.03025   0.17554   0.39468   0.00000  Uiso   1.00
C16    C     0.30163   0.15110   0.10620   0.00000  Uiso   1.00
C17    C     0.01436   0.21269   0.47592   0.00000  Uiso   1.00
C18    C     0.30744   0.09707   0.03147   0.00000  Uiso   1.00
C19    C     0.32940   0.20330   0.42684   0.00000  Uiso   1.00
C20    C     0.32954   0.11352   0.07869   0.00000  Uiso   1.00
C21    C     0.07891   0.15462   0.41301   0.00000  Uiso   1.00
C22    C     0.25464   0.17270   0.08598   0.00000  Uiso   1.00
C23    C     0.09797   0.16398   0.46191   0.00000  Uiso   1.00
C24    C     0.22783   0.15168   0.04203   0.00000  Uiso   1.00
C25    C     0.06596   0.19515   0.49309   0.00000  Uiso   1.00
C26    C     0.25611   0.11473   0.01369   0.00000  Uiso   1.00
C27    C     0.15011   0.14618   0.47948   0.00000  Uiso   1.00
C28    C     0.17307   0.16542   0.02638   0.00000  Uiso   1.00
C29    C     0.13946   0.19583   0.05694   0.00000  Uiso   1.00
C30    C     0.17981   0.10962   0.45185   0.00000  Uiso   1.00
C31    C     0.08645   0.20960   0.04069   0.00000  Uiso   1.00
C32    C     0.23186   0.09431   0.46879   0.00000  Uiso   1.00
H33    H     0.06193   0.23268   0.06527   0.00000  Uiso   1.00
H34    H     0.25280   0.06568   0.44690   0.00000  Uiso   1.00
H35    H     0.23809   0.20435   0.10698   0.00000  Uiso   1.00
H36    H     0.10369   0.13399   0.38724   0.00000  Uiso   1.00
H37    H     0.32254   0.23543   0.00024   0.00000  Uiso   1.00
H38    H     0.32853   0.06844   0.00970   0.00000  Uiso   1.00
H39    H     0.15171   0.20803   0.09451   0.00000  Uiso   1.00
H40    H     0.16294   0.09015   0.41778   0.00000  Uiso   1.00
C41    C     0.02033   0.31774   0.23743   0.00000  Uiso   1.00
C42    C     0.30848   0.01405   0.24354   0.00000  Uiso   1.00
N43    N     0.14695   0.15216   0.23739   0.00000  Uiso   1.00
N44    N     0.18638   0.18117   0.26260   0.00000  Uiso   1.00
H45    H     0.16248   0.12460   0.21386   0.00000  Uiso   1.00
H46    H     0.17085   0.20875   0.28612   0.00000  Uiso   1.00
N47    N     0.04418   0.08999   0.09964   0.00000  Uiso   1.00
H48    H     0.07879   0.11788   0.10302   0.00000  Uiso   1.00
H49    H     0.05617   0.05990   0.07593   0.00000  Uiso   1.00
N50    N     0.27797   0.22467   0.41063   0.00000  Uiso   1.00
H51    H     0.28738   0.24960   0.38304   0.00000  Uiso   1.00
H52    H     0.24872   0.19440   0.39668   0.00000  Uiso   1.00
N53    N     0.07532   0.00428   0.22295   0.00000  Uiso   1.00
O54    O     0.11869   0.00874   0.25439   0.00000  Uiso   1.00
O55    O     0.08218   0.01663   0.17816   0.00000  Uiso   1.00
N56    N     0.25083   0.32675   0.24925   0.00000  Uiso   1.00
O57    O     0.21989   0.30646   0.21127   0.00000  Uiso   1.00
O58    O     0.22867   0.33074   0.29194   0.00000  Uiso   1.00
O59    O     0.63052   0.24631   0.25309   0.00000  Uiso   1.00
O60    O     0.36948   0.08702   0.24690   0.00000  Uiso   1.00
O61    O     0.39155   0.23702   0.24501   0.00000  Uiso   1.00
O62    O     0.60845   0.09632   0.25498   0.00000  Uiso   1.00
C63    C     0.34769   0.26449   0.24619   0.00000  Uiso   1.00
C64    C     0.65123   0.06852   0.24829   0.00000  Uiso   1.00
O65    O     0.63662   0.17397   0.32247   0.00000  Uiso   1.00
O66    O     0.36338   0.15937   0.17753   0.00000  Uiso   1.00
O67    O     0.39764   0.16467   0.31439   0.00000  Uiso   1.00
O68    O     0.60236   0.16866   0.18561   0.00000  Uiso   1.00
C69    C     0.35410   0.17116   0.34138   0.00000  Uiso   1.00
C70    C     0.64578   0.16157   0.15878   0.00000  Uiso   1.00
Zn71   Zn    0.60366   0.17287   0.25539   0.00000  Uiso   1.00
Zn72   Zn    0.39634   0.16046   0.24460   0.00000  Uiso   1.00
C73    C     0.36358   0.17554   0.39468   0.00000  Uiso   1.00
C74    C     0.63497   0.15110   0.10620   0.00000  Uiso   1.00
C75    C     0.34769   0.21269   0.47592   0.00000  Uiso   1.00
C76    C     0.64078   0.09707   0.03147   0.00000  Uiso   1.00
C77    C     0.66274   0.20330   0.42684   0.00000  Uiso   1.00
C78    C     0.66288   0.11352   0.07869   0.00000  Uiso   1.00
C79    C     0.41225   0.15462   0.41301   0.00000  Uiso   1.00
C80    C     0.58797   0.17270   0.08598   0.00000  Uiso   1.00
C81    C     0.43130   0.16398   0.46191   0.00000  Uiso   1.00
C82    C     0.56116   0.15168   0.04203   0.00000  Uiso   1.00
C83    C     0.39930   0.19515   0.49309   0.00000  Uiso   1.00
C84    C     0.58945   0.11473   0.01369   0.00000  Uiso   1.00
C85    C     0.48344   0.14618   0.47948   0.00000  Uiso   1.00
C86    C     0.50641   0.16542   0.02638   0.00000  Uiso   1.00
C87    C     0.47280   0.19583   0.05694   0.00000  Uiso   1.00
C88    C     0.51315   0.10962   0.45185   0.00000  Uiso   1.00
C89    C     0.41979   0.20960   0.04069   0.00000  Uiso   1.00
C90    C     0.56519   0.09431   0.46879   0.00000  Uiso   1.00
H91    H     0.39526   0.23268   0.06527   0.00000  Uiso   1.00
H92    H     0.58613   0.06568   0.44690   0.00000  Uiso   1.00
H93    H     0.57143   0.20435   0.10698   0.00000  Uiso   1.00
H94    H     0.43702   0.13399   0.38724   0.00000  Uiso   1.00
H95    H     0.65587   0.23543   0.00024   0.00000  Uiso   1.00
H96    H     0.66186   0.06844   0.00970   0.00000  Uiso   1.00
H97    H     0.48504   0.20803   0.09451   0.00000  Uiso   1.00
H98    H     0.49627   0.09015   0.41778   0.00000  Uiso   1.00
C99    C     0.35366   0.31774   0.23743   0.00000  Uiso   1.00
C100   C     0.64181   0.01405   0.24354   0.00000  Uiso   1.00
N101   N     0.48029   0.15216   0.23739   0.00000  Uiso   1.00
N102   N     0.51971   0.18117   0.26260   0.00000  Uiso   1.00
H103   H     0.49582   0.12460   0.21386   0.00000  Uiso   1.00
H104   H     0.50418   0.20875   0.28612   0.00000  Uiso   1.00
N105   N     0.37751   0.08999   0.09964   0.00000  Uiso   1.00
H106   H     0.41213   0.11788   0.10302   0.00000  Uiso   1.00
H107   H     0.38950   0.05990   0.07593   0.00000  Uiso   1.00
N108   N     0.61130   0.22467   0.41063   0.00000  Uiso   1.00
H109   H     0.62072   0.24960   0.38304   0.00000  Uiso   1.00
H110   H     0.58205   0.19440   0.39668   0.00000  Uiso   1.00
N111   N     0.40865   0.00428   0.22295   0.00000  Uiso   1.00
O112   O     0.45203   0.00874   0.25439   0.00000  Uiso   1.00
O113   O     0.41551   0.01663   0.17816   0.00000  Uiso   1.00
N114   N     0.58417   0.32675   0.24925   0.00000  Uiso   1.00
O115   O     0.55323   0.30646   0.21127   0.00000  Uiso   1.00
O116   O     0.56200   0.33074   0.29194   0.00000  Uiso   1.00
O117   O     0.96386   0.24631   0.25309   0.00000  Uiso   1.00
O118   O     0.70281   0.08702   0.24690   0.00000  Uiso   1.00
O119   O     0.72488   0.23702   0.24501   0.00000  Uiso   1.00
O120   O     0.94178   0.09632   0.25498   0.00000  Uiso   1.00
C121   C     0.68102   0.26449   0.24619   0.00000  Uiso   1.00
C122   C     0.98457   0.06852   0.24829   0.00000  Uiso   1.00
O123   O     0.96995   0.17397   0.32247   0.00000  Uiso   1.00
O124   O     0.69672   0.15937   0.17753   0.00000  Uiso   1.00
O125   O     0.73098   0.16467   0.31439   0.00000  Uiso   1.00
O126   O     0.93569   0.16866   0.18561   0.00000  Uiso   1.00
C127   C     0.68743   0.17116   0.34138   0.00000  Uiso   1.00
C128   C     0.97911   0.16157   0.15878   0.00000  Uiso   1.00
Zn129  Zn    0.93700   0.17287   0.25539   0.00000  Uiso   1.00
Zn130  Zn    0.72967   0.16046   0.24460   0.00000  Uiso   1.00
C131   C     0.69692   0.17554   0.39468   0.00000  Uiso   1.00
C132   C     0.96830   0.15110   0.10620   0.00000  Uiso   1.00
C133   C     0.68102   0.21269   0.47592   0.00000  Uiso   1.00
C134   C     0.97411   0.09707   0.03147   0.00000  Uiso   1.00
C135   C     0.99607   0.20330   0.42684   0.00000  Uiso   1.00
C136   C     0.99621   0.11352   0.07869   0.00000  Uiso   1.00
C137   C     0.74558   0.15462   0.41301   0.00000  Uiso   1.00
C138   C     0.92130   0.17270   0.08598   0.00000  Uiso   1.00
C139   C     0.76464   0.16398   0.46191   0.00000  Uiso   1.00
C140   C     0.89449   0.15168   0.04203   0.00000  Uiso   1.00
C141   C     0.73263   0.19515   0.49309   0.00000  Uiso   1.00
C142   C     0.92278   0.11473   0.01369   0.00000  Uiso   1.00
C143   C     0.81677   0.14618   0.47948   0.00000  Uiso   1.00
C144   C     0.83974   0.16542   0.02638   0.00000  Uiso   1.00
C145   C     0.80613   0.19583   0.05694   0.00000  Uiso   1.00
C146   C     0.84648   0.10962   0.45185   0.00000  Uiso   1.00
C147   C     0.75312   0.20960   0.04069   0.00000  Uiso   1.00
C148   C     0.89853   0.09431   0.46879   0.00000  Uiso   1.00
H149   H     0.72860   0.23268   0.06527   0.00000  Uiso   1.00
H150   H     0.91946   0.06568   0.44690   0.00000  Uiso   1.00
H151   H     0.90476   0.20435   0.10698   0.00000  Uiso   1.00
H152   H     0.77036   0.13399   0.38724   0.00000  Uiso   1.00
H153   H     0.98920   0.23543   0.00024   0.00000  Uiso   1.00
H154   H     0.99520   0.06844   0.00970   0.00000  Uiso   1.00
H155   H     0.81838   0.20803   0.09451   0.00000  Uiso   1.00
H156   H     0.82960   0.09015   0.41778   0.00000  Uiso   1.00
C157   C     0.68699   0.31774   0.23743   0.00000  Uiso   1.00
C158   C     0.97515   0.01405   0.24354   0.00000  Uiso   1.00
N159   N     0.81362   0.15216   0.23739   0.00000  Uiso   1.00
N160   N     0.85305   0.18117   0.26260   0.00000  Uiso   1.00
H161   H     0.82915   0.12460   0.21386   0.00000  Uiso   1.00
H162   H     0.83752   0.20875   0.28612   0.00000  Uiso   1.00
N163   N     0.71084   0.08999   0.09964   0.00000  Uiso   1.00
H164   H     0.74546   0.11788   0.10302   0.00000  Uiso   1.00
H165   H     0.72283   0.05990   0.07593   0.00000  Uiso   1.00
N166   N     0.94463   0.22467   0.41063   0.00000  Uiso   1.00
H167   H     0.95405   0.24960   0.38304   0.00000  Uiso   1.00
H168   H     0.91539   0.19440   0.39668   0.00000  Uiso   1.00
N169   N     0.74199   0.00428   0.22295   0.00000  Uiso   1.00
O170   O     0.78536   0.00874   0.25439   0.00000  Uiso   1.00
O171   O     0.74885   0.01663   0.17816   0.00000  Uiso   1.00
N172   N     0.91750   0.32675   0.24925   0.00000  Uiso   1.00
O173   O     0.88656   0.30646   0.21127   0.00000  Uiso   1.00
O174   O     0.89533   0.33074   0.29194   0.00000  Uiso   1.00
O175   O     0.29719   0.57964   0.25309   0.00000  Uiso   1.00
O176   O     0.03614   0.42036   0.24690   0.00000  Uiso   1.00
O177   O     0.05822   0.57035   0.24501   0.00000  Uiso   1.00
O178   O     0.27512   0.42965   0.25498   0.00000  Uiso   1.00
C179   C     0.01436   0.59782   0.24619   0.00000  Uiso   1.00
C180   C     0.31790   0.40186   0.24829   0.00000  Uiso   1.00
O181   O     0.30328   0.50730   0.32247   0.00000  Uiso   1.00
O182   O     0.03005   0.49270   0.17753   0.00000  Uiso   1.00
O183   O     0.06431   0.49801   0.31439   0.00000  Uiso   1.00
O184   O     0.26902   0.50199   0.18561   0.00000  Uiso   1.00
C185   C     0.02077   0.50450   0.34138   0.00000  Uiso   1.00
C186   C     0.31245   0.49490   0.15878   0.00000  Uiso   1.00
Zn187  Zn    0.27033   0.50621   0.25539   0.00000  Uiso   1.00
Zn188  Zn    0.06300   0.49379   0.24460   0.00000  Uiso   1.00
C189   C     0.03025   0.50888   0.39468   0.00000  Uiso   1.00
C190   C     0.30163   0.48443   0.10620   0.00000  Uiso   1.00
C191   C     0.01436   0.54602   0.47592   0.00000  Uiso   1.00
C192   C     0.30744   0.43040   0.03147   0.00000  Uiso   1.00
C193   C     0.32940   0.53663   0.42684   0.00000  Uiso   1.00
C194   C     0.32954   0.44685   0.07869   0.00000  Uiso   1.00
C195   C     0.07891   0.48795   0.41301   0.00000  Uiso   1.00
C196   C     0.25464   0.50604   0.08598   0.00000  Uiso   1.00
C197   C     0.09797   0.49731   0.46191   0.00000  Uiso   1.00
C198   C     0.22783   0.48502   0.04203   0.00000  Uiso   1.00
C199   C     0.06596   0.52848   0.49309   0.00000  Uiso   1.00
C200   C     0.25611   0.44806   0.01369   0.00000  Uiso   1.00
C201   C     0.15011   0.47951   0.47948   0.00000  Uiso   1.00
C202   C     0.17307   0.49875   0.02638   0.00000  Uiso   1.00
C203   C     0.13946   0.52916   0.05694   0.00000  Uiso   1.00
C204   C     0.17981   0.44295   0.45185   0.00000  Uiso   1.00
C205   C     0.08645   0.54294   0.04069   0.00000  Uiso   1.00
C206   C     0.23186   0.42764   0.46879   0.00000  Uiso   1.00
H207   H     0.06193   0.56601   0.06527   0.00000  Uiso   1.00
H208   H     0.25280   0.39901   0.44690   0.00000  Uiso   1.00
H209   H     0.23809   0.53769   0.10698   0.00000  Uiso   1.00
H210   H     0.10369   0.46732   0.38724   0.00000  Uiso   1.00
H211   H     0.32254   0.56877   0.00024   0.00000  Uiso   1.00
H212   H     0.32853   0.40178   0.00970   0.00000  Uiso   1.00
H213   H     0.15171   0.54136   0.09451   0.00000  Uiso   1.00
H214   H     0.16294   0.42349   0.41778   0.00000  Uiso   1.00
C215   C     0.02033   0.65107   0.23743   0.00000  Uiso   1.00
C216   C     0.30848   0.34739   0.24354   0.00000  Uiso   1.00
N217   N     0.14695   0.48550   0.23739   0.00000  Uiso   1.00
N218   N     0.18638   0.51450   0.26260   0.00000  Uiso   1.00
H219   H     0.16248   0.45793   0.21386   0.00000  Uiso   1.00
H220   H     0.17085   0.54208   0.28612   0.00000  Uiso   1.00
N221   N     0.04418   0.42332   0.09964   0.00000  Uiso   1.00
H222   H     0.07879   0.45121   0.10302   0.00000  Uiso   1.00
H223   H     0.05617   0.39323   0.07593   0.00000  Uiso   1.00
N224   N     0.27797   0.55800   0.41063   0.00000  Uiso   1.00
H225   H     0.28738   0.58293   0.38304   0.00000  Uiso   1.00
H226   H     0.24872   0.52773   0.39668   0.00000  Uiso   1.00
N227   N     0.07532   0.33762   0.22295   0.00000  Uiso   1.00
O228   O     0.11869   0.34207   0.25439   0.00000  Uiso   1.00
O229   O     0.08218   0.34996   0.17816   0.00000  Uiso   1.00
N230   N     0.25083   0.66009   0.24925   0.00000  Uiso   1.00
O231   O     0.21989   0.63979   0.21127   0.00000  Uiso   1.00
O232   O     0.22867   0.66408   0.29194   0.00000  Uiso   1.00
O233   O     0.63052   0.57964   0.25309   0.00000  Uiso   1.00
O234   O     0.36948   0.42036   0.24690   0.00000  Uiso   1.00
O235   O     0.39155   0.57035   0.24501   0.00000  Uiso   1.00
O236   O     0.60845   0.42965   0.25498   0.00000  Uiso   1.00
C237   C     0.34769   0.59782   0.24619   0.00000  Uiso   1.00
C238   C     0.65123   0.40186   0.24829   0.00000  Uiso   1.00
O239   O     0.63662   0.50730   0.32247   0.00000  Uiso   1.00
O240   O     0.36338   0.49270   0.17753   0.00000  Uiso   1.00
O241   O     0.39764   0.49801   0.31439   0.00000  Uiso   1.00
O242   O     0.60236   0.50199   0.18561   0.00000  Uiso   1.00
C243   C     0.35410   0.50450   0.34138   0.00000  Uiso   1.00
C244   C     0.64578   0.49490   0.15878   0.00000  Uiso   1.00
Zn245  Zn    0.60366   0.50621   0.25539   0.00000  Uiso   1.00
Zn246  Zn    0.39634   0.49379   0.24460   0.00000  Uiso   1.00
C247   C     0.36358   0.50888   0.39468   0.00000  Uiso   1.00
C248   C     0.63497   0.48443   0.10620   0.00000  Uiso   1.00
C249   C     0.34769   0.54602   0.47592   0.00000  Uiso   1.00
C250   C     0.64078   0.43040   0.03147   0.00000  Uiso   1.00
C251   C     0.66274   0.53663   0.42684   0.00000  Uiso   1.00
C252   C     0.66288   0.44685   0.07869   0.00000  Uiso   1.00
C253   C     0.41225   0.48795   0.41301   0.00000  Uiso   1.00
C254   C     0.58797   0.50604   0.08598   0.00000  Uiso   1.00
C255   C     0.43130   0.49731   0.46191   0.00000  Uiso   1.00
C256   C     0.56116   0.48502   0.04203   0.00000  Uiso   1.00
C257   C     0.39930   0.52848   0.49309   0.00000  Uiso   1.00
C258   C     0.58945   0.44806   0.01369   0.00000  Uiso   1.00
C259   C     0.48344   0.47951   0.47948   0.00000  Uiso   1.00
C260   C     0.50641   0.49875   0.02638   0.00000  Uiso   1.00
C261   C     0.47280   0.52916   0.05694   0.00000  Uiso   1.00
C262   C     0.51315   0.44295   0.45185   0.00000  Uiso   1.00
C263   C     0.41979   0.54294   0.04069   0.00000  Uiso   1.00
C264   C     0.56519   0.42764   0.46879   0.00000  Uiso   1.00
H265   H     0.39526   0.56601   0.06527   0.00000  Uiso   1.00
H266   H     0.58613   0.39901   0.44690   0.00000  Uiso   1.00
H267   H     0.57143   0.53769   0.10698   0.00000  Uiso   1.00
H268   H     0.43702   0.46732   0.38724   0.00000  Uiso   1.00
H269   H     0.65587   0.56877   0.00024   0.00000  Uiso   1.00
H270   H     0.66186   0.40178   0.00970   0.00000  Uiso   1.00
H271   H     0.48504   0.54136   0.09451   0.00000  Uiso   1.00
H272   H     0.49627   0.42349   0.41778   0.00000  Uiso   1.00
C273   C     0.35366   0.65107   0.23743   0.00000  Uiso   1.00
C274   C     0.64181   0.34739   0.24354   0.00000  Uiso   1.00
N275   N     0.48029   0.48550   0.23739   0.00000  Uiso   1.00
N276   N     0.51971   0.51450   0.26260   0.00000  Uiso   1.00
H277   H     0.49582   0.45793   0.21386   0.00000  Uiso   1.00
H278   H     0.50418   0.54208   0.28612   0.00000  Uiso   1.00
N279   N     0.37751   0.42332   0.09964   0.00000  Uiso   1.00
H280   H     0.41213   0.45121   0.10302   0.00000  Uiso   1.00
H281   H     0.38950   0.39323   0.07593   0.00000  Uiso   1.00
N282   N     0.61130   0.55800   0.41063   0.00000  Uiso   1.00
H283   H     0.62072   0.58293   0.38304   0.00000  Uiso   1.00
H284   H     0.58205   0.52773   0.39668   0.00000  Uiso   1.00
N285   N     0.40865   0.33762   0.22295   0.00000  Uiso   1.00
O286   O     0.45203   0.34207   0.25439   0.00000  Uiso   1.00
O287   O     0.41551   0.34996   0.17816   0.00000  Uiso   1.00
N288   N     0.58417   0.66009   0.24925   0.00000  Uiso   1.00
O289   O     0.55323   0.63979   0.21127   0.00000  Uiso   1.00
O290   O     0.56200   0.66408   0.29194   0.00000  Uiso   1.00
O291   O     0.96386   0.57964   0.25309   0.00000  Uiso   1.00
O292   O     0.70281   0.42036   0.24690   0.00000  Uiso   1.00
O293   O     0.72488   0.57035   0.24501   0.00000  Uiso   1.00
O294   O     0.94178   0.42965   0.25498   0.00000  Uiso   1.00
C295   C     0.68102   0.59782   0.24619   0.00000  Uiso   1.00
C296   C     0.98457   0.40186   0.24829   0.00000  Uiso   1.00
O297   O     0.96995   0.50730   0.32247   0.00000  Uiso   1.00
O298   O     0.69672   0.49270   0.17753   0.00000  Uiso   1.00
O299   O     0.73098   0.49801   0.31439   0.00000  Uiso   1.00
O300   O     0.93569   0.50199   0.18561   0.00000  Uiso   1.00
C301   C     0.68743   0.50450   0.34138   0.00000  Uiso   1.00
C302   C     0.97911   0.49490   0.15878   0.00000  Uiso   1.00
Zn303  Zn    0.93700   0.50621   0.25539   0.00000  Uiso   1.00
Zn304  Zn    0.72967   0.49379   0.24460   0.00000  Uiso   1.00
C305   C     0.69692   0.50888   0.39468   0.00000  Uiso   1.00
C306   C     0.96830   0.48443   0.10620   0.00000  Uiso   1.00
C307   C     0.68102   0.54602   0.47592   0.00000  Uiso   1.00
C308   C     0.97411   0.43040   0.03147   0.00000  Uiso   1.00
C309   C     0.99607   0.53663   0.42684   0.00000  Uiso   1.00
C310   C     0.99621   0.44685   0.07869   0.00000  Uiso   1.00
C311   C     0.74558   0.48795   0.41301   0.00000  Uiso   1.00
C312   C     0.92130   0.50604   0.08598   0.00000  Uiso   1.00
C313   C     0.76464   0.49731   0.46191   0.00000  Uiso   1.00
C314   C     0.89449   0.48502   0.04203   0.00000  Uiso   1.00
C315   C     0.73263   0.52848   0.49309   0.00000  Uiso   1.00
C316   C     0.92278   0.44806   0.01369   0.00000  Uiso   1.00
C317   C     0.81677   0.47951   0.47948   0.00000  Uiso   1.00
C318   C     0.83974   0.49875   0.02638   0.00000  Uiso   1.00
C319   C     0.80613   0.52916   0.05694   0.00000  Uiso   1.00
C320   C     0.84648   0.44295   0.45185   0.00000  Uiso   1.00
C321   C     0.75312   0.54294   0.04069   0.00000  Uiso   1.00
C322   C     0.89853   0.42764   0.46879   0.00000  Uiso   1.00
H323   H     0.72860   0.56601   0.06527   0.00000  Uiso   1.00
H324   H     0.91946   0.39901   0.44690   0.00000  Uiso   1.00
H325   H     0.90476   0.53769   0.10698   0.00000  Uiso   1.00
H326   H     0.77036   0.46732   0.38724   0.00000  Uiso   1.00
H327   H     0.98920   0.56877   0.00024   0.00000  Uiso   1.00
H328   H     0.99520   0.40178   0.00970   0.00000  Uiso   1.00
H329   H     0.81838   0.54136   0.09451   0.00000  Uiso   1.00
H330   H     0.82960   0.42349   0.41778   0.00000  Uiso   1.00
C331   C     0.68699   0.65107   0.23743   0.00000  Uiso   1.00
C332   C     0.97515   0.34739   0.24354   0.00000  Uiso   1.00
N333   N     0.81362   0.48550   0.23739   0.00000  Uiso   1.00
N334   N     0.85305   0.51450   0.26260   0.00000  Uiso   1.00
H335   H     0.82915   0.45793   0.21386   0.00000  Uiso   1.00
H336   H     0.83752   0.54208   0.28612   0.00000  Uiso   1.00
N337   N     0.71084   0.42332   0.09964   0.00000  Uiso   1.00
H338   H     0.74546   0.45121   0.10302   0.00000  Uiso   1.00
H339   H     0.72283   0.39323   0.07593   0.00000  Uiso   1.00
N340   N     0.94463   0.55800   0.41063   0.00000  Uiso   1.00
H341   H     0.95405   0.58293   0.38304   0.00000  Uiso   1.00
H342   H     0.91539   0.52773   0.39668   0.00000  Uiso   1.00
N343   N     0.74199   0.33762   0.22295   0.00000  Uiso   1.00
O344   O     0.78536   0.34207   0.25439   0.00000  Uiso   1.00
O345   O     0.74885   0.34996   0.17816   0.00000  Uiso   1.00
N346   N     0.91750   0.66009   0.24925   0.00000  Uiso   1.00
O347   O     0.88656   0.63979   0.21127   0.00000  Uiso   1.00
O348   O     0.89533   0.66408   0.29194   0.00000  Uiso   1.00
O349   O     0.29719   0.91298   0.25309   0.00000  Uiso   1.00
O350   O     0.03614   0.75369   0.24690   0.00000  Uiso   1.00
O351   O     0.05822   0.90368   0.24501   0.00000  Uiso   1.00
O352   O     0.27512   0.76298   0.25498   0.00000  Uiso   1.00
C353   C     0.01436   0.93116   0.24619   0.00000  Uiso   1.00
C354   C     0.31790   0.73519   0.24829   0.00000  Uiso   1.00
O355   O     0.30328   0.84063   0.32247   0.00000  Uiso   1.00
O356   O     0.03005   0.82603   0.17753   0.00000  Uiso   1.00
O357   O     0.06431   0.83134   0.31439   0.00000  Uiso   1.00
O358   O     0.26902   0.83533   0.18561   0.00000  Uiso   1.00
C359   C     0.02077   0.83783   0.34138   0.00000  Uiso   1.00
C360   C     0.31245   0.82823   0.15878   0.00000  Uiso   1.00
Zn361  Zn    0.27033   0.83954   0.25539   0.00000  Uiso   1.00
Zn362  Zn    0.06300   0.82713   0.24460   0.00000  Uiso   1.00
C363   C     0.03025   0.84221   0.39468   0.00000  Uiso   1.00
C364   C     0.30163   0.81776   0.10620   0.00000  Uiso   1.00
C365   C     0.01436   0.87936   0.47592   0.00000  Uiso   1.00
C366   C     0.30744   0.76373   0.03147   0.00000  Uiso   1.00
C367   C     0.32940   0.86996   0.42684   0.00000  Uiso   1.00
C368   C     0.32954   0.78019   0.07869   0.00000  Uiso   1.00
C369   C     0.07891   0.82128   0.41301   0.00000  Uiso   1.00
C370   C     0.25464   0.83937   0.08598   0.00000  Uiso   1.00
C371   C     0.09797   0.83065   0.46191   0.00000  Uiso   1.00
C372   C     0.22783   0.81835   0.04203   0.00000  Uiso   1.00
C373   C     0.06596   0.86182   0.49309   0.00000  Uiso   1.00
C374   C     0.25611   0.78139   0.01369   0.00000  Uiso   1.00
C375   C     0.15011   0.81284   0.47948   0.00000  Uiso   1.00
C376   C     0.17307   0.83208   0.02638   0.00000  Uiso   1.00
C377   C     0.13946   0.86249   0.05694   0.00000  Uiso   1.00
C378   C     0.17981   0.77628   0.45185   0.00000  Uiso   1.00
C379   C     0.08645   0.87627   0.04069   0.00000  Uiso   1.00
C380   C     0.23186   0.76098   0.46879   0.00000  Uiso   1.00
H381   H     0.06193   0.89934   0.06527   0.00000  Uiso   1.00
H382   H     0.25280   0.73234   0.44690   0.00000  Uiso   1.00
H383   H     0.23809   0.87102   0.10698   0.00000  Uiso   1.00
H384   H     0.10369   0.80065   0.38724   0.00000  Uiso   1.00
H385   H     0.32254   0.90210   0.00024   0.00000  Uiso   1.00
H386   H     0.32853   0.73511   0.00970   0.00000  Uiso   1.00
H387   H     0.15171   0.87469   0.09451   0.00000  Uiso   1.00
H388   H     0.16294   0.75682   0.41778   0.00000  Uiso   1.00
C389   C     0.02033   0.98441   0.23743   0.00000  Uiso   1.00
C390   C     0.30848   0.68072   0.24354   0.00000  Uiso   1.00
N391   N     0.14695   0.81883   0.23739   0.00000  Uiso   1.00
N392   N     0.18638   0.84784   0.26260   0.00000  Uiso   1.00
H393   H     0.16248   0.79127   0.21386   0.00000  Uiso   1.00
H394   H     0.17085   0.87541   0.28612   0.00000  Uiso   1.00
N395   N     0.04418   0.75666   0.09964   0.00000  Uiso   1.00
H396   H     0.07879   0.78455   0.10302   0.00000  Uiso   1.00
H397   H     0.05617   0.72656   0.07593   0.00000  Uiso   1.00
N398   N     0.27797   0.89133   0.41063   0.00000  Uiso   1.00
H399   H     0.28738   0.91626   0.38304   0.00000  Uiso   1.00
H400   H     0.24872   0.86106   0.39668   0.00000  Uiso   1.00
N401   N     0.07532   0.67095   0.22295   0.00000  Uiso   1.00
O402   O     0.11869   0.67540   0.25439   0.00000  Uiso   1.00
O403   O     0.08218   0.68330   0.17816   0.00000  Uiso   1.00
N404   N     0.25083   0.99342   0.24925   0.00000  Uiso   1.00
O405   O     0.21989   0.97313   0.21127   0.00000  Uiso   1.00
O406   O     0.22867   0.99741   0.29194   0.00000  Uiso   1.00
O407   O     0.63052   0.91298   0.25309   0.00000  Uiso   1.00
O408   O     0.36948   0.75369   0.24690   0.00000  Uiso   1.00
O409   O     0.39155   0.90368   0.24501   0.00000  Uiso   1.00
O410   O     0.60845   0.76298   0.25498   0.00000  Uiso   1.00
C411   C     0.34769   0.93116   0.24619   0.00000  Uiso   1.00
C412   C     0.65123   0.73519   0.24829   0.00000  Uiso   1.00
O413   O     0.63662   0.84063   0.32247   0.00000  Uiso   1.00
O414   O     0.36338   0.82603   0.17753   0.00000  Uiso   1.00
O415   O     0.39764   0.83134   0.31439   0.00000  Uiso   1.00
O416   O     0.60236   0.83533   0.18561   0.00000  Uiso   1.00
C417   C     0.35410   0.83783   0.34138   0.00000  Uiso   1.00
C418   C     0.64578   0.82823   0.15878   0.00000  Uiso   1.00
Zn419  Zn    0.60366   0.83954   0.25539   0.00000  Uiso   1.00
Zn420  Zn    0.39634   0.82713   0.24460   0.00000  Uiso   1.00
C421   C     0.36358   0.84221   0.39468   0.00000  Uiso   1.00
C422   C     0.63497   0.81776   0.10620   0.00000  Uiso   1.00
C423   C     0.34769   0.87936   0.47592   0.00000  Uiso   1.00
C424   C     0.64078   0.76373   0.03147   0.00000  Uiso   1.00
C425   C     0.66274   0.86996   0.42684   0.00000  Uiso   1.00
C426   C     0.66288   0.78019   0.07869   0.00000  Uiso   1.00
C427   C     0.41225   0.82128   0.41301   0.00000  Uiso   1.00
C428   C     0.58797   0.83937   0.08598   0.00000  Uiso   1.00
C429   C     0.43130   0.83065   0.46191   0.00000  Uiso   1.00
C430   C     0.56116   0.81835   0.04203   0.00000  Uiso   1.00
C431   C     0.39930   0.86182   0.49309   0.00000  Uiso   1.00
C432   C     0.58945   0.78139   0.01369   0.00000  Uiso   1.00
C433   C     0.48344   0.81284   0.47948   0.00000  Uiso   1.00
C434   C     0.50641   0.83208   0.02638   0.00000  Uiso   1.00
C435   C     0.47280   0.86249   0.05694   0.00000  Uiso   1.00
C436   C     0.51315   0.77628   0.45185   0.00000  Uiso   1.00
C437   C     0.41979   0.87627   0.04069   0.00000  Uiso   1.00
C438   C     0.56519   0.76098   0.46879   0.00000  Uiso   1.00
H439   H     0.39526   0.89934   0.06527   0.00000  Uiso   1.00
H440   H     0.58613   0.73234   0.44690   0.00000  Uiso   1.00
H441   H     0.57143   0.87102   0.10698   0.00000  Uiso   1.00
H442   H     0.43702   0.80065   0.38724   0.00000  Uiso   1.00
H443   H     0.65587   0.90210   0.00024   0.00000  Uiso   1.00
H444   H     0.66186   0.73511   0.00970   0.00000  Uiso   1.00
H445   H     0.48504   0.87469   0.09451   0.00000  Uiso   1.00
H446   H     0.49627   0.75682   0.41778   0.00000  Uiso   1.00
C447   C     0.35366   0.98441   0.23743   0.00000  Uiso   1.00
C448   C     0.64181   0.68072   0.24354   0.00000  Uiso   1.00
N449   N     0.48029   0.81883   0.23739   0.00000  Uiso   1.00
N450   N     0.51971   0.84784   0.26260   0.00000  Uiso   1.00
H451   H     0.49582   0.79127   0.21386   0.00000  Uiso   1.00
H452   H     0.50418   0.87541   0.28612   0.00000  Uiso   1.00
N453   N     0.37751   0.75666   0.09964   0.00000  Uiso   1.00
H454   H     0.41213   0.78455   0.10302   0.00000  Uiso   1.00
H455   H     0.38950   0.72656   0.07593   0.00000  Uiso   1.00
N456   N     0.61130   0.89133   0.41063   0.00000  Uiso   1.00
H457   H     0.62072   0.91626   0.38304   0.00000  Uiso   1.00
H458   H     0.58205   0.86106   0.39668   0.00000  Uiso   1.00
N459   N     0.40865   0.67095   0.22295   0.00000  Uiso   1.00
O460   O     0.45203   0.67540   0.25439   0.00000  Uiso   1.00
O461   O     0.41551   0.68330   0.17816   0.00000  Uiso   1.00
N462   N     0.58417   0.99342   0.24925   0.00000  Uiso   1.00
O463   O     0.55323   0.97313   0.21127   0.00000  Uiso   1.00
O464   O     0.56200   0.99741   0.29194   0.00000  Uiso   1.00
O465   O     0.96386   0.91298   0.25309   0.00000  Uiso   1.00
O466   O     0.70281   0.75369   0.24690   0.00000  Uiso   1.00
O467   O     0.72488   0.90368   0.24501   0.00000  Uiso   1.00
O468   O     0.94178   0.76298   0.25498   0.00000  Uiso   1.00
C469   C     0.68102   0.93116   0.24619   0.00000  Uiso   1.00
C470   C     0.98457   0.73519   0.24829   0.00000  Uiso   1.00
O471   O     0.96995   0.84063   0.32247   0.00000  Uiso   1.00
O472   O     0.69672   0.82603   0.17753   0.00000  Uiso   1.00
O473   O     0.73098   0.83134   0.31439   0.00000  Uiso   1.00
O474   O     0.93569   0.83533   0.18561   0.00000  Uiso   1.00
C475   C     0.68743   0.83783   0.34138   0.00000  Uiso   1.00
C476   C     0.97911   0.82823   0.15878   0.00000  Uiso   1.00
Zn477  Zn    0.93700   0.83954   0.25539   0.00000  Uiso   1.00
Zn478  Zn    0.72967   0.82713   0.24460   0.00000  Uiso   1.00
C479   C     0.69692   0.84221   0.39468   0.00000  Uiso   1.00
C480   C     0.96830   0.81776   0.10620   0.00000  Uiso   1.00
C481   C     0.68102   0.87936   0.47592   0.00000  Uiso   1.00
C482   C     0.97411   0.76373   0.03147   0.00000  Uiso   1.00
C483   C     0.99607   0.86996   0.42684   0.00000  Uiso   1.00
C484   C     0.99621   0.78019   0.07869   0.00000  Uiso   1.00
C485   C     0.74558   0.82128   0.41301   0.00000  Uiso   1.00
C486   C     0.92130   0.83937   0.08598   0.00000  Uiso   1.00
C487   C     0.76464   0.83065   0.46191   0.00000  Uiso   1.00
C488   C     0.89449   0.81835   0.04203   0.00000  Uiso   1.00
C489   C     0.73263   0.86182   0.49309   0.00000  Uiso   1.00
C490   C     0.92278   0.78139   0.01369   0.00000  Uiso   1.00
C491   C     0.81677   0.81284   0.47948   0.00000  Uiso   1.00
C492   C     0.83974   0.83208   0.02638   0.00000  Uiso   1.00
C493   C     0.80613   0.86249   0.05694   0.00000  Uiso   1.00
C494   C     0.84648   0.77628   0.45185   0.00000  Uiso   1.00
C495   C     0.75312   0.87627   0.04069   0.00000  Uiso   1.00
C496   C     0.89853   0.76098   0.46879   0.00000  Uiso   1.00
H497   H     0.72860   0.89934   0.06527   0.00000  Uiso   1.00
H498   H     0.91946   0.73234   0.44690   0.00000  Uiso   1.00
H499   H     0.90476   0.87102   0.10698   0.00000  Uiso   1.00
H500   H     0.77036   0.80065   0.38724   0.00000  Uiso   1.00
H501   H     0.98920   0.90210   0.00024   0.00000  Uiso   1.00
H502   H     0.99520   0.73511   0.00970   0.00000  Uiso   1.00
H503   H     0.81838   0.87469   0.09451   0.00000  Uiso   1.00
H504   H     0.82960   0.75682   0.41778   0.00000  Uiso   1.00
C505   C     0.68699   0.98441   0.23743   0.00000  Uiso   1.00
C506   C     0.97515   0.68072   0.24354   0.00000  Uiso   1.00
N507   N     0.81362   0.81883   0.23739   0.00000  Uiso   1.00
N508   N     0.85305   0.84784   0.26260   0.00000  Uiso   1.00
H509   H     0.82915   0.79127   0.21386   0.00000  Uiso   1.00
H510   H     0.83752   0.87541   0.28612   0.00000  Uiso   1.00
N511   N     0.71084   0.75666   0.09964   0.00000  Uiso   1.00
H512   H     0.74546   0.78455   0.10302   0.00000  Uiso   1.00
H513   H     0.72283   0.72656   0.07593   0.00000  Uiso   1.00
N514   N     0.94463   0.89133   0.41063   0.00000  Uiso   1.00
H515   H     0.95405   0.91626   0.38304   0.00000  Uiso   1.00
H516   H     0.91539   0.86106   0.39668   0.00000  Uiso   1.00
N517   N     0.74199   0.67095   0.22295   0.00000  Uiso   1.00
O518   O     0.78536   0.67540   0.25439   0.00000  Uiso   1.00
O519   O     0.74885   0.68330   0.17816   0.00000  Uiso   1.00
N520   N     0.91750   0.99342   0.24925   0.00000  Uiso   1.00
O521   O     0.88656   0.97313   0.21127   0.00000  Uiso   1.00
O522   O     0.89533   0.99741   0.29194   0.00000  Uiso   1.00
O523   O     0.29719   0.24631   0.75309   0.00000  Uiso   1.00
O524   O     0.03614   0.08702   0.74690   0.00000  Uiso   1.00
O525   O     0.05822   0.23702   0.74501   0.00000  Uiso   1.00
O526   O     0.27512   0.09632   0.75498   0.00000  Uiso   1.00
C527   C     0.01436   0.26449   0.74619   0.00000  Uiso   1.00
C528   C     0.31790   0.06852   0.74829   0.00000  Uiso   1.00
O529   O     0.30328   0.17397   0.82247   0.00000  Uiso   1.00
O530   O     0.03005   0.15937   0.67753   0.00000  Uiso   1.00
O531   O     0.06431   0.16467   0.81439   0.00000  Uiso   1.00
O532   O     0.26902   0.16866   0.68561   0.00000  Uiso   1.00
C533   C     0.02077   0.17116   0.84138   0.00000  Uiso   1.00
C534   C     0.31245   0.16157   0.65878   0.00000  Uiso   1.00
Zn535  Zn    0.27033   0.17287   0.75539   0.00000  Uiso   1.00
Zn536  Zn    0.06300   0.16046   0.74460   0.00000  Uiso   1.00
C537   C     0.03025   0.17554   0.89468   0.00000  Uiso   1.00
C538   C     0.30163   0.15110   0.60620   0.00000  Uiso   1.00
C539   C     0.01436   0.21269   0.97592   0.00000  Uiso   1.00
C540   C     0.30744   0.09707   0.53147   0.00000  Uiso   1.00
C541   C     0.32940   0.20330   0.92684   0.00000  Uiso   1.00
C542   C     0.32954   0.11352   0.57869   0.00000  Uiso   1.00
C543   C     0.07891   0.15462   0.91301   0.00000  Uiso   1.00
C544   C     0.25464   0.17270   0.58598   0.00000  Uiso   1.00
C545   C     0.09797   0.16398   0.96191   0.00000  Uiso   1.00
C546   C     0.22783   0.15168   0.54203   0.00000  Uiso   1.00
C547   C     0.06596   0.19515   0.99309   0.00000  Uiso   1.00
C548   C     0.25611   0.11473   0.51369   0.00000  Uiso   1.00
C549   C     0.15011   0.14618   0.97948   0.00000  Uiso   1.00
C550   C     0.17307   0.16542   0.52638   0.00000  Uiso   1.00
C551   C     0.13946   0.19583   0.55694   0.00000  Uiso   1.00
C552   C     0.17981   0.10962   0.95185   0.00000  Uiso   1.00
C553   C     0.08645   0.20960   0.54069   0.00000  Uiso   1.00
C554   C     0.23186   0.09431   0.96879   0.00000  Uiso   1.00
H555   H     0.06193   0.23268   0.56527   0.00000  Uiso   1.00
H556   H     0.25280   0.06568   0.94690   0.00000  Uiso   1.00
H557   H     0.23809   0.20435   0.60698   0.00000  Uiso   1.00
H558   H     0.10369   0.13399   0.88724   0.00000  Uiso   1.00
H559   H     0.32254   0.23543   0.50024   0.00000  Uiso   1.00
H560   H     0.32853   0.06844   0.50970   0.00000  Uiso   1.00
H561   H     0.15171   0.20803   0.59451   0.00000  Uiso   1.00
H562   H     0.16294   0.09015   0.91778   0.00000  Uiso   1.00
C563   C     0.02033   0.31774   0.73743   0.00000  Uiso   1.00
C564   C     0.30848   0.01405   0.74354   0.00000  Uiso   1.00
N565   N     0.14695   0.15216   0.73739   0.00000  Uiso   1.00
N566   N     0.18638   0.18117   0.76260   0.00000  Uiso   1.00
H567   H     0.16248   0.12460   0.71386   0.00000  Uiso   1.00
H568   H     0.17085   0.20875   0.78612   0.00000  Uiso   1.00
N569   N     0.04418   0.08999   0.59964   0.00000  Uiso   1.00
H570   H     0.07879   0.11788   0.60302   0.00000  Uiso   1.00
H571   H     0.05617   0.05990   0.57593   0.00000  Uiso   1.00
N572   N     0.27797   0.22467   0.91063   0.00000  Uiso   1.00
H573   H     0.28738   0.24960   0.88304   0.00000  Uiso   1.00
H574   H     0.24872   0.19440   0.89668   0.00000  Uiso   1.00
N575   N     0.07532   0.00428   0.72295   0.00000  Uiso   1.00
O576   O     0.11869   0.00874   0.75439   0.00000  Uiso   1.00
O577   O     0.08218   0.01663   0.67816   0.00000  Uiso   1.00
N578   N     0.25083   0.32675   0.74925   0.00000  Uiso   1.00
O579   O     0.21989   0.30646   0.71127   0.00000  Uiso   1.00
O580   O     0.22867   0.33074   0.79194   0.00000  Uiso   1.00
O581   O     0.63052   0.24631   0.75309   0.00000  Uiso   1.00
O582   O     0.36948   0.08702   0.74690   0.00000  Uiso   1.00
O583   O     0.39155   0.23702   0.74501   0.00000  Uiso   1.00
O584   O     0.60845   0.09632   0.75498   0.00000  Uiso   1.00
C585   C     0.34769   0.26449   0.74619   0.00000  Uiso   1.00
C586   C     0.65123   0.06852   0.74829   0.00000  Uiso   1.00
O587   O     0.63662   0.17397   0.82247   0.00000  Uiso   1.00
O588   O     0.36338   0.15937   0.67753   0.00000  Uiso   1.00
O589   O     0.39764   0.16467   0.81439   0.00000  Uiso   1.00
O590   O     0.60236   0.16866   0.68561   0.00000  Uiso   1.00
C591   C     0.35410   0.17116   0.84138   0.00000  Uiso   1.00
C592   C     0.64578   0.16157   0.65878   0.00000  Uiso   1.00
Zn593  Zn    0.60366   0.17287   0.75539   0.00000  Uiso   1.00
Zn594  Zn    0.39634   0.16046   0.74460   0.00000  Uiso   1.00
C595   C     0.36358   0.17554   0.89468   0.00000  Uiso   1.00
C596   C     0.63497   0.15110   0.60620   0.00000  Uiso   1.00
C597   C     0.34769   0.21269   0.97592   0.00000  Uiso   1.00
C598   C     0.64078   0.09707   0.53147   0.00000  Uiso   1.00
C599   C     0.66274   0.20330   0.92684   0.00000  Uiso   1.00
C600   C     0.66288   0.11352   0.57869   0.00000  Uiso   1.00
C601   C     0.41225   0.15462   0.91301   0.00000  Uiso   1.00
C602   C     0.58797   0.17270   0.58598   0.00000  Uiso   1.00
C603   C     0.43130   0.16398   0.96191   0.00000  Uiso   1.00
C604   C     0.56116   0.15168   0.54203   0.00000  Uiso   1.00
C605   C     0.39930   0.19515   0.99309   0.00000  Uiso   1.00
C606   C     0.58945   0.11473   0.51369   0.00000  Uiso   1.00
C607   C     0.48344   0.14618   0.97948   0.00000  Uiso   1.00
C608   C     0.50641   0.16542   0.52638   0.00000  Uiso   1.00
C609   C     0.47280   0.19583   0.55694   0.00000  Uiso   1.00
C610   C     0.51315   0.10962   0.95185   0.00000  Uiso   1.00
C611   C     0.41979   0.20960   0.54069   0.00000  Uiso   1.00
C612   C     0.56519   0.09431   0.96879   0.00000  Uiso   1.00
H613   H     0.39526   0.23268   0.56527   0.00000  Uiso   1.00
H614   H     0.58613   0.06568   0.94690   0.00000  Uiso   1.00
H615   H     0.57143   0.20435   0.60698   0.00000  Uiso   1.00
H616   H     0.43702   0.13399   0.88724   0.00000  Uiso   1.00
H617   H     0.65587   0.23543   0.50024   0.00000  Uiso   1.00
H618   H     0.66186   0.06844   0.50970   0.00000  Uiso   1.00
H619   H     0.48504   0.20803   0.59451   0.00000  Uiso   1.00
H620   H     0.49627   0.09015   0.91778   0.00000  Uiso   1.00
C621   C     0.35366   0.31774   0.73743   0.00000  Uiso   1.00
C622   C     0.64181   0.01405   0.74354   0.00000  Uiso   1.00
N623   N     0.48029   0.15216   0.73739   0.00000  Uiso   1.00
N624   N     0.51971   0.18117   0.76260   0.00000  Uiso   1.00
H625   H     0.49582   0.12460   0.71386   0.00000  Uiso   1.00
H626   H     0.50418   0.20875   0.78612   0.00000  Uiso   1.00
N627   N     0.37751   0.08999   0.59964   0.00000  Uiso   1.00
H628   H     0.41213   0.11788   0.60302   0.00000  Uiso   1.00
H629   H     0.38950   0.05990   0.57593   0.00000  Uiso   1.00
N630   N     0.61130   0.22467   0.91063   0.00000  Uiso   1.00
H631   H     0.62072   0.24960   0.88304   0.00000  Uiso   1.00
H632   H     0.58205   0.19440   0.89668   0.00000  Uiso   1.00
N633   N     0.40865   0.00428   0.72295   0.00000  Uiso   1.00
O634   O     0.45203   0.00874   0.75439   0.00000  Uiso   1.00
O635   O     0.41551   0.01663   0.67816   0.00000  Uiso   1.00
N636   N     0.58417   0.32675   0.74925   0.00000  Uiso   1.00
O637   O     0.55323   0.30646   0.71127   0.00000  Uiso   1.00
O638   O     0.56200   0.33074   0.79194   0.00000  Uiso   1.00
O639   O     0.96386   0.24631   0.75309   0.00000  Uiso   1.00
O640   O     0.70281   0.08702   0.74690   0.00000  Uiso   1.00
O641   O     0.72488   0.23702   0.74501   0.00000  Uiso   1.00
O642   O     0.94178   0.09632   0.75498   0.00000  Uiso   1.00
C643   C     0.68102   0.26449   0.74619   0.00000  Uiso   1.00
C644   C     0.98457   0.06852   0.74829   0.00000  Uiso   1.00
O645   O     0.96995   0.17397   0.82247   0.00000  Uiso   1.00
O646   O     0.69672   0.15937   0.67753   0.00000  Uiso   1.00
O647   O     0.73098   0.16467   0.81439   0.00000  Uiso   1.00
O648   O     0.93569   0.16866   0.68561   0.00000  Uiso   1.00
C649   C     0.68743   0.17116   0.84138   0.00000  Uiso   1.00
C650   C     0.97911   0.16157   0.65878   0.00000  Uiso   1.00
Zn651  Zn    0.93700   0.17287   0.75539   0.00000  Uiso   1.00
Zn652  Zn    0.72967   0.16046   0.74460   0.00000  Uiso   1.00
C653   C     0.69692   0.17554   0.89468   0.00000  Uiso   1.00
C654   C     0.96830   0.15110   0.60620   0.00000  Uiso   1.00
C655   C     0.68102   0.21269   0.97592   0.00000  Uiso   1.00
C656   C     0.97411   0.09707   0.53147   0.00000  Uiso   1.00
C657   C     0.99607   0.20330   0.92684   0.00000  Uiso   1.00
C658   C     0.99621   0.11352   0.57869   0.00000  Uiso   1.00
C659   C     0.74558   0.15462   0.91301   0.00000  Uiso   1.00
C660   C     0.92130   0.17270   0.58598   0.00000  Uiso   1.00
C661   C     0.76464   0.16398   0.96191   0.00000  Uiso   1.00
C662   C     0.89449   0.15168   0.54203   0.00000  Uiso   1.00
C663   C     0.73263   0.19515   0.99309   0.00000  Uiso   1.00
C664   C     0.92278   0.11473   0.51369   0.00000  Uiso   1.00
C665   C     0.81677   0.14618   0.97948   0.00000  Uiso   1.00
C666   C     0.83974   0.16542   0.52638   0.00000  Uiso   1.00
C667   C     0.80613   0.19583   0.55694   0.00000  Uiso   1.00
C668   C     0.84648   0.10962   0.95185   0.00000  Uiso   1.00
C669   C     0.75312   0.20960   0.54069   0.00000  Uiso   1.00
C670   C     0.89853   0.09431   0.96879   0.00000  Uiso   1.00
H671   H     0.72860   0.23268   0.56527   0.00000  Uiso   1.00
H672   H     0.91946   0.06568   0.94690   0.00000  Uiso   1.00
H673   H     0.90476   0.20435   0.60698   0.00000  Uiso   1.00
H674   H     0.77036   0.13399   0.88724   0.00000  Uiso   1.00
H675   H     0.98920   0.23543   0.50024   0.00000  Uiso   1.00
H676   H     0.99520   0.06844   0.50970   0.00000  Uiso   1.00
H677   H     0.81838   0.20803   0.59451   0.00000  Uiso   1.00
H678   H     0.82960   0.09015   0.91778   0.00000  Uiso   1.00
C679   C     0.68699   0.31774   0.73743   0.00000  Uiso   1.00
C680   C     0.97515   0.01405   0.74354   0.00000  Uiso   1.00
N681   N     0.81362   0.15216   0.73739   0.00000  Uiso   1.00
N682   N     0.85305   0.18117   0.76260   0.00000  Uiso   1.00
H683   H     0.82915   0.12460   0.71386   0.00000  Uiso   1.00
H684   H     0.83752   0.20875   0.78612   0.00000  Uiso   1.00
N685   N     0.71084   0.08999   0.59964   0.00000  Uiso   1.00
H686   H     0.74546   0.11788   0.60302   0.00000  Uiso   1.00
H687   H     0.72283   0.05990   0.57593   0.00000  Uiso   1.00
N688   N     0.94463   0.22467   0.91063   0.00000  Uiso   1.00
H689   H     0.95405   0.24960   0.88304   0.00000  Uiso   1.00
H690   H     0.91539   0.19440   0.89668   0.00000  Uiso   1.00
N691   N     0.74199   0.00428   0.72295   0.00000  Uiso   1.00
O692   O     0.78536   0.00874   0.75439   0.00000  Uiso   1.00
O693   O     0.74885   0.01663   0.67816   0.00000  Uiso   1.00
N694   N     0.91750   0.32675   0.74925   0.00000  Uiso   1.00
O695   O     0.88656   0.30646   0.71127   0.00000  Uiso   1.00
O696   O     0.89533   0.33074   0.79194   0.00000  Uiso   1.00
O697   O     0.29719   0.57964   0.75309   0.00000  Uiso   1.00
O698   O     0.03614   0.42036   0.74690   0.00000  Uiso   1.00
O699   O     0.05822   0.57035   0.74501   0.00000  Uiso   1.00
O700   O     0.27512   0.42965   0.75498   0.00000  Uiso   1.00
C701   C     0.01436   0.59782   0.74619   0.00000  Uiso   1.00
C702   C     0.31790   0.40186   0.74829   0.00000  Uiso   1.00
O703   O     0.30328   0.50730   0.82247   0.00000  Uiso   1.00
O704   O     0.03005   0.49270   0.67753   0.00000  Uiso   1.00
O705   O     0.06431   0.49801   0.81439   0.00000  Uiso   1.00
O706   O     0.26902   0.50199   0.68561   0.00000  Uiso   1.00
C707   C     0.02077   0.50450   0.84138   0.00000  Uiso   1.00
C708   C     0.31245   0.49490   0.65878   0.00000  Uiso   1.00
Zn709  Zn    0.27033   0.50621   0.75539   0.00000  Uiso   1.00
Zn710  Zn    0.06300   0.49379   0.74460   0.00000  Uiso   1.00
C711   C     0.03025   0.50888   0.89468   0.00000  Uiso   1.00
C712   C     0.30163   0.48443   0.60620   0.00000  Uiso   1.00
C713   C     0.01436   0.54602   0.97592   0.00000  Uiso   1.00
C714   C     0.30744   0.43040   0.53147   0.00000  Uiso   1.00
C715   C     0.32940   0.53663   0.92684   0.00000  Uiso   1.00
C716   C     0.32954   0.44685   0.57869   0.00000  Uiso   1.00
C717   C     0.07891   0.48795   0.91301   0.00000  Uiso   1.00
C718   C     0.25464   0.50604   0.58598   0.00000  Uiso   1.00
C719   C     0.09797   0.49731   0.96191   0.00000  Uiso   1.00
C720   C     0.22783   0.48502   0.54203   0.00000  Uiso   1.00
C721   C     0.06596   0.52848   0.99309   0.00000  Uiso   1.00
C722   C     0.25611   0.44806   0.51369   0.00000  Uiso   1.00
C723   C     0.15011   0.47951   0.97948   0.00000  Uiso   1.00
C724   C     0.17307   0.49875   0.52638   0.00000  Uiso   1.00
C725   C     0.13946   0.52916   0.55694   0.00000  Uiso   1.00
C726   C     0.17981   0.44295   0.95185   0.00000  Uiso   1.00
C727   C     0.08645   0.54294   0.54069   0.00000  Uiso   1.00
C728   C     0.23186   0.42764   0.96879   0.00000  Uiso   1.00
H729   H     0.06193   0.56601   0.56527   0.00000  Uiso   1.00
H730   H     0.25280   0.39901   0.94690   0.00000  Uiso   1.00
H731   H     0.23809   0.53769   0.60698   0.00000  Uiso   1.00
H732   H     0.10369   0.46732   0.88724   0.00000  Uiso   1.00
H733   H     0.32254   0.56877   0.50024   0.00000  Uiso   1.00
H734   H     0.32853   0.40178   0.50970   0.00000  Uiso   1.00
H735   H     0.15171   0.54136   0.59451   0.00000  Uiso   1.00
H736   H     0.16294   0.42349   0.91778   0.00000  Uiso   1.00
C737   C     0.02033   0.65107   0.73743   0.00000  Uiso   1.00
C738   C     0.30848   0.34739   0.74354   0.00000  Uiso   1.00
N739   N     0.14695   0.48550   0.73739   0.00000  Uiso   1.00
N740   N     0.18638   0.51450   0.76260   0.00000  Uiso   1.00
H741   H     0.16248   0.45793   0.71386   0.00000  Uiso   1.00
H742   H     0.17085   0.54208   0.78612   0.00000  Uiso   1.00
N743   N     0.04418   0.42332   0.59964   0.00000  Uiso   1.00
H744   H     0.07879   0.45121   0.60302   0.00000  Uiso   1.00
H745   H     0.05617   0.39323   0.57593   0.00000  Uiso   1.00
N746   N     0.27797   0.55800   0.91063   0.00000  Uiso   1.00
H747   H     0.28738   0.58293   0.88304   0.00000  Uiso   1.00
H748   H     0.24872   0.52773   0.89668   0.00000  Uiso   1.00
N749   N     0.07532   0.33762   0.72295   0.00000  Uiso   1.00
O750   O     0.11869   0.34207   0.75439   0.00000  Uiso   1.00
O751   O     0.08218   0.34996   0.67816   0.00000  Uiso   1.00
N752   N     0.25083   0.66009   0.74925   0.00000  Uiso   1.00
O753   O     0.21989   0.63979   0.71127   0.00000  Uiso   1.00
O754   O     0.22867   0.66408   0.79194   0.00000  Uiso   1.00
O755   O     0.63052   0.57964   0.75309   0.00000  Uiso   1.00
O756   O     0.36948   0.42036   0.74690   0.00000  Uiso   1.00
O757   O     0.39155   0.57035   0.74501   0.00000  Uiso   1.00
O758   O     0.60845   0.42965   0.75498   0.00000  Uiso   1.00
C759   C     0.34769   0.59782   0.74619   0.00000  Uiso   1.00
C760   C     0.65123   0.40186   0.74829   0.00000  Uiso   1.00
O761   O     0.63662   0.50730   0.82247   0.00000  Uiso   1.00
O762   O     0.36338   0.49270   0.67753   0.00000  Uiso   1.00
O763   O     0.39764   0.49801   0.81439   0.00000  Uiso   1.00
O764   O     0.60236   0.50199   0.68561   0.00000  Uiso   1.00
C765   C     0.35410   0.50450   0.84138   0.00000  Uiso   1.00
C766   C     0.64578   0.49490   0.65878   0.00000  Uiso   1.00
Zn767  Zn    0.60366   0.50621   0.75539   0.00000  Uiso   1.00
Zn768  Zn    0.39634   0.49379   0.74460   0.00000  Uiso   1.00
C769   C     0.36358   0.50888   0.89468   0.00000  Uiso   1.00
C770   C     0.63497   0.48443   0.60620   0.00000  Uiso   1.00
C771   C     0.34769   0.54602   0.97592   0.00000  Uiso   1.00
C772   C     0.64078   0.43040   0.53147   0.00000  Uiso   1.00
C773   C     0.66274   0.53663   0.92684   0.00000  Uiso   1.00
C774   C     0.66288   0.44685   0.57869   0.00000  Uiso   1.00
C775   C     0.41225   0.48795   0.91301   0.00000  Uiso   1.00
C776   C     0.58797   0.50604   0.58598   0.00000  Uiso   1.00
C777   C     0.43130   0.49731   0.96191   0.00000  Uiso   1.00
C778   C     0.56116   0.48502   0.54203   0.00000  Uiso   1.00
C779   C     0.39930   0.52848   0.99309   0.00000  Uiso   1.00
C780   C     0.58945   0.44806   0.51369   0.00000  Uiso   1.00
C781   C     0.48344   0.47951   0.97948   0.00000  Uiso   1.00
C782   C     0.50641   0.49875   0.52638   0.00000  Uiso   1.00
C783   C     0.47280   0.52916   0.55694   0.00000  Uiso   1.00
C784   C     0.51315   0.44295   0.95185   0.00000  Uiso   1.00
C785   C     0.41979   0.54294   0.54069   0.00000  Uiso   1.00
C786   C     0.56519   0.42764   0.96879   0.00000  Uiso   1.00
H787   H     0.39526   0.56601   0.56527   0.00000  Uiso   1.00
H788   H     0.58613   0.39901   0.94690   0.00000  Uiso   1.00
H789   H     0.57143   0.53769   0.60698   0.00000  Uiso   1.00
H790   H     0.43702   0.46732   0.88724   0.00000  Uiso   1.00
H791   H     0.65587   0.56877   0.50024   0.00000  Uiso   1.00
H792   H     0.66186   0.40178   0.50970   0.00000  Uiso   1.00
H793   H     0.48504   0.54136   0.59451   0.00000  Uiso   1.00
H794   H     0.49627   0.42349   0.91778   0.00000  Uiso   1.00
C795   C     0.35366   0.65107   0.73743   0.00000  Uiso   1.00
C796   C     0.64181   0.34739   0.74354   0.00000  Uiso   1.00
N797   N     0.48029   0.48550   0.73739   0.00000  Uiso   1.00
N798   N     0.51971   0.51450   0.76260   0.00000  Uiso   1.00
H799   H     0.49582   0.45793   0.71386   0.00000  Uiso   1.00
H800   H     0.50418   0.54208   0.78612   0.00000  Uiso   1.00
N801   N     0.37751   0.42332   0.59964   0.00000  Uiso   1.00
H802   H     0.41213   0.45121   0.60302   0.00000  Uiso   1.00
H803   H     0.38950   0.39323   0.57593   0.00000  Uiso   1.00
N804   N     0.61130   0.55800   0.91063   0.00000  Uiso   1.00
H805   H     0.62072   0.58293   0.88304   0.00000  Uiso   1.00
H806   H     0.58205   0.52773   0.89668   0.00000  Uiso   1.00
N807   N     0.40865   0.33762   0.72295   0.00000  Uiso   1.00
O808   O     0.45203   0.34207   0.75439   0.00000  Uiso   1.00
O809   O     0.41551   0.34996   0.67816   0.00000  Uiso   1.00
N810   N     0.58417   0.66009   0.74925   0.00000  Uiso   1.00
O811   O     0.55323   0.63979   0.71127   0.00000  Uiso   1.00
O812   O     0.56200   0.66408   0.79194   0.00000  Uiso   1.00
O813   O     0.96386   0.57964   0.75309   0.00000  Uiso   1.00
O814   O     0.70281   0.42036   0.74690   0.00000  Uiso   1.00
O815   O     0.72488   0.57035   0.74501   0.00000  Uiso   1.00
O816   O     0.94178   0.42965   0.75498   0.00000  Uiso   1.00
C817   C     0.68102   0.59782   0.74619   0.00000  Uiso   1.00
C818   C     0.98457   0.40186   0.74829   0.00000  Uiso   1.00
O819   O     0.96995   0.50730   0.82247   0.00000  Uiso   1.00
O820   O     0.69672   0.49270   0.67753   0.00000  Uiso   1.00
O821   O     0.73098   0.49801   0.81439   0.00000  Uiso   1.00
O822   O     0.93569   0.50199   0.68561   0.00000  Uiso   1.00
C823   C     0.68743   0.50450   0.84138   0.00000  Uiso   1.00
C824   C     0.97911   0.49490   0.65878   0.00000  Uiso   1.00
Zn825  Zn    0.93700   0.50621   0.75539   0.00000  Uiso   1.00
Zn826  Zn    0.72967   0.49379   0.74460   0.00000  Uiso   1.00
C827   C     0.69692   0.50888   0.89468   0.00000  Uiso   1.00
C828   C     0.96830   0.48443   0.60620   0.00000  Uiso   1.00
C829   C     0.68102   0.54602   0.97592   0.00000  Uiso   1.00
C830   C     0.97411   0.43040   0.53147   0.00000  Uiso   1.00
C831   C     0.99607   0.53663   0.92684   0.00000  Uiso   1.00
C832   C     0.99621   0.44685   0.57869   0.00000  Uiso   1.00
C833   C     0.74558   0.48795   0.91301   0.00000  Uiso   1.00
C834   C     0.92130   0.50604   0.58598   0.00000  Uiso   1.00
C835   C     0.76464   0.49731   0.96191   0.00000  Uiso   1.00
C836   C     0.89449   0.48502   0.54203   0.00000  Uiso   1.00
C837   C     0.73263   0.52848   0.99309   0.00000  Uiso   1.00
C838   C     0.92278   0.44806   0.51369   0.00000  Uiso   1.00
C839   C     0.81677   0.47951   0.97948   0.00000  Uiso   1.00
C840   C     0.83974   0.49875   0.52638   0.00000  Uiso   1.00
C841   C     0.80613   0.52916   0.55694   0.00000  Uiso   1.00
C842   C     0.84648   0.44295   0.95185   0.00000  Uiso   1.00
C843   C     0.75312   0.54294   0.54069   0.00000  Uiso   1.00
C844   C     0.89853   0.42764   0.96879   0.00000  Uiso   1.00
H845   H     0.72860   0.56601   0.56527   0.00000  Uiso   1.00
H846   H     0.91946   0.39901   0.94690   0.00000  Uiso   1.00
H847   H     0.90476   0.53769   0.60698   0.00000  Uiso   1.00
H848   H     0.77036   0.46732   0.88724   0.00000  Uiso   1.00
H849   H     0.98920   0.56877   0.50024   0.00000  Uiso   1.00
H850   H     0.99520   0.40178   0.50970   0.00000  Uiso   1.00
H851   H     0.81838   0.54136   0.59451   0.00000  Uiso   1.00
H852   H     0.82960   0.42349   0.91778   0.00000  Uiso   1.00
C853   C     0.68699   0.65107   0.73743   0.00000  Uiso   1.00
C854   C     0.97515   0.34739   0.74354   0.00000  Uiso   1.00
N855   N     0.81362   0.48550   0.73739   0.00000  Uiso   1.00
N856   N     0.85305   0.51450   0.76260   0.00000  Uiso   1.00
H857   H     0.82915   0.45793   0.71386   0.00000  Uiso   1.00
H858   H     0.83752   0.54208   0.78612   0.00000  Uiso   1.00
N859   N     0.71084   0.42332   0.59964   0.00000  Uiso   1.00
H860   H     0.74546   0.45121   0.60302   0.00000  Uiso   1.00
H861   H     0.72283   0.39323   0.57593   0.00000  Uiso   1.00
N862   N     0.94463   0.55800   0.91063   0.00000  Uiso   1.00
H863   H     0.95405   0.58293   0.88304   0.00000  Uiso   1.00
H864   H     0.91539   0.52773   0.89668   0.00000  Uiso   1.00
N865   N     0.74199   0.33762   0.72295   0.00000  Uiso   1.00
O866   O     0.78536   0.34207   0.75439   0.00000  Uiso   1.00
O867   O     0.74885   0.34996   0.67816   0.00000  Uiso   1.00
N868   N     0.91750   0.66009   0.74925   0.00000  Uiso   1.00
O869   O     0.88656   0.63979   0.71127   0.00000  Uiso   1.00
O870   O     0.89533   0.66408   0.79194   0.00000  Uiso   1.00
O871   O     0.29719   0.91298   0.75309   0.00000  Uiso   1.00
O872   O     0.03614   0.75369   0.74690   0.00000  Uiso   1.00
O873   O     0.05822   0.90368   0.74501   0.00000  Uiso   1.00
O874   O     0.27512   0.76298   0.75498   0.00000  Uiso   1.00
C875   C     0.01436   0.93116   0.74619   0.00000  Uiso   1.00
C876   C     0.31790   0.73519   0.74829   0.00000  Uiso   1.00
O877   O     0.30328   0.84063   0.82247   0.00000  Uiso   1.00
O878   O     0.03005   0.82603   0.67753   0.00000  Uiso   1.00
O879   O     0.06431   0.83134   0.81439   0.00000  Uiso   1.00
O880   O     0.26902   0.83533   0.68561   0.00000  Uiso   1.00
C881   C     0.02077   0.83783   0.84138   0.00000  Uiso   1.00
C882   C     0.31245   0.82823   0.65878   0.00000  Uiso   1.00
Zn883  Zn    0.27033   0.83954   0.75539   0.00000  Uiso   1.00
Zn884  Zn    0.06300   0.82713   0.74460   0.00000  Uiso   1.00
C885   C     0.03025   0.84221   0.89468   0.00000  Uiso   1.00
C886   C     0.30163   0.81776   0.60620   0.00000  Uiso   1.00
C887   C     0.01436   0.87936   0.97592   0.00000  Uiso   1.00
C888   C     0.30744   0.76373   0.53147   0.00000  Uiso   1.00
C889   C     0.32940   0.86996   0.92684   0.00000  Uiso   1.00
C890   C     0.32954   0.78019   0.57869   0.00000  Uiso   1.00
C891   C     0.07891   0.82128   0.91301   0.00000  Uiso   1.00
C892   C     0.25464   0.83937   0.58598   0.00000  Uiso   1.00
C893   C     0.09797   0.83065   0.96191   0.00000  Uiso   1.00
C894   C     0.22783   0.81835   0.54203   0.00000  Uiso   1.00
C895   C     0.06596   0.86182   0.99309   0.00000  Uiso   1.00
C896   C     0.25611   0.78139   0.51369   0.00000  Uiso   1.00
C897   C     0.15011   0.81284   0.97948   0.00000  Uiso   1.00
C898   C     0.17307   0.83208   0.52638   0.00000  Uiso   1.00
C899   C     0.13946   0.86249   0.55694   0.00000  Uiso   1.00
C900   C     0.17981   0.77628   0.95185   0.00000  Uiso   1.00
C901   C     0.08645   0.87627   0.54069   0.00000  Uiso   1.00
C902   C     0.23186   0.76098   0.96879   0.00000  Uiso   1.00
H903   H     0.06193   0.89934   0.56527   0.00000  Uiso   1.00
H904   H     0.25280   0.73234   0.94690   0.00000  Uiso   1.00
H905   H     0.23809   0.87102   0.60698   0.00000  Uiso   1.00
H906   H     0.10369   0.80065   0.88724   0.00000  Uiso   1.00
H907   H     0.32254   0.90210   0.50024   0.00000  Uiso   1.00
H908   H     0.32853   0.73511   0.50970   0.00000  Uiso   1.00
H909   H     0.15171   0.87469   0.59451   0.00000  Uiso   1.00
H910   H     0.16294   0.75682   0.91778   0.00000  Uiso   1.00
C911   C     0.02033   0.98441   0.73743   0.00000  Uiso   1.00
C912   C     0.30848   0.68072   0.74354   0.00000  Uiso   1.00
N913   N     0.14695   0.81883   0.73739   0.00000  Uiso   1.00
N914   N     0.18638   0.84784   0.76260   0.00000  Uiso   1.00
H915   H     0.16248   0.79127   0.71386   0.00000  Uiso   1.00
H916   H     0.17085   0.87541   0.78612   0.00000  Uiso   1.00
N917   N     0.04418   0.75666   0.59964   0.00000  Uiso   1.00
H918   H     0.07879   0.78455   0.60302   0.00000  Uiso   1.00
H919   H     0.05617   0.72656   0.57593   0.00000  Uiso   1.00
N920   N     0.27797   0.89133   0.91063   0.00000  Uiso   1.00
H921   H     0.28738   0.91626   0.88304   0.00000  Uiso   1.00
H922   H     0.24872   0.86106   0.89668   0.00000  Uiso   1.00
N923   N     0.07532   0.67095   0.72295   0.00000  Uiso   1.00
O924   O     0.11869   0.67540   0.75439   0.00000  Uiso   1.00
O925   O     0.08218   0.68330   0.67816   0.00000  Uiso   1.00
N926   N     0.25083   0.99342   0.74925   0.00000  Uiso   1.00
O927   O     0.21989   0.97313   0.71127   0.00000  Uiso   1.00
O928   O     0.22867   0.99741   0.79194   0.00000  Uiso   1.00
O929   O     0.63052   0.91298   0.75309   0.00000  Uiso   1.00
O930   O     0.36948   0.75369   0.74690   0.00000  Uiso   1.00
O931   O     0.39155   0.90368   0.74501   0.00000  Uiso   1.00
O932   O     0.60845   0.76298   0.75498   0.00000  Uiso   1.00
C933   C     0.34769   0.93116   0.74619   0.00000  Uiso   1.00
C934   C     0.65123   0.73519   0.74829   0.00000  Uiso   1.00
O935   O     0.63662   0.84063   0.82247   0.00000  Uiso   1.00
O936   O     0.36338   0.82603   0.67753   0.00000  Uiso   1.00
O937   O     0.39764   0.83134   0.81439   0.00000  Uiso   1.00
O938   O     0.60236   0.83533   0.68561   0.00000  Uiso   1.00
C939   C     0.35410   0.83783   0.84138   0.00000  Uiso   1.00
C940   C     0.64578   0.82823   0.65878   0.00000  Uiso   1.00
Zn941  Zn    0.60366   0.83954   0.75539   0.00000  Uiso   1.00
Zn942  Zn    0.39634   0.82713   0.74460   0.00000  Uiso   1.00
C943   C     0.36358   0.84221   0.89468   0.00000  Uiso   1.00
C944   C     0.63497   0.81776   0.60620   0.00000  Uiso   1.00
C945   C     0.34769   0.87936   0.97592   0.00000  Uiso   1.00
C946   C     0.64078   0.76373   0.53147   0.00000  Uiso   1.00
C947   C     0.66274   0.86996   0.92684   0.00000  Uiso   1.00
C948   C     0.66288   0.78019   0.57869   0.00000  Uiso   1.00
C949   C     0.41225   0.82128   0.91301   0.00000  Uiso   1.00
C950   C     0.58797   0.83937   0.58598   0.00000  Uiso   1.00
C951   C     0.43130   0.83065   0.96191   0.00000  Uiso   1.00
C952   C     0.56116   0.81835   0.54203   0.00000  Uiso   1.00
C953   C     0.39930   0.86182   0.99309   0.00000  Uiso   1.00
C954   C     0.58945   0.78139   0.51369   0.00000  Uiso   1.00
C955   C     0.48344   0.81284   0.97948   0.00000  Uiso   1.00
C956   C     0.50641   0.83208   0.52638   0.00000  Uiso   1.00
C957   C     0.47280   0.86249   0.55694   0.00000  Uiso   1.00
C958   C     0.51315   0.77628   0.95185   0.00000  Uiso   1.00
C959   C     0.41979   0.87627   0.54069   0.00000  Uiso   1.00
C960   C     0.56519   0.76098   0.96879   0.00000  Uiso   1.00
H961   H     0.39526   0.89934   0.56527   0.00000  Uiso   1.00
H962   H     0.58613   0.73234   0.94690   0.00000  Uiso   1.00
H963   H     0.57143   0.87102   0.60698   0.00000  Uiso   1.00
H964   H     0.43702   0.80065   0.88724   0.00000  Uiso   1.00
H965   H     0.65587   0.90210   0.50024   0.00000  Uiso   1.00
H966   H     0.66186   0.73511   0.50970   0.00000  Uiso   1.00
H967   H     0.48504   0.87469   0.59451   0.00000  Uiso   1.00
H968   H     0.49627   0.75682   0.91778   0.00000  Uiso   1.00
C969   C     0.35366   0.98441   0.73743   0.00000  Uiso   1.00
C970   C     0.64181   0.68072   0.74354   0.00000  Uiso   1.00
N971   N     0.48029   0.81883   0.73739   0.00000  Uiso   1.00
N972   N     0.51971   0.84784   0.76260   0.00000  Uiso   1.00
H973   H     0.49582   0.79127   0.71386   0.00000  Uiso   1.00
H974   H     0.50418   0.87541   0.78612   0.00000  Uiso   1.00
N975   N     0.37751   0.75666   0.59964   0.00000  Uiso   1.00
H976   H     0.41213   0.78455   0.60302   0.00000  Uiso   1.00
H977   H     0.38950   0.72656   0.57593   0.00000  Uiso   1.00
N978   N     0.61130   0.89133   0.91063   0.00000  Uiso   1.00
H979   H     0.62072   0.91626   0.88304   0.00000  Uiso   1.00
H980   H     0.58205   0.86106   0.89668   0.00000  Uiso   1.00
N981   N     0.40865   0.67095   0.72295   0.00000  Uiso   1.00
O982   O     0.45203   0.67540   0.75439   0.00000  Uiso   1.00
O983   O     0.41551   0.68330   0.67816   0.00000  Uiso   1.00
N984   N     0.58417   0.99342   0.74925   0.00000  Uiso   1.00
O985   O     0.55323   0.97313   0.71127   0.00000  Uiso   1.00
O986   O     0.56200   0.99741   0.79194   0.00000  Uiso   1.00
O987   O     0.96386   0.91298   0.75309   0.00000  Uiso   1.00
O988   O     0.70281   0.75369   0.74690   0.00000  Uiso   1.00
O989   O     0.72488   0.90368   0.74501   0.00000  Uiso   1.00
O990   O     0.94178   0.76298   0.75498   0.00000  Uiso   1.00
C991   C     0.68102   0.93116   0.74619   0.00000  Uiso   1.00
C992   C     0.98457   0.73519   0.74829   0.00000  Uiso   1.00
O993   O     0.96995   0.84063   0.82247   0.00000  Uiso   1.00
O994   O     0.69672   0.82603   0.67753   0.00000  Uiso   1.00
O995   O     0.73098   0.83134   0.81439   0.00000  Uiso   1.00
O996   O     0.93569   0.83533   0.68561   0.00000  Uiso   1.00
C997   C     0.68743   0.83783   0.84138   0.00000  Uiso   1.00
C998   C     0.97911   0.82823   0.65878   0.00000  Uiso   1.00
Zn999  Zn    0.93700   0.83954   0.75539   0.00000  Uiso   1.00
Zn1000 Zn    0.72967   0.82713   0.74460   0.00000  Uiso   1.00
C1001  C     0.69692   0.84221   0.89468   0.00000  Uiso   1.00
C1002  C     0.96830   0.81776   0.60620   0.00000  Uiso   1.00
C1003  C     0.68102   0.87936   0.97592   0.00000  Uiso   1.00
C1004  C     0.97411   0.76373   0.53147   0.00000  Uiso   1.00
C1005  C     0.99607   0.86996   0.92684   0.00000  Uiso   1.00
C1006  C     0.99621   0.78019   0.57869   0.00000  Uiso   1.00
C1007  C     0.74558   0.82128   0.91301   0.00000  Uiso   1.00
C1008  C     0.92130   0.83937   0.58598   0.00000  Uiso   1.00
C1009  C     0.76464   0.83065   0.96191   0.00000  Uiso   1.00
C1010  C     0.89449   0.81835   0.54203   0.00000  Uiso   1.00
C1011  C     0.73263   0.86182   0.99309   0.00000  Uiso   1.00
C1012  C     0.92278   0.78139   0.51369   0.00000  Uiso   1.00
C1013  C     0.81677   0.81284   0.97948   0.00000  Uiso   1.00
C1014  C     0.83974   0.83208   0.52638   0.00000  Uiso   1.00
C1015  C     0.80613   0.86249   0.55694   0.00000  Uiso   1.00
C1016  C     0.84648   0.77628   0.95185   0.00000  Uiso   1.00
C1017  C     0.75312   0.87627   0.54069   0.00000  Uiso   1.00
C1018  C     0.89853   0.76098   0.96879   0.00000  Uiso   1.00
H1019  H     0.72860   0.89934   0.56527   0.00000  Uiso   1.00
H1020  H     0.91946   0.73234   0.94690   0.00000  Uiso   1.00
H1021  H     0.90476   0.87102   0.60698   0.00000  Uiso   1.00
H1022  H     0.77036   0.80065   0.88724   0.00000  Uiso   1.00
H1023  H     0.98920   0.90210   0.50024   0.00000  Uiso   1.00
H1024  H     0.99520   0.73511   0.50970   0.00000  Uiso   1.00
H1025  H     0.81838   0.87469   0.59451   0.00000  Uiso   1.00
H1026  H     0.82960   0.75682   0.91778   0.00000  Uiso   1.00
C1027  C     0.68699   0.98441   0.73743   0.00000  Uiso   1.00
C1028  C     0.97515   0.68072   0.74354   0.00000  Uiso   1.00
N1029  N     0.81362   0.81883   0.73739   0.00000  Uiso   1.00
N1030  N     0.85305   0.84784   0.76260   0.00000  Uiso   1.00
H1031  H     0.82915   0.79127   0.71386   0.00000  Uiso   1.00
H1032  H     0.83752   0.87541   0.78612   0.00000  Uiso   1.00
N1033  N     0.71084   0.75666   0.59964   0.00000  Uiso   1.00
H1034  H     0.74546   0.78455   0.60302   0.00000  Uiso   1.00
H1035  H     0.72283   0.72656   0.57593   0.00000  Uiso   1.00
N1036  N     0.94463   0.89133   0.91063   0.00000  Uiso   1.00
H1037  H     0.95405   0.91626   0.88304   0.00000  Uiso   1.00
H1038  H     0.91539   0.86106   0.89668   0.00000  Uiso   1.00
N1039  N     0.74199   0.67095   0.72295   0.00000  Uiso   1.00
O1040  O     0.78536   0.67540   0.75439   0.00000  Uiso   1.00
O1041  O     0.74885   0.68330   0.67816   0.00000  Uiso   1.00
N1042  N     0.91750   0.99342   0.74925   0.00000  Uiso   1.00
O1043  O     0.88656   0.97313   0.71127   0.00000  Uiso   1.00
O1044  O     0.89533   0.99741   0.79194   0.00000  Uiso   1.00
loop_
_geom_bond_atom_site_label_1
_geom_bond_atom_site_label_2
_geom_bond_distance
_geom_bond_site_symmetry_2
_ccdc_geom_bond_type
O1     Zn13    1.967   .     S
O1     C63     1.270   .     S
O2     Zn14    1.967   .     S
O2     C122    1.273   1_455 S
O3     C5      1.297   .     A
O3     Zn14    1.997   .     S
O4     C6      1.293   .     A
O4     Zn13    1.997   .     S
C5     C41     1.415   .     S
C5     O117    1.270   1_455 S
C6     C42     1.410   .     S
C6     O60     1.273   .     S
O7     Zn13    1.960   .     S
O7     C69     1.290   .     S
O8     Zn14    1.960   .     S
O8     C128    1.289   1_455 S
O9     Zn14    1.905   .     S
O9     C11     1.302   .     A
O10    C12     1.300   .     A
O10    Zn13    1.905   .     S
C11    C15     1.463   .     S
C11    O123    1.290   1_455 S
C12    C16     1.455   .     S
C12    O66     1.289   .     S
Zn13   N44     2.017   .     S
Zn14   N43     2.017   .     S
C15    C21     1.391   .     A
C15    C135    1.416   1_455 S
C16    C20     1.411   .     A
C16    C22     1.386   .     A
C17    C25     1.400   .     A
C17    C135    1.394   1_455 S
C17    H675    1.085   1_455 S
C18    C26     1.401   .     A
C18    H38     1.084   .     S
C18    C20     1.401   .     A
C19    N50     1.433   .     S
C19    C73     1.416   .     S
C19    C75     1.394   .     S
C20    N105    1.437   .     S
C21    H36     1.075   .     S
C21    C23     1.394   .     A
C22    H35     1.078   .     S
C22    C24     1.393   .     A
C23    C27     1.418   .     A
C23    C25     1.416   .     A
C24    C28     1.417   .     A
C24    C26     1.417   .     A
C25    C553    1.388   .     S
C26    C554    1.388   1_554 S
C27    C30     1.418   .     A
C27    C550    1.417   .     S
C28    C29     1.418   .     A
C28    C549    1.417   1_554 S
C29    H39     1.077   .     S
C29    C31     1.385   .     A
C30    C32     1.385   .     A
C30    H40     1.077   .     S
C31    H33     1.085   .     S
C31    C547    1.388   1_554 S
C32    H34     1.084   .     S
C32    C548    1.388   .     S
H37    C597    1.085   1_554 S
C41    C332    1.367   1_455 S
C41    N227    1.436   .     S
C42    C447    1.367   1_545 S
C42    N404    1.437   1_545 S
N43    H45     1.029   .     S
N43    N44     1.294   .     D
N44    H46     1.029   .     S
N47    H48     1.044   .     S
N47    H49     1.046   .     S
N47    C136    1.437   1_455 S
N50    H52     1.045   .     S
N50    H51     1.045   .     S
N53    O55     1.301   .     A
N53    O54     1.299   .     A
N53    C389    1.436   1_545 S
N56    O57     1.302   .     A
N56    O58     1.301   .     A
N56    C216    1.437   .     S
O59    Zn71    1.967   .     S
O59    C121    1.270   .     S
O60    Zn72    1.967   .     S
O61    C63     1.297   .     A
O61    Zn72    1.997   .     S
O62    C64     1.293   .     A
O62    Zn71    1.997   .     S
C63    C99     1.415   .     S
C64    C100    1.410   .     S
C64    O118    1.273   .     S
O65    Zn71    1.960   .     S
O65    C127    1.290   .     S
O66    Zn72    1.960   .     S
O67    Zn72    1.905   .     S
O67    C69     1.302   .     A
O68    C70     1.300   .     A
O68    Zn71    1.905   .     S
C69    C73     1.463   .     S
C70    C74     1.455   .     S
C70    O124    1.289   .     S
Zn71   N102    2.017   .     S
Zn72   N101    2.017   .     S
C73    C79     1.391   .     A
C74    C78     1.411   .     A
C74    C80     1.386   .     A
C75    C83     1.400   .     A
C75    H559    1.085   .     S
C76    C84     1.401   .     A
C76    H96     1.084   .     S
C76    C78     1.401   .     A
C77    N108    1.433   .     S
C77    C131    1.416   .     S
C77    C133    1.394   .     S
C78    N163    1.437   .     S
C79    H94     1.075   .     S
C79    C81     1.394   .     A
C80    H93     1.078   .     S
C80    C82     1.393   .     A
C81    C85     1.418   .     A
C81    C83     1.416   .     A
C82    C86     1.417   .     A
C82    C84     1.417   .     A
C83    C611    1.388   .     S
C84    C612    1.388   1_554 S
C85    C88     1.418   .     A
C85    C608    1.417   .     S
C86    C87     1.418   .     A
C86    C607    1.417   1_554 S
C87    H97     1.077   .     S
C87    C89     1.385   .     A
C88    C90     1.385   .     A
C88    H98     1.077   .     S
C89    H91     1.085   .     S
C89    C605    1.388   1_554 S
C90    H92     1.084   .     S
C90    C606    1.388   .     S
H95    C655    1.085   1_554 S
C99    C216    1.367   .     S
C99    N285    1.436   .     S
C100   C505    1.367   1_545 S
C100   N462    1.437   1_545 S
N101   H103    1.029   .     S
N101   N102    1.294   .     D
N102   H104    1.029   .     S
N105   H106    1.044   .     S
N105   H107    1.046   .     S
N108   H110    1.045   .     S
N108   H109    1.045   .     S
N111   O113    1.301   .     A
N111   O112    1.299   .     A
N111   C447    1.436   1_545 S
N114   O115    1.302   .     A
N114   O116    1.301   .     A
N114   C274    1.437   .     S
O117   Zn129   1.967   .     S
O117   C5      1.270   1_655 S
O118   Zn130   1.967   .     S
O119   C121    1.297   .     A
O119   Zn130   1.997   .     S
O120   C122    1.293   .     A
O120   Zn129   1.997   .     S
C121   C157    1.415   .     S
C122   C158    1.410   .     S
C122   O2      1.273   1_655 S
O123   Zn129   1.960   .     S
O123   C11     1.290   1_655 S
O124   Zn130   1.960   .     S
O125   Zn130   1.905   .     S
O125   C127    1.302   .     A
O126   C128    1.300   .     A
O126   Zn129   1.905   .     S
C127   C131    1.463   .     S
C128   C132    1.455   .     S
C128   O8      1.289   1_655 S
Zn129  N160    2.017   .     S
Zn130  N159    2.017   .     S
C131   C137    1.391   .     A
C132   C136    1.411   .     A
C132   C138    1.386   .     A
C133   C141    1.400   .     A
C133   H617    1.085   .     S
C134   C142    1.401   .     A
C134   H154    1.084   .     S
C134   C136    1.401   .     A
C135   N166    1.433   .     S
C135   C15     1.416   1_655 S
C135   C17     1.394   1_655 S
C136   N47     1.437   1_655 S
C137   H152    1.075   .     S
C137   C139    1.394   .     A
C138   H151    1.078   .     S
C138   C140    1.393   .     A
C139   C143    1.418   .     A
C139   C141    1.416   .     A
C140   C144    1.417   .     A
C140   C142    1.417   .     A
C141   C669    1.388   .     S
C142   C670    1.388   1_554 S
C143   C146    1.418   .     A
C143   C666    1.417   .     S
C144   C145    1.418   .     A
C144   C665    1.417   1_554 S
C145   H155    1.077   .     S
C145   C147    1.385   .     A
C146   C148    1.385   .     A
C146   H156    1.077   .     S
C147   H149    1.085   .     S
C147   C663    1.388   1_554 S
C148   H150    1.084   .     S
C148   C664    1.388   .     S
H153   C539    1.085   1_654 S
C157   C274    1.367   .     S
C157   N343    1.436   .     S
C158   C389    1.367   1_645 S
C158   N520    1.437   1_545 S
N159   H161    1.029   .     S
N159   N160    1.294   .     D
N160   H162    1.029   .     S
N163   H164    1.044   .     S
N163   H165    1.046   .     S
N166   H168    1.045   .     S
N166   H167    1.045   .     S
N169   O171    1.301   .     A
N169   O170    1.299   .     A
N169   C505    1.436   1_545 S
N172   O173    1.302   .     A
N172   O174    1.301   .     A
N172   C332    1.437   .     S
O175   Zn187   1.967   .     S
O175   C237    1.270   .     S
O176   Zn188   1.967   .     S
O176   C296    1.273   1_455 S
O177   C179    1.297   .     A
O177   Zn188   1.997   .     S
O178   C180    1.293   .     A
O178   Zn187   1.997   .     S
C179   C215    1.415   .     S
C179   O291    1.270   1_455 S
C180   C216    1.410   .     S
C180   O234    1.273   .     S
O181   Zn187   1.960   .     S
O181   C243    1.290   .     S
O182   Zn188   1.960   .     S
O182   C302    1.289   1_455 S
O183   Zn188   1.905   .     S
O183   C185    1.302   .     A
O184   C186    1.300   .     A
O184   Zn187   1.905   .     S
C185   C189    1.463   .     S
C185   O297    1.290   1_455 S
C186   C190    1.455   .     S
C186   O240    1.289   .     S
Zn187  N218    2.017   .     S
Zn188  N217    2.017   .     S
C189   C195    1.391   .     A
C189   C309    1.416   1_455 S
C190   C194    1.411   .     A
C190   C196    1.386   .     A
C191   C199    1.400   .     A
C191   C309    1.394   1_455 S
C191   H849    1.085   1_455 S
C192   C200    1.401   .     A
C192   H212    1.084   .     S
C192   C194    1.401   .     A
C193   N224    1.433   .     S
C193   C247    1.416   .     S
C193   C249    1.394   .     S
C194   N279    1.437   .     S
C195   H210    1.075   .     S
C195   C197    1.394   .     A
C196   H209    1.078   .     S
C196   C198    1.393   .     A
C197   C201    1.418   .     A
C197   C199    1.416   .     A
C198   C202    1.417   .     A
C198   C200    1.417   .     A
C199   C727    1.388   .     S
C200   C728    1.388   1_554 S
C201   C204    1.418   .     A
C201   C724    1.417   .     S
C202   C203    1.418   .     A
C202   C723    1.417   1_554 S
C203   H213    1.077   .     S
C203   C205    1.385   .     A
C204   C206    1.385   .     A
C204   H214    1.077   .     S
C205   H207    1.085   .     S
C205   C721    1.388   1_554 S
C206   H208    1.084   .     S
C206   C722    1.388   .     S
H211   C771    1.085   1_554 S
C215   C506    1.367   1_455 S
C215   N401    1.436   .     S
N217   H219    1.029   .     S
N217   N218    1.294   .     D
N218   H220    1.029   .     S
N221   H222    1.044   .     S
N221   H223    1.046   .     S
N221   C310    1.437   1_455 S
N224   H226    1.045   .     S
N224   H225    1.045   .     S
N227   O229    1.301   .     A
N227   O228    1.299   .     A
N230   O231    1.302   .     A
N230   O232    1.301   .     A
N230   C390    1.437   .     S
O233   Zn245   1.967   .     S
O233   C295    1.270   .     S
O234   Zn246   1.967   .     S
O235   C237    1.297   .     A
O235   Zn246   1.997   .     S
O236   C238    1.293   .     A
O236   Zn245   1.997   .     S
C237   C273    1.415   .     S
C238   C274    1.410   .     S
C238   O292    1.273   .     S
O239   Zn245   1.960   .     S
O239   C301    1.290   .     S
O240   Zn246   1.960   .     S
O241   Zn246   1.905   .     S
O241   C243    1.302   .     A
O242   C244    1.300   .     A
O242   Zn245   1.905   .     S
C243   C247    1.463   .     S
C244   C248    1.455   .     S
C244   O298    1.289   .     S
Zn245  N276    2.017   .     S
Zn246  N275    2.017   .     S
C247   C253    1.391   .     A
C248   C252    1.411   .     A
C248   C254    1.386   .     A
C249   C257    1.400   .     A
C249   H733    1.085   .     S
C250   C258    1.401   .     A
C250   H270    1.084   .     S
C250   C252    1.401   .     A
C251   N282    1.433   .     S
C251   C305    1.416   .     S
C251   C307    1.394   .     S
C252   N337    1.437   .     S
C253   H268    1.075   .     S
C253   C255    1.394   .     A
C254   H267    1.078   .     S
C254   C256    1.393   .     A
C255   C259    1.418   .     A
C255   C257    1.416   .     A
C256   C260    1.417   .     A
C256   C258    1.417   .     A
C257   C785    1.388   .     S
C258   C786    1.388   1_554 S
C259   C262    1.418   .     A
C259   C782    1.417   .     S
C260   C261    1.418   .     A
C260   C781    1.417   1_554 S
C261   H271    1.077   .     S
C261   C263    1.385   .     A
C262   C264    1.385   .     A
C262   H272    1.077   .     S
C263   H265    1.085   .     S
C263   C779    1.388   1_554 S
C264   H266    1.084   .     S
C264   C780    1.388   .     S
H269   C829    1.085   1_554 S
C273   C390    1.367   .     S
C273   N459    1.436   .     S
N275   H277    1.029   .     S
N275   N276    1.294   .     D
N276   H278    1.029   .     S
N279   H280    1.044   .     S
N279   H281    1.046   .     S
N282   H284    1.045   .     S
N282   H283    1.045   .     S
N285   O287    1.301   .     A
N285   O286    1.299   .     A
N288   O289    1.302   .     A
N288   O290    1.301   .     A
N288   C448    1.437   .     S
O291   Zn303   1.967   .     S
O291   C179    1.270   1_655 S
O292   Zn304   1.967   .     S
O293   C295    1.297   .     A
O293   Zn304   1.997   .     S
O294   C296    1.293   .     A
O294   Zn303   1.997   .     S
C295   C331    1.415   .     S
C296   C332    1.410   .     S
C296   O176    1.273   1_655 S
O297   Zn303   1.960   .     S
O297   C185    1.290   1_655 S
O298   Zn304   1.960   .     S
O299   Zn304   1.905   .     S
O299   C301    1.302   .     A
O300   C302    1.300   .     A
O300   Zn303   1.905   .     S
C301   C305    1.463   .     S
C302   C306    1.455   .     S
C302   O182    1.289   1_655 S
Zn303  N334    2.017   .     S
Zn304  N333    2.017   .     S
C305   C311    1.391   .     A
C306   C310    1.411   .     A
C306   C312    1.386   .     A
C307   C315    1.400   .     A
C307   H791    1.085   .     S
C308   C316    1.401   .     A
C308   H328    1.084   .     S
C308   C310    1.401   .     A
C309   N340    1.433   .     S
C309   C189    1.416   1_655 S
C309   C191    1.394   1_655 S
C310   N221    1.437   1_655 S
C311   H326    1.075   .     S
C311   C313    1.394   .     A
C312   H325    1.078   .     S
C312   C314    1.393   .     A
C313   C317    1.418   .     A
C313   C315    1.416   .     A
C314   C318    1.417   .     A
C314   C316    1.417   .     A
C315   C843    1.388   .     S
C316   C844    1.388   1_554 S
C317   C320    1.418   .     A
C317   C840    1.417   .     S
C318   C319    1.418   .     A
C318   C839    1.417   1_554 S
C319   H329    1.077   .     S
C319   C321    1.385   .     A
C320   C322    1.385   .     A
C320   H330    1.077   .     S
C321   H323    1.085   .     S
C321   C837    1.388   1_554 S
C322   H324    1.084   .     S
C322   C838    1.388   .     S
H327   C713    1.085   1_654 S
C331   C448    1.367   .     S
C331   N517    1.436   .     S
C332   C41     1.367   1_655 S
N333   H335    1.029   .     S
N333   N334    1.294   .     D
N334   H336    1.029   .     S
N337   H338    1.044   .     S
N337   H339    1.046   .     S
N340   H342    1.045   .     S
N340   H341    1.045   .     S
N343   O345    1.301   .     A
N343   O344    1.299   .     A
N346   O347    1.302   .     A
N346   O348    1.301   .     A
N346   C506    1.437   .     S
O349   Zn361   1.967   .     S
O349   C411    1.270   .     S
O350   Zn362   1.967   .     S
O350   C470    1.273   1_455 S
O351   C353    1.297   .     A
O351   Zn362   1.997   .     S
O352   C354    1.293   .     A
O352   Zn361   1.997   .     S
C353   C389    1.415   .     S
C353   O465    1.270   1_455 S
C354   C390    1.410   .     S
C354   O408    1.273   .     S
O355   Zn361   1.960   .     S
O355   C417    1.290   .     S
O356   Zn362   1.960   .     S
O356   C476    1.289   1_455 S
O357   Zn362   1.905   .     S
O357   C359    1.302   .     A
O358   C360    1.300   .     A
O358   Zn361   1.905   .     S
C359   C363    1.463   .     S
C359   O471    1.290   1_455 S
C360   C364    1.455   .     S
C360   O414    1.289   .     S
Zn361  N392    2.017   .     S
Zn362  N391    2.017   .     S
C363   C369    1.391   .     A
C363   C483    1.416   1_455 S
C364   C368    1.411   .     A
C364   C370    1.386   .     A
C365   C373    1.400   .     A
C365   C483    1.394   1_455 S
C365   H1023   1.085   1_455 S
C366   C374    1.401   .     A
C366   H386    1.084   .     S
C366   C368    1.401   .     A
C367   N398    1.433   .     S
C367   C421    1.416   .     S
C367   C423    1.394   .     S
C368   N453    1.437   .     S
C369   H384    1.075   .     S
C369   C371    1.394   .     A
C370   H383    1.078   .     S
C370   C372    1.393   .     A
C371   C375    1.418   .     A
C371   C373    1.416   .     A
C372   C376    1.417   .     A
C372   C374    1.417   .     A
C373   C901    1.388   .     S
C374   C902    1.388   1_554 S
C375   C378    1.418   .     A
C375   C898    1.417   .     S
C376   C377    1.418   .     A
C376   C897    1.417   1_554 S
C377   H387    1.077   .     S
C377   C379    1.385   .     A
C378   C380    1.385   .     A
C378   H388    1.077   .     S
C379   H381    1.085   .     S
C379   C895    1.388   1_554 S
C380   H382    1.084   .     S
C380   C896    1.388   .     S
H385   C945    1.085   1_554 S
C389   C158    1.367   1_465 S
C389   N53     1.436   1_565 S
N391   H393    1.029   .     S
N391   N392    1.294   .     D
N392   H394    1.029   .     S
N395   H396    1.044   .     S
N395   H397    1.046   .     S
N395   C484    1.437   1_455 S
N398   H400    1.045   .     S
N398   H399    1.045   .     S
N401   O403    1.301   .     A
N401   O402    1.299   .     A
N404   O405    1.302   .     A
N404   O406    1.301   .     A
N404   C42     1.437   1_565 S
O407   Zn419   1.967   .     S
O407   C469    1.270   .     S
O408   Zn420   1.967   .     S
O409   C411    1.297   .     A
O409   Zn420   1.997   .     S
O410   C412    1.293   .     A
O410   Zn419   1.997   .     S
C411   C447    1.415   .     S
C412   C448    1.410   .     S
C412   O466    1.273   .     S
O413   Zn419   1.960   .     S
O413   C475    1.290   .     S
O414   Zn420   1.960   .     S
O415   Zn420   1.905   .     S
O415   C417    1.302   .     A
O416   C418    1.300   .     A
O416   Zn419   1.905   .     S
C417   C421    1.463   .     S
C418   C422    1.455   .     S
C418   O472    1.289   .     S
Zn419  N450    2.017   .     S
Zn420  N449    2.017   .     S
C421   C427    1.391   .     A
C422   C426    1.411   .     A
C422   C428    1.386   .     A
C423   C431    1.400   .     A
C423   H907    1.085   .     S
C424   C432    1.401   .     A
C424   H444    1.084   .     S
C424   C426    1.401   .     A
C425   N456    1.433   .     S
C425   C479    1.416   .     S
C425   C481    1.394   .     S
C426   N511    1.437   .     S
C427   H442    1.075   .     S
C427   C429    1.394   .     A
C428   H441    1.078   .     S
C428   C430    1.393   .     A
C429   C433    1.418   .     A
C429   C431    1.416   .     A
C430   C434    1.417   .     A
C430   C432    1.417   .     A
C431   C959    1.388   .     S
C432   C960    1.388   1_554 S
C433   C436    1.418   .     A
C433   C956    1.417   .     S
C434   C435    1.418   .     A
C434   C955    1.417   1_554 S
C435   H445    1.077   .     S
C435   C437    1.385   .     A
C436   C438    1.385   .     A
C436   H446    1.077   .     S
C437   H439    1.085   .     S
C437   C953    1.388   1_554 S
C438   H440    1.084   .     S
C438   C954    1.388   .     S
H443   C1003   1.085   1_554 S
C447   C42     1.367   1_565 S
C447   N111    1.436   1_565 S
N449   H451    1.029   .     S
N449   N450    1.294   .     D
N450   H452    1.029   .     S
N453   H454    1.044   .     S
N453   H455    1.046   .     S
N456   H458    1.045   .     S
N456   H457    1.045   .     S
N459   O461    1.301   .     A
N459   O460    1.299   .     A
N462   O463    1.302   .     A
N462   O464    1.301   .     A
N462   C100    1.437   1_565 S
O465   Zn477   1.967   .     S
O465   C353    1.270   1_655 S
O466   Zn478   1.967   .     S
O467   C469    1.297   .     A
O467   Zn478   1.997   .     S
O468   C470    1.293   .     A
O468   Zn477   1.997   .     S
C469   C505    1.415   .     S
C470   C506    1.410   .     S
C470   O350    1.273   1_655 S
O471   Zn477   1.960   .     S
O471   C359    1.290   1_655 S
O472   Zn478   1.960   .     S
O473   Zn478   1.905   .     S
O473   C475    1.302   .     A
O474   C476    1.300   .     A
O474   Zn477   1.905   .     S
C475   C479    1.463   .     S
C476   C480    1.455   .     S
C476   O356    1.289   1_655 S
Zn477  N508    2.017   .     S
Zn478  N507    2.017   .     S
C479   C485    1.391   .     A
C480   C484    1.411   .     A
C480   C486    1.386   .     A
C481   C489    1.400   .     A
C481   H965    1.085   .     S
C482   C490    1.401   .     A
C482   H502    1.084   .     S
C482   C484    1.401   .     A
C483   N514    1.433   .     S
C483   C363    1.416   1_655 S
C483   C365    1.394   1_655 S
C484   N395    1.437   1_655 S
C485   H500    1.075   .     S
C485   C487    1.394   .     A
C486   H499    1.078   .     S
C486   C488    1.393   .     A
C487   C491    1.418   .     A
C487   C489    1.416   .     A
C488   C492    1.417   .     A
C488   C490    1.417   .     A
C489   C1017   1.388   .     S
C490   C1018   1.388   1_554 S
C491   C494    1.418   .     A
C491   C1014   1.417   .     S
C492   C493    1.418   .     A
C492   C1013   1.417   1_554 S
C493   H503    1.077   .     S
C493   C495    1.385   .     A
C494   C496    1.385   .     A
C494   H504    1.077   .     S
C495   H497    1.085   .     S
C495   C1011   1.388   1_554 S
C496   H498    1.084   .     S
C496   C1012   1.388   .     S
H501   C887    1.085   1_654 S
C505   C100    1.367   1_565 S
C505   N169    1.436   1_565 S
C506   C215    1.367   1_655 S
N507   H509    1.029   .     S
N507   N508    1.294   .     D
N508   H510    1.029   .     S
N511   H512    1.044   .     S
N511   H513    1.046   .     S
N514   H516    1.045   .     S
N514   H515    1.045   .     S
N517   O519    1.301   .     A
N517   O518    1.299   .     A
N520   O521    1.302   .     A
N520   O522    1.301   .     A
N520   C158    1.437   1_565 S
O523   Zn535   1.967   .     S
O523   C585    1.270   .     S
O524   Zn536   1.967   .     S
O524   C644    1.273   1_455 S
O525   C527    1.297   .     A
O525   Zn536   1.997   .     S
O526   C528    1.293   .     A
O526   Zn535   1.997   .     S
C527   C563    1.415   .     S
C527   O639    1.270   1_455 S
C528   C564    1.410   .     S
C528   O582    1.273   .     S
O529   Zn535   1.960   .     S
O529   C591    1.290   .     S
O530   Zn536   1.960   .     S
O530   C650    1.289   1_455 S
O531   Zn536   1.905   .     S
O531   C533    1.302   .     A
O532   C534    1.300   .     A
O532   Zn535   1.905   .     S
C533   C537    1.463   .     S
C533   O645    1.290   1_455 S
C534   C538    1.455   .     S
C534   O588    1.289   .     S
Zn535  N566    2.017   .     S
Zn536  N565    2.017   .     S
C537   C543    1.391   .     A
C537   C657    1.416   1_455 S
C538   C542    1.411   .     A
C538   C544    1.386   .     A
C539   C547    1.400   .     A
C539   C657    1.394   1_455 S
C539   H153    1.085   1_456 S
C540   C548    1.401   .     A
C540   H560    1.084   .     S
C540   C542    1.401   .     A
C541   N572    1.433   .     S
C541   C595    1.416   .     S
C541   C597    1.394   .     S
C542   N627    1.437   .     S
C543   H558    1.075   .     S
C543   C545    1.394   .     A
C544   H557    1.078   .     S
C544   C546    1.393   .     A
C545   C549    1.418   .     A
C545   C547    1.416   .     A
C546   C550    1.417   .     A
C546   C548    1.417   .     A
C547   C31     1.388   1_556 S
C549   C552    1.418   .     A
C549   C28     1.417   1_556 S
C550   C551    1.418   .     A
C551   H561    1.077   .     S
C551   C553    1.385   .     A
C552   C554    1.385   .     A
C552   H562    1.077   .     S
C553   H555    1.085   .     S
C554   H556    1.084   .     S
C554   C26     1.388   1_556 S
C563   C854    1.367   1_455 S
C563   N749    1.436   .     S
C564   C969    1.367   1_545 S
C564   N926    1.437   1_545 S
N565   H567    1.029   .     S
N565   N566    1.294   .     D
N566   H568    1.029   .     S
N569   H570    1.044   .     S
N569   H571    1.046   .     S
N569   C658    1.437   1_455 S
N572   H574    1.045   .     S
N572   H573    1.045   .     S
N575   O577    1.301   .     A
N575   O576    1.299   .     A
N575   C911    1.436   1_545 S
N578   O579    1.302   .     A
N578   O580    1.301   .     A
N578   C738    1.437   .     S
O581   Zn593   1.967   .     S
O581   C643    1.270   .     S
O582   Zn594   1.967   .     S
O583   C585    1.297   .     A
O583   Zn594   1.997   .     S
O584   C586    1.293   .     A
O584   Zn593   1.997   .     S
C585   C621    1.415   .     S
C586   C622    1.410   .     S
C586   O640    1.273   .     S
O587   Zn593   1.960   .     S
O587   C649    1.290   .     S
O588   Zn594   1.960   .     S
O589   Zn594   1.905   .     S
O589   C591    1.302   .     A
O590   C592    1.300   .     A
O590   Zn593   1.905   .     S
C591   C595    1.463   .     S
C592   C596    1.455   .     S
C592   O646    1.289   .     S
Zn593  N624    2.017   .     S
Zn594  N623    2.017   .     S
C595   C601    1.391   .     A
C596   C600    1.411   .     A
C596   C602    1.386   .     A
C597   C605    1.400   .     A
C597   H37     1.085   1_556 S
C598   C606    1.401   .     A
C598   H618    1.084   .     S
C598   C600    1.401   .     A
C599   N630    1.433   .     S
C599   C653    1.416   .     S
C599   C655    1.394   .     S
C600   N685    1.437   .     S
C601   H616    1.075   .     S
C601   C603    1.394   .     A
C602   H615    1.078   .     S
C602   C604    1.393   .     A
C603   C607    1.418   .     A
C603   C605    1.416   .     A
C604   C608    1.417   .     A
C604   C606    1.417   .     A
C605   C89     1.388   1_556 S
C607   C610    1.418   .     A
C607   C86     1.417   1_556 S
C608   C609    1.418   .     A
C609   H619    1.077   .     S
C609   C611    1.385   .     A
C610   C612    1.385   .     A
C610   H620    1.077   .     S
C611   H613    1.085   .     S
C612   H614    1.084   .     S
C612   C84     1.388   1_556 S
C621   C738    1.367   .     S
C621   N807    1.436   .     S
C622   C1027   1.367   1_545 S
C622   N984    1.437   1_545 S
N623   H625    1.029   .     S
N623   N624    1.294   .     D
N624   H626    1.029   .     S
N627   H628    1.044   .     S
N627   H629    1.046   .     S
N630   H632    1.045   .     S
N630   H631    1.045   .     S
N633   O635    1.301   .     A
N633   O634    1.299   .     A
N633   C969    1.436   1_545 S
N636   O637    1.302   .     A
N636   O638    1.301   .     A
N636   C796    1.437   .     S
O639   Zn651   1.967   .     S
O639   C527    1.270   1_655 S
O640   Zn652   1.967   .     S
O641   C643    1.297   .     A
O641   Zn652   1.997   .     S
O642   C644    1.293   .     A
O642   Zn651   1.997   .     S
C643   C679    1.415   .     S
C644   C680    1.410   .     S
C644   O524    1.273   1_655 S
O645   Zn651   1.960   .     S
O645   C533    1.290   1_655 S
O646   Zn652   1.960   .     S
O647   Zn652   1.905   .     S
O647   C649    1.302   .     A
O648   C650    1.300   .     A
O648   Zn651   1.905   .     S
C649   C653    1.463   .     S
C650   C654    1.455   .     S
C650   O530    1.289   1_655 S
Zn651  N682    2.017   .     S
Zn652  N681    2.017   .     S
C653   C659    1.391   .     A
C654   C658    1.411   .     A
C654   C660    1.386   .     A
C655   C663    1.400   .     A
C655   H95     1.085   1_556 S
C656   C664    1.401   .     A
C656   H676    1.084   .     S
C656   C658    1.401   .     A
C657   N688    1.433   .     S
C657   C537    1.416   1_655 S
C657   C539    1.394   1_655 S
C658   N569    1.437   1_655 S
C659   H674    1.075   .     S
C659   C661    1.394   .     A
C660   H673    1.078   .     S
C660   C662    1.393   .     A
C661   C665    1.418   .     A
C661   C663    1.416   .     A
C662   C666    1.417   .     A
C662   C664    1.417   .     A
C663   C147    1.388   1_556 S
C665   C668    1.418   .     A
C665   C144    1.417   1_556 S
C666   C667    1.418   .     A
C667   H677    1.077   .     S
C667   C669    1.385   .     A
C668   C670    1.385   .     A
C668   H678    1.077   .     S
C669   H671    1.085   .     S
C670   H672    1.084   .     S
C670   C142    1.388   1_556 S
H675   C17     1.085   1_655 S
C679   C796    1.367   .     S
C679   N865    1.436   .     S
C680   C911    1.367   1_645 S
C680   N1042   1.437   1_545 S
N681   H683    1.029   .     S
N681   N682    1.294   .     D
N682   H684    1.029   .     S
N685   H686    1.044   .     S
N685   H687    1.046   .     S
N688   H690    1.045   .     S
N688   H689    1.045   .     S
N691   O693    1.301   .     A
N691   O692    1.299   .     A
N691   C1027   1.436   1_545 S
N694   O695    1.302   .     A
N694   O696    1.301   .     A
N694   C854    1.437   .     S
O697   Zn709   1.967   .     S
O697   C759    1.270   .     S
O698   Zn710   1.967   .     S
O698   C818    1.273   1_455 S
O699   C701    1.297   .     A
O699   Zn710   1.997   .     S
O700   C702    1.293   .     A
O700   Zn709   1.997   .     S
C701   C737    1.415   .     S
C701   O813    1.270   1_455 S
C702   C738    1.410   .     S
C702   O756    1.273   .     S
O703   Zn709   1.960   .     S
O703   C765    1.290   .     S
O704   Zn710   1.960   .     S
O704   C824    1.289   1_455 S
O705   Zn710   1.905   .     S
O705   C707    1.302   .     A
O706   C708    1.300   .     A
O706   Zn709   1.905   .     S
C707   C711    1.463   .     S
C707   O819    1.290   1_455 S
C708   C712    1.455   .     S
C708   O762    1.289   .     S
Zn709  N740    2.017   .     S
Zn710  N739    2.017   .     S
C711   C717    1.391   .     A
C711   C831    1.416   1_455 S
C712   C716    1.411   .     A
C712   C718    1.386   .     A
C713   C721    1.400   .     A
C713   C831    1.394   1_455 S
C713   H327    1.085   1_456 S
C714   C722    1.401   .     A
C714   H734    1.084   .     S
C714   C716    1.401   .     A
C715   N746    1.433   .     S
C715   C769    1.416   .     S
C715   C771    1.394   .     S
C716   N801    1.437   .     S
C717   H732    1.075   .     S
C717   C719    1.394   .     A
C718   H731    1.078   .     S
C718   C720    1.393   .     A
C719   C723    1.418   .     A
C719   C721    1.416   .     A
C720   C724    1.417   .     A
C720   C722    1.417   .     A
C721   C205    1.388   1_556 S
C723   C726    1.418   .     A
C723   C202    1.417   1_556 S
C724   C725    1.418   .     A
C725   H735    1.077   .     S
C725   C727    1.385   .     A
C726   C728    1.385   .     A
C726   H736    1.077   .     S
C727   H729    1.085   .     S
C728   H730    1.084   .     S
C728   C200    1.388   1_556 S
C737   C1028   1.367   1_455 S
C737   N923    1.436   .     S
N739   H741    1.029   .     S
N739   N740    1.294   .     D
N740   H742    1.029   .     S
N743   H744    1.044   .     S
N743   H745    1.046   .     S
N743   C832    1.437   1_455 S
N746   H748    1.045   .     S
N746   H747    1.045   .     S
N749   O751    1.301   .     A
N749   O750    1.299   .     A
N752   O753    1.302   .     A
N752   O754    1.301   .     A
N752   C912    1.437   .     S
O755   Zn767   1.967   .     S
O755   C817    1.270   .     S
O756   Zn768   1.967   .     S
O757   C759    1.297   .     A
O757   Zn768   1.997   .     S
O758   C760    1.293   .     A
O758   Zn767   1.997   .     S
C759   C795    1.415   .     S
C760   C796    1.410   .     S
C760   O814    1.273   .     S
O761   Zn767   1.960   .     S
O761   C823    1.290   .     S
O762   Zn768   1.960   .     S
O763   Zn768   1.905   .     S
O763   C765    1.302   .     A
O764   C766    1.300   .     A
O764   Zn767   1.905   .     S
C765   C769    1.463   .     S
C766   C770    1.455   .     S
C766   O820    1.289   .     S
Zn767  N798    2.017   .     S
Zn768  N797    2.017   .     S
C769   C775    1.391   .     A
C770   C774    1.411   .     A
C770   C776    1.386   .     A
C771   C779    1.400   .     A
C771   H211    1.085   1_556 S
C772   C780    1.401   .     A
C772   H792    1.084   .     S
C772   C774    1.401   .     A
C773   N804    1.433   .     S
C773   C827    1.416   .     S
C773   C829    1.394   .     S
C774   N859    1.437   .     S
C775   H790    1.075   .     S
C775   C777    1.394   .     A
C776   H789    1.078   .     S
C776   C778    1.393   .     A
C777   C781    1.418   .     A
C777   C779    1.416   .     A
C778   C782    1.417   .     A
C778   C780    1.417   .     A
C779   C263    1.388   1_556 S
C781   C784    1.418   .     A
C781   C260    1.417   1_556 S
C782   C783    1.418   .     A
C783   H793    1.077   .     S
C783   C785    1.385   .     A
C784   C786    1.385   .     A
C784   H794    1.077   .     S
C785   H787    1.085   .     S
C786   H788    1.084   .     S
C786   C258    1.388   1_556 S
C795   C912    1.367   .     S
C795   N981    1.436   .     S
N797   H799    1.029   .     S
N797   N798    1.294   .     D
N798   H800    1.029   .     S
N801   H802    1.044   .     S
N801   H803    1.046   .     S
N804   H806    1.045   .     S
N804   H805    1.045   .     S
N807   O809    1.301   .     A
N807   O808    1.299   .     A
N810   O811    1.302   .     A
N810   O812    1.301   .     A
N810   C970    1.437   .     S
O813   Zn825   1.967   .     S
O813   C701    1.270   1_655 S
O814   Zn826   1.967   .     S
O815   C817    1.297   .     A
O815   Zn826   1.997   .     S
O816   C818    1.293   .     A
O816   Zn825   1.997   .     S
C817   C853    1.415   .     S
C818   C854    1.410   .     S
C818   O698    1.273   1_655 S
O819   Zn825   1.960   .     S
O819   C707    1.290   1_655 S
O820   Zn826   1.960   .     S
O821   Zn826   1.905   .     S
O821   C823    1.302   .     A
O822   C824    1.300   .     A
O822   Zn825   1.905   .     S
C823   C827    1.463   .     S
C824   C828    1.455   .     S
C824   O704    1.289   1_655 S
Zn825  N856    2.017   .     S
Zn826  N855    2.017   .     S
C827   C833    1.391   .     A
C828   C832    1.411   .     A
C828   C834    1.386   .     A
C829   C837    1.400   .     A
C829   H269    1.085   1_556 S
C830   C838    1.401   .     A
C830   H850    1.084   .     S
C830   C832    1.401   .     A
C831   N862    1.433   .     S
C831   C711    1.416   1_655 S
C831   C713    1.394   1_655 S
C832   N743    1.437   1_655 S
C833   H848    1.075   .     S
C833   C835    1.394   .     A
C834   H847    1.078   .     S
C834   C836    1.393   .     A
C835   C839    1.418   .     A
C835   C837    1.416   .     A
C836   C840    1.417   .     A
C836   C838    1.417   .     A
C837   C321    1.388   1_556 S
C839   C842    1.418   .     A
C839   C318    1.417   1_556 S
C840   C841    1.418   .     A
C841   H851    1.077   .     S
C841   C843    1.385   .     A
C842   C844    1.385   .     A
C842   H852    1.077   .     S
C843   H845    1.085   .     S
C844   H846    1.084   .     S
C844   C316    1.388   1_556 S
H849   C191    1.085   1_655 S
C853   C970    1.367   .     S
C853   N1039   1.436   .     S
C854   C563    1.367   1_655 S
N855   H857    1.029   .     S
N855   N856    1.294   .     D
N856   H858    1.029   .     S
N859   H860    1.044   .     S
N859   H861    1.046   .     S
N862   H864    1.045   .     S
N862   H863    1.045   .     S
N865   O867    1.301   .     A
N865   O866    1.299   .     A
N868   O869    1.302   .     A
N868   O870    1.301   .     A
N868   C1028   1.437   .     S
O871   Zn883   1.967   .     S
O871   C933    1.270   .     S
O872   Zn884   1.967   .     S
O872   C992    1.273   1_455 S
O873   C875    1.297   .     A
O873   Zn884   1.997   .     S
O874   C876    1.293   .     A
O874   Zn883   1.997   .     S
C875   C911    1.415   .     S
C875   O987    1.270   1_455 S
C876   C912    1.410   .     S
C876   O930    1.273   .     S
O877   Zn883   1.960   .     S
O877   C939    1.290   .     S
O878   Zn884   1.960   .     S
O878   C998    1.289   1_455 S
O879   Zn884   1.905   .     S
O879   C881    1.302   .     A
O880   C882    1.300   .     A
O880   Zn883   1.905   .     S
C881   C885    1.463   .     S
C881   O993    1.290   1_455 S
C882   C886    1.455   .     S
C882   O936    1.289   .     S
Zn883  N914    2.017   .     S
Zn884  N913    2.017   .     S
C885   C891    1.391   .     A
C885   C1005   1.416   1_455 S
C886   C890    1.411   .     A
C886   C892    1.386   .     A
C887   C895    1.400   .     A
C887   C1005   1.394   1_455 S
C887   H501    1.085   1_456 S
C888   C896    1.401   .     A
C888   H908    1.084   .     S
C888   C890    1.401   .     A
C889   N920    1.433   .     S
C889   C943    1.416   .     S
C889   C945    1.394   .     S
C890   N975    1.437   .     S
C891   H906    1.075   .     S
C891   C893    1.394   .     A
C892   H905    1.078   .     S
C892   C894    1.393   .     A
C893   C897    1.418   .     A
C893   C895    1.416   .     A
C894   C898    1.417   .     A
C894   C896    1.417   .     A
C895   C379    1.388   1_556 S
C897   C900    1.418   .     A
C897   C376    1.417   1_556 S
C898   C899    1.418   .     A
C899   H909    1.077   .     S
C899   C901    1.385   .     A
C900   C902    1.385   .     A
C900   H910    1.077   .     S
C901   H903    1.085   .     S
C902   H904    1.084   .     S
C902   C374    1.388   1_556 S
C911   C680    1.367   1_465 S
C911   N575    1.436   1_565 S
N913   H915    1.029   .     S
N913   N914    1.294   .     D
N914   H916    1.029   .     S
N917   H918    1.044   .     S
N917   H919    1.046   .     S
N917   C1006   1.437   1_455 S
N920   H922    1.045   .     S
N920   H921    1.045   .     S
N923   O925    1.301   .     A
N923   O924    1.299   .     A
N926   O927    1.302   .     A
N926   O928    1.301   .     A
N926   C564    1.437   1_565 S
O929   Zn941   1.967   .     S
O929   C991    1.270   .     S
O930   Zn942   1.967   .     S
O931   C933    1.297   .     A
O931   Zn942   1.997   .     S
O932   C934    1.293   .     A
O932   Zn941   1.997   .     S
C933   C969    1.415   .     S
C934   C970    1.410   .     S
C934   O988    1.273   .     S
O935   Zn941   1.960   .     S
O935   C997    1.290   .     S
O936   Zn942   1.960   .     S
O937   Zn942   1.905   .     S
O937   C939    1.302   .     A
O938   C940    1.300   .     A
O938   Zn941   1.905   .     S
C939   C943    1.463   .     S
C940   C944    1.455   .     S
C940   O994    1.289   .     S
Zn941  N972    2.017   .     S
Zn942  N971    2.017   .     S
C943   C949    1.391   .     A
C944   C948    1.411   .     A
C944   C950    1.386   .     A
C945   C953    1.400   .     A
C945   H385    1.085   1_556 S
C946   C954    1.401   .     A
C946   H966    1.084   .     S
C946   C948    1.401   .     A
C947   N978    1.433   .     S
C947   C1001   1.416   .     S
C947   C1003   1.394   .     S
C948   N1033   1.437   .     S
C949   H964    1.075   .     S
C949   C951    1.394   .     A
C950   H963    1.078   .     S
C950   C952    1.393   .     A
C951   C955    1.418   .     A
C951   C953    1.416   .     A
C952   C956    1.417   .     A
C952   C954    1.417   .     A
C953   C437    1.388   1_556 S
C955   C958    1.418   .     A
C955   C434    1.417   1_556 S
C956   C957    1.418   .     A
C957   H967    1.077   .     S
C957   C959    1.385   .     A
C958   C960    1.385   .     A
C958   H968    1.077   .     S
C959   H961    1.085   .     S
C960   H962    1.084   .     S
C960   C432    1.388   1_556 S
C969   C564    1.367   1_565 S
C969   N633    1.436   1_565 S
N971   H973    1.029   .     S
N971   N972    1.294   .     D
N972   H974    1.029   .     S
N975   H976    1.044   .     S
N975   H977    1.046   .     S
N978   H980    1.045   .     S
N978   H979    1.045   .     S
N981   O983    1.301   .     A
N981   O982    1.299   .     A
N984   O985    1.302   .     A
N984   O986    1.301   .     A
N984   C622    1.437   1_565 S
O987   Zn999   1.967   .     S
O987   C875    1.270   1_655 S
O988   Zn1000  1.967   .     S
O989   C991    1.297   .     A
O989   Zn1000  1.997   .     S
O990   C992    1.293   .     A
O990   Zn999   1.997   .     S
C991   C1027   1.415   .     S
C992   C1028   1.410   .     S
C992   O872    1.273   1_655 S
O993   Zn999   1.960   .     S
O993   C881    1.290   1_655 S
O994   Zn1000  1.960   .     S
O995   Zn1000  1.905   .     S
O995   C997    1.302   .     A
O996   C998    1.300   .     A
O996   Zn999   1.905   .     S
C997   C1001   1.463   .     S
C998   C1002   1.455   .     S
C998   O878    1.289   1_655 S
Zn999  N1030   2.017   .     S
Zn1000 N1029   2.017   .     S
C1001  C1007   1.391   .     A
C1002  C1006   1.411   .     A
C1002  C1008   1.386   .     A
C1003  C1011   1.400   .     A
C1003  H443    1.085   1_556 S
C1004  C1012   1.401   .     A
C1004  H1024   1.084   .     S
C1004  C1006   1.401   .     A
C1005  N1036   1.433   .     S
C1005  C885    1.416   1_655 S
C1005  C887    1.394   1_655 S
C1006  N917    1.437   1_655 S
C1007  H1022   1.075   .     S
C1007  C1009   1.394   .     A
C1008  H1021   1.078   .     S
C1008  C1010   1.393   .     A
C1009  C1013   1.418   .     A
C1009  C1011   1.416   .     A
C1010  C1014   1.417   .     A
C1010  C1012   1.417   .     A
C1011  C495    1.388   1_556 S
C1013  C1016   1.418   .     A
C1013  C492    1.417   1_556 S
C1014  C1015   1.418   .     A
C1015  H1025   1.077   .     S
C1015  C1017   1.385   .     A
C1016  C1018   1.385   .     A
C1016  H1026   1.077   .     S
C1017  H1019   1.085   .     S
C1018  H1020   1.084   .     S
C1018  C490    1.388   1_556 S
H1023  C365    1.085   1_655 S
C1027  C622    1.367   1_565 S
C1027  N691    1.436   1_565 S
C1028  C737    1.367   1_655 S
N1029  H1031   1.029   .     S
N1029  N1030   1.294   .     D
N1030  H1032   1.029   .     S
N1033  H1034   1.044   .     S
N1033  H1035   1.046   .     S
N1036  H1038   1.045   .     S
N1036  H1037   1.045   .     S
N1039  O1041   1.301   .     A
N1039  O1040   1.299   .     A
N1042  O1043   1.302   .     A
N1042  O1044   1.301   .     A
N1042  C680    1.437   1_565 S
