data_str_m1_o10_o16_pcu_sym.248
_audit_creation_date              2020-01-03
_audit_creation_method            'Materials Studio'
_symmetry_space_group_name_H-M    'P1'
_symmetry_Int_Tables_number       1
_symmetry_cell_setting            triclinic
loop_
_symmetry_equiv_pos_as_xyz
  x,y,z
_cell_length_a                    32.5286
_cell_length_b                    32.5139
_cell_length_c                    31.0835
_cell_angle_alpha                 96.7140
_cell_angle_beta                  75.0244
_cell_angle_gamma                 98.5445
loop_
_atom_site_label
_atom_site_type_symbol
_atom_site_fract_x
_atom_site_fract_y
_atom_site_fract_z
_atom_site_U_iso_or_equiv
_atom_site_adp_type
_atom_site_occupancy
Br1    Br    0.18421   0.04327   0.42558   0.00000  Uiso   1.00
C2     C     0.05272   0.15956   0.26001   0.00000  Uiso   1.00
C3     C     0.17785   0.16597   0.05784   0.00000  Uiso   1.00
C4     C     0.20165   0.09993   0.06213   0.00000  Uiso   1.00
C5     C     0.28072   0.17377   0.24005   0.00000  Uiso   1.00
C6     C     0.14127   0.19251   0.42001   0.00000  Uiso   1.00
C7     C     0.32656   0.17646   0.23609   0.00000  Uiso   1.00
C8     C     0.00745   0.15698   0.26382   0.00000  Uiso   1.00
C9     C     0.18036   0.32244   0.23664   0.00000  Uiso   1.00
C10    C     0.15173   0.01172   0.26377   0.00000  Uiso   1.00
C11    C     0.15606   0.05584   0.26019   0.00000  Uiso   1.00
C12    C     0.17653   0.27787   0.24022   0.00000  Uiso   1.00
C13    C     0.12717   0.24329   0.48416   0.00000  Uiso   1.00
C14    C     0.18511   0.14790   0.12947   0.00000  Uiso   1.00
C15    C     0.14788   0.18395   0.37108   0.00000  Uiso   1.00
C16    C     0.19791   0.08721   0.01900   0.00000  Uiso   1.00
C17    C     0.19118   0.13902   0.08161   0.00000  Uiso   1.00
C18    C     0.12796   0.23097   0.43960   0.00000  Uiso   1.00
C19    C     0.14172   0.21819   0.00910   0.00000  Uiso   1.00
C20    C     0.15535   0.17907   0.49067   0.00000  Uiso   1.00
C21    C     0.15184   0.16496   0.44664   0.00000  Uiso   1.00
C22    C     0.17171   0.15322   0.01474   0.00000  Uiso   1.00
C23    C     0.18185   0.11280   0.49533   0.00000  Uiso   1.00
C24    C     0.17414   0.09812   0.45354   0.00000  Uiso   1.00
C25    C     0.15821   0.12349   0.43053   0.00000  Uiso   1.00
H26    H     0.21134   0.07867   0.08097   0.00000  Uiso   1.00
H27    H     0.01551   0.19438   0.21049   0.00000  Uiso   1.00
H28    H     0.08498   0.00880   0.48870   0.00000  Uiso   1.00
H29    H     0.31920   0.13899   0.28974   0.00000  Uiso   1.00
H30    H     0.20678   0.00366   0.21172   0.00000  Uiso   1.00
H31    H     0.12492   0.33129   0.28879   0.00000  Uiso   1.00
H32    H     0.20616   0.05657   0.00524   0.00000  Uiso   1.00
H33    H     0.17052   0.19572   0.07502   0.00000  Uiso   1.00
H34    H     0.11915   0.25193   0.41981   0.00000  Uiso   1.00
H35    H     0.14107   0.22998   0.04305   0.00000  Uiso   1.00
H36    H     0.14983   0.10950   0.40022   0.00000  Uiso   1.00
O37    O     0.16667   0.16667   0.25000   0.00000  Uiso   1.00
O38    O     0.15451   0.12637   0.15459   0.00000  Uiso   1.00
O39    O     0.12940   0.20391   0.34968   0.00000  Uiso   1.00
O40    O     0.20824   0.17759   0.14606   0.00000  Uiso   1.00
O41    O     0.17451   0.15880   0.34968   0.00000  Uiso   1.00
O42    O     0.07388   0.28315   0.05004   0.00000  Uiso   1.00
O43    O     0.14606   0.31895   0.02223   0.00000  Uiso   1.00
O44    O     0.09136   0.31457   0.47319   0.00000  Uiso   1.00
O45    O     0.17930   0.08019   0.28214   0.00000  Uiso   1.00
O46    O     0.14632   0.26085   0.27014   0.00000  Uiso   1.00
O47    O     0.07412   0.13291   0.23413   0.00000  Uiso   1.00
O48    O     0.26693   0.19272   0.21361   0.00000  Uiso   1.00
O49    O     0.07071   0.18878   0.28213   0.00000  Uiso   1.00
O50    O     0.25491   0.15226   0.27014   0.00000  Uiso   1.00
O51    O     0.13760   0.06944   0.23413   0.00000  Uiso   1.00
O52    O     0.20345   0.25620   0.21361   0.00000  Uiso   1.00
S53    S     0.10939   0.29113   0.00896   0.00000  Uiso   1.00
Zn54   Zn    0.19338   0.13994   0.28734   0.00000  Uiso   1.00
Zn55   Zn    0.13379   0.12458   0.21876   0.00000  Uiso   1.00
Zn56   Zn    0.21056   0.19775   0.20657   0.00000  Uiso   1.00
Zn57   Zn    0.12893   0.20439   0.28734   0.00000  Uiso   1.00
Br58   Br    0.51754   0.04327   0.42558   0.00000  Uiso   1.00
C59    C     0.38605   0.15956   0.26001   0.00000  Uiso   1.00
C60    C     0.51118   0.16597   0.05784   0.00000  Uiso   1.00
C61    C     0.53499   0.09993   0.06213   0.00000  Uiso   1.00
C62    C     0.61406   0.17377   0.24005   0.00000  Uiso   1.00
C63    C     0.47461   0.19251   0.42001   0.00000  Uiso   1.00
C64    C     0.65989   0.17646   0.23609   0.00000  Uiso   1.00
C65    C     0.34079   0.15698   0.26382   0.00000  Uiso   1.00
C66    C     0.51370   0.32244   0.23664   0.00000  Uiso   1.00
C67    C     0.48506   0.01172   0.26377   0.00000  Uiso   1.00
C68    C     0.48940   0.05584   0.26019   0.00000  Uiso   1.00
C69    C     0.50987   0.27787   0.24022   0.00000  Uiso   1.00
C70    C     0.46050   0.24329   0.48416   0.00000  Uiso   1.00
C71    C     0.51845   0.14790   0.12947   0.00000  Uiso   1.00
C72    C     0.48122   0.18395   0.37108   0.00000  Uiso   1.00
C73    C     0.53125   0.08721   0.01900   0.00000  Uiso   1.00
C74    C     0.52452   0.13902   0.08161   0.00000  Uiso   1.00
C75    C     0.46130   0.23097   0.43960   0.00000  Uiso   1.00
C76    C     0.47506   0.21819   0.00910   0.00000  Uiso   1.00
C77    C     0.48869   0.17907   0.49067   0.00000  Uiso   1.00
C78    C     0.48518   0.16496   0.44664   0.00000  Uiso   1.00
C79    C     0.50505   0.15322   0.01474   0.00000  Uiso   1.00
C80    C     0.51518   0.11280   0.49533   0.00000  Uiso   1.00
C81    C     0.50747   0.09812   0.45354   0.00000  Uiso   1.00
C82    C     0.49154   0.12349   0.43053   0.00000  Uiso   1.00
H83    H     0.54467   0.07867   0.08097   0.00000  Uiso   1.00
H84    H     0.34884   0.19438   0.21049   0.00000  Uiso   1.00
H85    H     0.41831   0.00880   0.48870   0.00000  Uiso   1.00
H86    H     0.65254   0.13899   0.28974   0.00000  Uiso   1.00
H87    H     0.54011   0.00366   0.21172   0.00000  Uiso   1.00
H88    H     0.45825   0.33129   0.28879   0.00000  Uiso   1.00
H89    H     0.53950   0.05657   0.00524   0.00000  Uiso   1.00
H90    H     0.50386   0.19572   0.07502   0.00000  Uiso   1.00
H91    H     0.45248   0.25193   0.41981   0.00000  Uiso   1.00
H92    H     0.47440   0.22998   0.04305   0.00000  Uiso   1.00
H93    H     0.48316   0.10950   0.40022   0.00000  Uiso   1.00
O94    O     0.50000   0.16667   0.25000   0.00000  Uiso   1.00
O95    O     0.48784   0.12637   0.15459   0.00000  Uiso   1.00
O96    O     0.46274   0.20391   0.34968   0.00000  Uiso   1.00
O97    O     0.54157   0.17759   0.14606   0.00000  Uiso   1.00
O98    O     0.50785   0.15880   0.34968   0.00000  Uiso   1.00
O99    O     0.40721   0.28315   0.05004   0.00000  Uiso   1.00
O100   O     0.47940   0.31895   0.02223   0.00000  Uiso   1.00
O101   O     0.42470   0.31457   0.47319   0.00000  Uiso   1.00
O102   O     0.51264   0.08019   0.28214   0.00000  Uiso   1.00
O103   O     0.47965   0.26085   0.27014   0.00000  Uiso   1.00
O104   O     0.40745   0.13291   0.23413   0.00000  Uiso   1.00
O105   O     0.60026   0.19272   0.21361   0.00000  Uiso   1.00
O106   O     0.40405   0.18878   0.28213   0.00000  Uiso   1.00
O107   O     0.58824   0.15226   0.27014   0.00000  Uiso   1.00
O108   O     0.47093   0.06944   0.23413   0.00000  Uiso   1.00
O109   O     0.53678   0.25620   0.21361   0.00000  Uiso   1.00
S110   S     0.44273   0.29113   0.00896   0.00000  Uiso   1.00
Zn111  Zn    0.52672   0.13994   0.28734   0.00000  Uiso   1.00
Zn112  Zn    0.46713   0.12458   0.21876   0.00000  Uiso   1.00
Zn113  Zn    0.54389   0.19775   0.20657   0.00000  Uiso   1.00
Zn114  Zn    0.46226   0.20439   0.28734   0.00000  Uiso   1.00
Br115  Br    0.85087   0.04327   0.42558   0.00000  Uiso   1.00
C116   C     0.71938   0.15956   0.26001   0.00000  Uiso   1.00
C117   C     0.84451   0.16597   0.05784   0.00000  Uiso   1.00
C118   C     0.86832   0.09993   0.06213   0.00000  Uiso   1.00
C119   C     0.94739   0.17377   0.24005   0.00000  Uiso   1.00
C120   C     0.80794   0.19251   0.42001   0.00000  Uiso   1.00
C121   C     0.99322   0.17646   0.23609   0.00000  Uiso   1.00
C122   C     0.67412   0.15698   0.26382   0.00000  Uiso   1.00
C123   C     0.84703   0.32244   0.23664   0.00000  Uiso   1.00
C124   C     0.81839   0.01172   0.26377   0.00000  Uiso   1.00
C125   C     0.82273   0.05584   0.26019   0.00000  Uiso   1.00
C126   C     0.84320   0.27787   0.24022   0.00000  Uiso   1.00
C127   C     0.79383   0.24329   0.48416   0.00000  Uiso   1.00
C128   C     0.85178   0.14790   0.12947   0.00000  Uiso   1.00
C129   C     0.81455   0.18395   0.37108   0.00000  Uiso   1.00
C130   C     0.86458   0.08721   0.01900   0.00000  Uiso   1.00
C131   C     0.85785   0.13902   0.08161   0.00000  Uiso   1.00
C132   C     0.79463   0.23097   0.43960   0.00000  Uiso   1.00
C133   C     0.80839   0.21819   0.00910   0.00000  Uiso   1.00
C134   C     0.82202   0.17907   0.49067   0.00000  Uiso   1.00
C135   C     0.81851   0.16496   0.44664   0.00000  Uiso   1.00
C136   C     0.83838   0.15322   0.01474   0.00000  Uiso   1.00
C137   C     0.84852   0.11280   0.49533   0.00000  Uiso   1.00
C138   C     0.84081   0.09812   0.45354   0.00000  Uiso   1.00
C139   C     0.82487   0.12349   0.43053   0.00000  Uiso   1.00
H140   H     0.87801   0.07867   0.08097   0.00000  Uiso   1.00
H141   H     0.68218   0.19438   0.21049   0.00000  Uiso   1.00
H142   H     0.75164   0.00880   0.48870   0.00000  Uiso   1.00
H143   H     0.98587   0.13899   0.28974   0.00000  Uiso   1.00
H144   H     0.87345   0.00366   0.21172   0.00000  Uiso   1.00
H145   H     0.79159   0.33129   0.28879   0.00000  Uiso   1.00
H146   H     0.87283   0.05657   0.00524   0.00000  Uiso   1.00
H147   H     0.83719   0.19572   0.07502   0.00000  Uiso   1.00
H148   H     0.78582   0.25193   0.41981   0.00000  Uiso   1.00
H149   H     0.80774   0.22998   0.04305   0.00000  Uiso   1.00
H150   H     0.81649   0.10950   0.40022   0.00000  Uiso   1.00
O151   O     0.83333   0.16667   0.25000   0.00000  Uiso   1.00
O152   O     0.82118   0.12637   0.15459   0.00000  Uiso   1.00
O153   O     0.79607   0.20391   0.34968   0.00000  Uiso   1.00
O154   O     0.87491   0.17759   0.14606   0.00000  Uiso   1.00
O155   O     0.84118   0.15880   0.34968   0.00000  Uiso   1.00
O156   O     0.74055   0.28315   0.05004   0.00000  Uiso   1.00
O157   O     0.81273   0.31895   0.02223   0.00000  Uiso   1.00
O158   O     0.75803   0.31457   0.47319   0.00000  Uiso   1.00
O159   O     0.84597   0.08019   0.28214   0.00000  Uiso   1.00
O160   O     0.81298   0.26085   0.27014   0.00000  Uiso   1.00
O161   O     0.74078   0.13291   0.23413   0.00000  Uiso   1.00
O162   O     0.93360   0.19272   0.21361   0.00000  Uiso   1.00
O163   O     0.73738   0.18878   0.28213   0.00000  Uiso   1.00
O164   O     0.92158   0.15226   0.27014   0.00000  Uiso   1.00
O165   O     0.80426   0.06944   0.23413   0.00000  Uiso   1.00
O166   O     0.87012   0.25620   0.21361   0.00000  Uiso   1.00
S167   S     0.77606   0.29113   0.00896   0.00000  Uiso   1.00
Zn168  Zn    0.86005   0.13994   0.28734   0.00000  Uiso   1.00
Zn169  Zn    0.80046   0.12458   0.21876   0.00000  Uiso   1.00
Zn170  Zn    0.87723   0.19775   0.20657   0.00000  Uiso   1.00
Zn171  Zn    0.79560   0.20439   0.28734   0.00000  Uiso   1.00
Br172  Br    0.18421   0.37660   0.42558   0.00000  Uiso   1.00
C173   C     0.05272   0.49289   0.26001   0.00000  Uiso   1.00
C174   C     0.17785   0.49931   0.05784   0.00000  Uiso   1.00
C175   C     0.20165   0.43326   0.06213   0.00000  Uiso   1.00
C176   C     0.28072   0.50710   0.24005   0.00000  Uiso   1.00
C177   C     0.14127   0.52585   0.42001   0.00000  Uiso   1.00
C178   C     0.32656   0.50980   0.23609   0.00000  Uiso   1.00
C179   C     0.00745   0.49031   0.26382   0.00000  Uiso   1.00
C180   C     0.18036   0.65577   0.23664   0.00000  Uiso   1.00
C181   C     0.15173   0.34505   0.26377   0.00000  Uiso   1.00
C182   C     0.15606   0.38918   0.26019   0.00000  Uiso   1.00
C183   C     0.17653   0.61120   0.24022   0.00000  Uiso   1.00
C184   C     0.12717   0.57662   0.48416   0.00000  Uiso   1.00
C185   C     0.18511   0.48124   0.12947   0.00000  Uiso   1.00
C186   C     0.14788   0.51728   0.37108   0.00000  Uiso   1.00
C187   C     0.19791   0.42054   0.01900   0.00000  Uiso   1.00
C188   C     0.19118   0.47235   0.08161   0.00000  Uiso   1.00
C189   C     0.12796   0.56430   0.43960   0.00000  Uiso   1.00
C190   C     0.14172   0.55152   0.00910   0.00000  Uiso   1.00
C191   C     0.15535   0.51240   0.49067   0.00000  Uiso   1.00
C192   C     0.15184   0.49830   0.44664   0.00000  Uiso   1.00
C193   C     0.17171   0.48655   0.01474   0.00000  Uiso   1.00
C194   C     0.18185   0.44614   0.49533   0.00000  Uiso   1.00
C195   C     0.17414   0.43146   0.45354   0.00000  Uiso   1.00
C196   C     0.15821   0.45683   0.43053   0.00000  Uiso   1.00
H197   H     0.21134   0.41201   0.08097   0.00000  Uiso   1.00
H198   H     0.01551   0.52772   0.21049   0.00000  Uiso   1.00
H199   H     0.08498   0.34213   0.48870   0.00000  Uiso   1.00
H200   H     0.31920   0.47232   0.28974   0.00000  Uiso   1.00
H201   H     0.20678   0.33699   0.21172   0.00000  Uiso   1.00
H202   H     0.12492   0.66463   0.28879   0.00000  Uiso   1.00
H203   H     0.20616   0.38990   0.00524   0.00000  Uiso   1.00
H204   H     0.17052   0.52905   0.07502   0.00000  Uiso   1.00
H205   H     0.11915   0.58526   0.41981   0.00000  Uiso   1.00
H206   H     0.14107   0.56331   0.04305   0.00000  Uiso   1.00
H207   H     0.14983   0.44284   0.40022   0.00000  Uiso   1.00
O208   O     0.16667   0.50000   0.25000   0.00000  Uiso   1.00
O209   O     0.15451   0.45970   0.15459   0.00000  Uiso   1.00
O210   O     0.12940   0.53724   0.34968   0.00000  Uiso   1.00
O211   O     0.20824   0.51092   0.14606   0.00000  Uiso   1.00
O212   O     0.17451   0.49213   0.34968   0.00000  Uiso   1.00
O213   O     0.07388   0.61648   0.05004   0.00000  Uiso   1.00
O214   O     0.14606   0.65229   0.02223   0.00000  Uiso   1.00
O215   O     0.09136   0.64790   0.47319   0.00000  Uiso   1.00
O216   O     0.17930   0.41352   0.28214   0.00000  Uiso   1.00
O217   O     0.14632   0.59418   0.27014   0.00000  Uiso   1.00
O218   O     0.07412   0.46625   0.23413   0.00000  Uiso   1.00
O219   O     0.26693   0.52605   0.21361   0.00000  Uiso   1.00
O220   O     0.07071   0.52211   0.28213   0.00000  Uiso   1.00
O221   O     0.25491   0.48559   0.27014   0.00000  Uiso   1.00
O222   O     0.13760   0.40277   0.23413   0.00000  Uiso   1.00
O223   O     0.20345   0.58953   0.21361   0.00000  Uiso   1.00
S224   S     0.10939   0.62446   0.00896   0.00000  Uiso   1.00
Zn225  Zn    0.19338   0.47327   0.28734   0.00000  Uiso   1.00
Zn226  Zn    0.13379   0.45791   0.21876   0.00000  Uiso   1.00
Zn227  Zn    0.21056   0.53109   0.20657   0.00000  Uiso   1.00
Zn228  Zn    0.12893   0.53773   0.28734   0.00000  Uiso   1.00
Br229  Br    0.51754   0.37660   0.42558   0.00000  Uiso   1.00
C230   C     0.38605   0.49289   0.26001   0.00000  Uiso   1.00
C231   C     0.51118   0.49931   0.05784   0.00000  Uiso   1.00
C232   C     0.53499   0.43326   0.06213   0.00000  Uiso   1.00
C233   C     0.61406   0.50710   0.24005   0.00000  Uiso   1.00
C234   C     0.47461   0.52585   0.42001   0.00000  Uiso   1.00
C235   C     0.65989   0.50980   0.23609   0.00000  Uiso   1.00
C236   C     0.34079   0.49031   0.26382   0.00000  Uiso   1.00
C237   C     0.51370   0.65577   0.23664   0.00000  Uiso   1.00
C238   C     0.48506   0.34505   0.26377   0.00000  Uiso   1.00
C239   C     0.48940   0.38918   0.26019   0.00000  Uiso   1.00
C240   C     0.50987   0.61120   0.24022   0.00000  Uiso   1.00
C241   C     0.46050   0.57662   0.48416   0.00000  Uiso   1.00
C242   C     0.51845   0.48124   0.12947   0.00000  Uiso   1.00
C243   C     0.48122   0.51728   0.37108   0.00000  Uiso   1.00
C244   C     0.53125   0.42054   0.01900   0.00000  Uiso   1.00
C245   C     0.52452   0.47235   0.08161   0.00000  Uiso   1.00
C246   C     0.46130   0.56430   0.43960   0.00000  Uiso   1.00
C247   C     0.47506   0.55152   0.00910   0.00000  Uiso   1.00
C248   C     0.48869   0.51240   0.49067   0.00000  Uiso   1.00
C249   C     0.48518   0.49830   0.44664   0.00000  Uiso   1.00
C250   C     0.50505   0.48655   0.01474   0.00000  Uiso   1.00
C251   C     0.51518   0.44614   0.49533   0.00000  Uiso   1.00
C252   C     0.50747   0.43146   0.45354   0.00000  Uiso   1.00
C253   C     0.49154   0.45683   0.43053   0.00000  Uiso   1.00
H254   H     0.54467   0.41201   0.08097   0.00000  Uiso   1.00
H255   H     0.34884   0.52772   0.21049   0.00000  Uiso   1.00
H256   H     0.41831   0.34213   0.48870   0.00000  Uiso   1.00
H257   H     0.65254   0.47232   0.28974   0.00000  Uiso   1.00
H258   H     0.54011   0.33699   0.21172   0.00000  Uiso   1.00
H259   H     0.45825   0.66463   0.28879   0.00000  Uiso   1.00
H260   H     0.53950   0.38990   0.00524   0.00000  Uiso   1.00
H261   H     0.50386   0.52905   0.07502   0.00000  Uiso   1.00
H262   H     0.45248   0.58526   0.41981   0.00000  Uiso   1.00
H263   H     0.47440   0.56331   0.04305   0.00000  Uiso   1.00
H264   H     0.48316   0.44284   0.40022   0.00000  Uiso   1.00
O265   O     0.50000   0.50000   0.25000   0.00000  Uiso   1.00
O266   O     0.48784   0.45970   0.15459   0.00000  Uiso   1.00
O267   O     0.46274   0.53724   0.34968   0.00000  Uiso   1.00
O268   O     0.54157   0.51092   0.14606   0.00000  Uiso   1.00
O269   O     0.50785   0.49213   0.34968   0.00000  Uiso   1.00
O270   O     0.40721   0.61648   0.05004   0.00000  Uiso   1.00
O271   O     0.47940   0.65229   0.02223   0.00000  Uiso   1.00
O272   O     0.42470   0.64790   0.47319   0.00000  Uiso   1.00
O273   O     0.51264   0.41352   0.28214   0.00000  Uiso   1.00
O274   O     0.47965   0.59418   0.27014   0.00000  Uiso   1.00
O275   O     0.40745   0.46625   0.23413   0.00000  Uiso   1.00
O276   O     0.60026   0.52605   0.21361   0.00000  Uiso   1.00
O277   O     0.40405   0.52211   0.28213   0.00000  Uiso   1.00
O278   O     0.58824   0.48559   0.27014   0.00000  Uiso   1.00
O279   O     0.47093   0.40277   0.23413   0.00000  Uiso   1.00
O280   O     0.53678   0.58953   0.21361   0.00000  Uiso   1.00
S281   S     0.44273   0.62446   0.00896   0.00000  Uiso   1.00
Zn282  Zn    0.52672   0.47327   0.28734   0.00000  Uiso   1.00
Zn283  Zn    0.46713   0.45791   0.21876   0.00000  Uiso   1.00
Zn284  Zn    0.54389   0.53109   0.20657   0.00000  Uiso   1.00
Zn285  Zn    0.46226   0.53773   0.28734   0.00000  Uiso   1.00
Br286  Br    0.85087   0.37660   0.42558   0.00000  Uiso   1.00
C287   C     0.71938   0.49289   0.26001   0.00000  Uiso   1.00
C288   C     0.84451   0.49931   0.05784   0.00000  Uiso   1.00
C289   C     0.86832   0.43326   0.06213   0.00000  Uiso   1.00
C290   C     0.94739   0.50710   0.24005   0.00000  Uiso   1.00
C291   C     0.80794   0.52585   0.42001   0.00000  Uiso   1.00
C292   C     0.99322   0.50980   0.23609   0.00000  Uiso   1.00
C293   C     0.67412   0.49031   0.26382   0.00000  Uiso   1.00
C294   C     0.84703   0.65577   0.23664   0.00000  Uiso   1.00
C295   C     0.81839   0.34505   0.26377   0.00000  Uiso   1.00
C296   C     0.82273   0.38918   0.26019   0.00000  Uiso   1.00
C297   C     0.84320   0.61120   0.24022   0.00000  Uiso   1.00
C298   C     0.79383   0.57662   0.48416   0.00000  Uiso   1.00
C299   C     0.85178   0.48124   0.12947   0.00000  Uiso   1.00
C300   C     0.81455   0.51728   0.37108   0.00000  Uiso   1.00
C301   C     0.86458   0.42054   0.01900   0.00000  Uiso   1.00
C302   C     0.85785   0.47235   0.08161   0.00000  Uiso   1.00
C303   C     0.79463   0.56430   0.43960   0.00000  Uiso   1.00
C304   C     0.80839   0.55152   0.00910   0.00000  Uiso   1.00
C305   C     0.82202   0.51240   0.49067   0.00000  Uiso   1.00
C306   C     0.81851   0.49830   0.44664   0.00000  Uiso   1.00
C307   C     0.83838   0.48655   0.01474   0.00000  Uiso   1.00
C308   C     0.84852   0.44614   0.49533   0.00000  Uiso   1.00
C309   C     0.84081   0.43146   0.45354   0.00000  Uiso   1.00
C310   C     0.82487   0.45683   0.43053   0.00000  Uiso   1.00
H311   H     0.87801   0.41201   0.08097   0.00000  Uiso   1.00
H312   H     0.68218   0.52772   0.21049   0.00000  Uiso   1.00
H313   H     0.75164   0.34213   0.48870   0.00000  Uiso   1.00
H314   H     0.98587   0.47232   0.28974   0.00000  Uiso   1.00
H315   H     0.87345   0.33699   0.21172   0.00000  Uiso   1.00
H316   H     0.79159   0.66463   0.28879   0.00000  Uiso   1.00
H317   H     0.87283   0.38990   0.00524   0.00000  Uiso   1.00
H318   H     0.83719   0.52905   0.07502   0.00000  Uiso   1.00
H319   H     0.78582   0.58526   0.41981   0.00000  Uiso   1.00
H320   H     0.80774   0.56331   0.04305   0.00000  Uiso   1.00
H321   H     0.81649   0.44284   0.40022   0.00000  Uiso   1.00
O322   O     0.83333   0.50000   0.25000   0.00000  Uiso   1.00
O323   O     0.82118   0.45970   0.15459   0.00000  Uiso   1.00
O324   O     0.79607   0.53724   0.34968   0.00000  Uiso   1.00
O325   O     0.87491   0.51092   0.14606   0.00000  Uiso   1.00
O326   O     0.84118   0.49213   0.34968   0.00000  Uiso   1.00
O327   O     0.74055   0.61648   0.05004   0.00000  Uiso   1.00
O328   O     0.81273   0.65229   0.02223   0.00000  Uiso   1.00
O329   O     0.75803   0.64790   0.47319   0.00000  Uiso   1.00
O330   O     0.84597   0.41352   0.28214   0.00000  Uiso   1.00
O331   O     0.81298   0.59418   0.27014   0.00000  Uiso   1.00
O332   O     0.74078   0.46625   0.23413   0.00000  Uiso   1.00
O333   O     0.93360   0.52605   0.21361   0.00000  Uiso   1.00
O334   O     0.73738   0.52211   0.28213   0.00000  Uiso   1.00
O335   O     0.92158   0.48559   0.27014   0.00000  Uiso   1.00
O336   O     0.80426   0.40277   0.23413   0.00000  Uiso   1.00
O337   O     0.87012   0.58953   0.21361   0.00000  Uiso   1.00
S338   S     0.77606   0.62446   0.00896   0.00000  Uiso   1.00
Zn339  Zn    0.86005   0.47327   0.28734   0.00000  Uiso   1.00
Zn340  Zn    0.80046   0.45791   0.21876   0.00000  Uiso   1.00
Zn341  Zn    0.87723   0.53109   0.20657   0.00000  Uiso   1.00
Zn342  Zn    0.79560   0.53773   0.28734   0.00000  Uiso   1.00
Br343  Br    0.18421   0.70994   0.42558   0.00000  Uiso   1.00
C344   C     0.05272   0.82622   0.26001   0.00000  Uiso   1.00
C345   C     0.17785   0.83264   0.05784   0.00000  Uiso   1.00
C346   C     0.20165   0.76660   0.06213   0.00000  Uiso   1.00
C347   C     0.28072   0.84044   0.24005   0.00000  Uiso   1.00
C348   C     0.14127   0.85918   0.42001   0.00000  Uiso   1.00
C349   C     0.32656   0.84313   0.23609   0.00000  Uiso   1.00
C350   C     0.00745   0.82364   0.26382   0.00000  Uiso   1.00
C351   C     0.18036   0.98911   0.23664   0.00000  Uiso   1.00
C352   C     0.15173   0.67838   0.26377   0.00000  Uiso   1.00
C353   C     0.15606   0.72251   0.26019   0.00000  Uiso   1.00
C354   C     0.17653   0.94454   0.24022   0.00000  Uiso   1.00
C355   C     0.12717   0.90996   0.48416   0.00000  Uiso   1.00
C356   C     0.18511   0.81457   0.12947   0.00000  Uiso   1.00
C357   C     0.14788   0.85062   0.37108   0.00000  Uiso   1.00
C358   C     0.19791   0.75388   0.01900   0.00000  Uiso   1.00
C359   C     0.19118   0.80568   0.08161   0.00000  Uiso   1.00
C360   C     0.12796   0.89763   0.43960   0.00000  Uiso   1.00
C361   C     0.14172   0.88486   0.00910   0.00000  Uiso   1.00
C362   C     0.15535   0.84573   0.49067   0.00000  Uiso   1.00
C363   C     0.15184   0.83163   0.44664   0.00000  Uiso   1.00
C364   C     0.17171   0.81989   0.01474   0.00000  Uiso   1.00
C365   C     0.18185   0.77947   0.49533   0.00000  Uiso   1.00
C366   C     0.17414   0.76479   0.45354   0.00000  Uiso   1.00
C367   C     0.15821   0.79016   0.43053   0.00000  Uiso   1.00
H368   H     0.21134   0.74534   0.08097   0.00000  Uiso   1.00
H369   H     0.01551   0.86105   0.21049   0.00000  Uiso   1.00
H370   H     0.08498   0.67546   0.48870   0.00000  Uiso   1.00
H371   H     0.31920   0.80565   0.28974   0.00000  Uiso   1.00
H372   H     0.20678   0.67033   0.21172   0.00000  Uiso   1.00
H373   H     0.12492   0.99796   0.28879   0.00000  Uiso   1.00
H374   H     0.20616   0.72324   0.00524   0.00000  Uiso   1.00
H375   H     0.17052   0.86239   0.07502   0.00000  Uiso   1.00
H376   H     0.11915   0.91860   0.41981   0.00000  Uiso   1.00
H377   H     0.14107   0.89664   0.04305   0.00000  Uiso   1.00
H378   H     0.14983   0.77617   0.40022   0.00000  Uiso   1.00
O379   O     0.16667   0.83333   0.25000   0.00000  Uiso   1.00
O380   O     0.15451   0.79304   0.15459   0.00000  Uiso   1.00
O381   O     0.12940   0.87058   0.34968   0.00000  Uiso   1.00
O382   O     0.20824   0.84425   0.14606   0.00000  Uiso   1.00
O383   O     0.17451   0.82546   0.34968   0.00000  Uiso   1.00
O384   O     0.07388   0.94981   0.05004   0.00000  Uiso   1.00
O385   O     0.14606   0.98562   0.02223   0.00000  Uiso   1.00
O386   O     0.09136   0.98124   0.47319   0.00000  Uiso   1.00
O387   O     0.17930   0.74686   0.28214   0.00000  Uiso   1.00
O388   O     0.14632   0.92751   0.27014   0.00000  Uiso   1.00
O389   O     0.07412   0.79958   0.23413   0.00000  Uiso   1.00
O390   O     0.26693   0.85939   0.21361   0.00000  Uiso   1.00
O391   O     0.07071   0.85544   0.28213   0.00000  Uiso   1.00
O392   O     0.25491   0.81892   0.27014   0.00000  Uiso   1.00
O393   O     0.13760   0.73610   0.23413   0.00000  Uiso   1.00
O394   O     0.20345   0.92286   0.21361   0.00000  Uiso   1.00
S395   S     0.10939   0.95779   0.00896   0.00000  Uiso   1.00
Zn396  Zn    0.19338   0.80661   0.28734   0.00000  Uiso   1.00
Zn397  Zn    0.13379   0.79124   0.21876   0.00000  Uiso   1.00
Zn398  Zn    0.21056   0.86442   0.20657   0.00000  Uiso   1.00
Zn399  Zn    0.12893   0.87106   0.28734   0.00000  Uiso   1.00
Br400  Br    0.51754   0.70994   0.42558   0.00000  Uiso   1.00
C401   C     0.38605   0.82622   0.26001   0.00000  Uiso   1.00
C402   C     0.51118   0.83264   0.05784   0.00000  Uiso   1.00
C403   C     0.53499   0.76660   0.06213   0.00000  Uiso   1.00
C404   C     0.61406   0.84044   0.24005   0.00000  Uiso   1.00
C405   C     0.47461   0.85918   0.42001   0.00000  Uiso   1.00
C406   C     0.65989   0.84313   0.23609   0.00000  Uiso   1.00
C407   C     0.34079   0.82364   0.26382   0.00000  Uiso   1.00
C408   C     0.51370   0.98911   0.23664   0.00000  Uiso   1.00
C409   C     0.48506   0.67838   0.26377   0.00000  Uiso   1.00
C410   C     0.48940   0.72251   0.26019   0.00000  Uiso   1.00
C411   C     0.50987   0.94454   0.24022   0.00000  Uiso   1.00
C412   C     0.46050   0.90996   0.48416   0.00000  Uiso   1.00
C413   C     0.51845   0.81457   0.12947   0.00000  Uiso   1.00
C414   C     0.48122   0.85062   0.37108   0.00000  Uiso   1.00
C415   C     0.53125   0.75388   0.01900   0.00000  Uiso   1.00
C416   C     0.52452   0.80568   0.08161   0.00000  Uiso   1.00
C417   C     0.46130   0.89763   0.43960   0.00000  Uiso   1.00
C418   C     0.47506   0.88486   0.00910   0.00000  Uiso   1.00
C419   C     0.48869   0.84573   0.49067   0.00000  Uiso   1.00
C420   C     0.48518   0.83163   0.44664   0.00000  Uiso   1.00
C421   C     0.50505   0.81989   0.01474   0.00000  Uiso   1.00
C422   C     0.51518   0.77947   0.49533   0.00000  Uiso   1.00
C423   C     0.50747   0.76479   0.45354   0.00000  Uiso   1.00
C424   C     0.49154   0.79016   0.43053   0.00000  Uiso   1.00
H425   H     0.54467   0.74534   0.08097   0.00000  Uiso   1.00
H426   H     0.34884   0.86105   0.21049   0.00000  Uiso   1.00
H427   H     0.41831   0.67546   0.48870   0.00000  Uiso   1.00
H428   H     0.65254   0.80565   0.28974   0.00000  Uiso   1.00
H429   H     0.54011   0.67033   0.21172   0.00000  Uiso   1.00
H430   H     0.45825   0.99796   0.28879   0.00000  Uiso   1.00
H431   H     0.53950   0.72324   0.00524   0.00000  Uiso   1.00
H432   H     0.50386   0.86239   0.07502   0.00000  Uiso   1.00
H433   H     0.45248   0.91860   0.41981   0.00000  Uiso   1.00
H434   H     0.47440   0.89664   0.04305   0.00000  Uiso   1.00
H435   H     0.48316   0.77617   0.40022   0.00000  Uiso   1.00
O436   O     0.50000   0.83333   0.25000   0.00000  Uiso   1.00
O437   O     0.48784   0.79304   0.15459   0.00000  Uiso   1.00
O438   O     0.46274   0.87058   0.34968   0.00000  Uiso   1.00
O439   O     0.54157   0.84425   0.14606   0.00000  Uiso   1.00
O440   O     0.50785   0.82546   0.34968   0.00000  Uiso   1.00
O441   O     0.40721   0.94981   0.05004   0.00000  Uiso   1.00
O442   O     0.47940   0.98562   0.02223   0.00000  Uiso   1.00
O443   O     0.42470   0.98124   0.47319   0.00000  Uiso   1.00
O444   O     0.51264   0.74686   0.28214   0.00000  Uiso   1.00
O445   O     0.47965   0.92751   0.27014   0.00000  Uiso   1.00
O446   O     0.40745   0.79958   0.23413   0.00000  Uiso   1.00
O447   O     0.60026   0.85939   0.21361   0.00000  Uiso   1.00
O448   O     0.40405   0.85544   0.28213   0.00000  Uiso   1.00
O449   O     0.58824   0.81892   0.27014   0.00000  Uiso   1.00
O450   O     0.47093   0.73610   0.23413   0.00000  Uiso   1.00
O451   O     0.53678   0.92286   0.21361   0.00000  Uiso   1.00
S452   S     0.44273   0.95779   0.00896   0.00000  Uiso   1.00
Zn453  Zn    0.52672   0.80661   0.28734   0.00000  Uiso   1.00
Zn454  Zn    0.46713   0.79124   0.21876   0.00000  Uiso   1.00
Zn455  Zn    0.54389   0.86442   0.20657   0.00000  Uiso   1.00
Zn456  Zn    0.46226   0.87106   0.28734   0.00000  Uiso   1.00
Br457  Br    0.85087   0.70994   0.42558   0.00000  Uiso   1.00
C458   C     0.71938   0.82622   0.26001   0.00000  Uiso   1.00
C459   C     0.84451   0.83264   0.05784   0.00000  Uiso   1.00
C460   C     0.86832   0.76660   0.06213   0.00000  Uiso   1.00
C461   C     0.94739   0.84044   0.24005   0.00000  Uiso   1.00
C462   C     0.80794   0.85918   0.42001   0.00000  Uiso   1.00
C463   C     0.99322   0.84313   0.23609   0.00000  Uiso   1.00
C464   C     0.67412   0.82364   0.26382   0.00000  Uiso   1.00
C465   C     0.84703   0.98911   0.23664   0.00000  Uiso   1.00
C466   C     0.81839   0.67838   0.26377   0.00000  Uiso   1.00
C467   C     0.82273   0.72251   0.26019   0.00000  Uiso   1.00
C468   C     0.84320   0.94454   0.24022   0.00000  Uiso   1.00
C469   C     0.79383   0.90996   0.48416   0.00000  Uiso   1.00
C470   C     0.85178   0.81457   0.12947   0.00000  Uiso   1.00
C471   C     0.81455   0.85062   0.37108   0.00000  Uiso   1.00
C472   C     0.86458   0.75388   0.01900   0.00000  Uiso   1.00
C473   C     0.85785   0.80568   0.08161   0.00000  Uiso   1.00
C474   C     0.79463   0.89763   0.43960   0.00000  Uiso   1.00
C475   C     0.80839   0.88486   0.00910   0.00000  Uiso   1.00
C476   C     0.82202   0.84573   0.49067   0.00000  Uiso   1.00
C477   C     0.81851   0.83163   0.44664   0.00000  Uiso   1.00
C478   C     0.83838   0.81989   0.01474   0.00000  Uiso   1.00
C479   C     0.84852   0.77947   0.49533   0.00000  Uiso   1.00
C480   C     0.84081   0.76479   0.45354   0.00000  Uiso   1.00
C481   C     0.82487   0.79016   0.43053   0.00000  Uiso   1.00
H482   H     0.87801   0.74534   0.08097   0.00000  Uiso   1.00
H483   H     0.68218   0.86105   0.21049   0.00000  Uiso   1.00
H484   H     0.75164   0.67546   0.48870   0.00000  Uiso   1.00
H485   H     0.98587   0.80565   0.28974   0.00000  Uiso   1.00
H486   H     0.87345   0.67033   0.21172   0.00000  Uiso   1.00
H487   H     0.79159   0.99796   0.28879   0.00000  Uiso   1.00
H488   H     0.87283   0.72324   0.00524   0.00000  Uiso   1.00
H489   H     0.83719   0.86239   0.07502   0.00000  Uiso   1.00
H490   H     0.78582   0.91860   0.41981   0.00000  Uiso   1.00
H491   H     0.80774   0.89664   0.04305   0.00000  Uiso   1.00
H492   H     0.81649   0.77617   0.40022   0.00000  Uiso   1.00
O493   O     0.83333   0.83333   0.25000   0.00000  Uiso   1.00
O494   O     0.82118   0.79304   0.15459   0.00000  Uiso   1.00
O495   O     0.79607   0.87058   0.34968   0.00000  Uiso   1.00
O496   O     0.87491   0.84425   0.14606   0.00000  Uiso   1.00
O497   O     0.84118   0.82546   0.34968   0.00000  Uiso   1.00
O498   O     0.74055   0.94981   0.05004   0.00000  Uiso   1.00
O499   O     0.81273   0.98562   0.02223   0.00000  Uiso   1.00
O500   O     0.75803   0.98124   0.47319   0.00000  Uiso   1.00
O501   O     0.84597   0.74686   0.28214   0.00000  Uiso   1.00
O502   O     0.81298   0.92751   0.27014   0.00000  Uiso   1.00
O503   O     0.74078   0.79958   0.23413   0.00000  Uiso   1.00
O504   O     0.93360   0.85939   0.21361   0.00000  Uiso   1.00
O505   O     0.73738   0.85544   0.28213   0.00000  Uiso   1.00
O506   O     0.92158   0.81892   0.27014   0.00000  Uiso   1.00
O507   O     0.80426   0.73610   0.23413   0.00000  Uiso   1.00
O508   O     0.87012   0.92286   0.21361   0.00000  Uiso   1.00
S509   S     0.77606   0.95779   0.00896   0.00000  Uiso   1.00
Zn510  Zn    0.86005   0.80661   0.28734   0.00000  Uiso   1.00
Zn511  Zn    0.80046   0.79124   0.21876   0.00000  Uiso   1.00
Zn512  Zn    0.87723   0.86442   0.20657   0.00000  Uiso   1.00
Zn513  Zn    0.79560   0.87106   0.28734   0.00000  Uiso   1.00
Br514  Br    0.18421   0.04327   0.92558   0.00000  Uiso   1.00
C515   C     0.05272   0.15956   0.76001   0.00000  Uiso   1.00
C516   C     0.17785   0.16597   0.55784   0.00000  Uiso   1.00
C517   C     0.20165   0.09993   0.56213   0.00000  Uiso   1.00
C518   C     0.28072   0.17377   0.74005   0.00000  Uiso   1.00
C519   C     0.14127   0.19251   0.92001   0.00000  Uiso   1.00
C520   C     0.32656   0.17646   0.73609   0.00000  Uiso   1.00
C521   C     0.00745   0.15698   0.76382   0.00000  Uiso   1.00
C522   C     0.18036   0.32244   0.73664   0.00000  Uiso   1.00
C523   C     0.15173   0.01172   0.76377   0.00000  Uiso   1.00
C524   C     0.15606   0.05584   0.76019   0.00000  Uiso   1.00
C525   C     0.17653   0.27787   0.74022   0.00000  Uiso   1.00
C526   C     0.12717   0.24329   0.98416   0.00000  Uiso   1.00
C527   C     0.18511   0.14790   0.62947   0.00000  Uiso   1.00
C528   C     0.14788   0.18395   0.87108   0.00000  Uiso   1.00
C529   C     0.19791   0.08721   0.51900   0.00000  Uiso   1.00
C530   C     0.19118   0.13902   0.58161   0.00000  Uiso   1.00
C531   C     0.12796   0.23097   0.93960   0.00000  Uiso   1.00
C532   C     0.14172   0.21819   0.50910   0.00000  Uiso   1.00
C533   C     0.15535   0.17907   0.99067   0.00000  Uiso   1.00
C534   C     0.15184   0.16496   0.94664   0.00000  Uiso   1.00
C535   C     0.17171   0.15322   0.51474   0.00000  Uiso   1.00
C536   C     0.18185   0.11280   0.99533   0.00000  Uiso   1.00
C537   C     0.17414   0.09812   0.95354   0.00000  Uiso   1.00
C538   C     0.15821   0.12349   0.93053   0.00000  Uiso   1.00
H539   H     0.21134   0.07867   0.58097   0.00000  Uiso   1.00
H540   H     0.01551   0.19438   0.71049   0.00000  Uiso   1.00
H541   H     0.08498   0.00880   0.98870   0.00000  Uiso   1.00
H542   H     0.31920   0.13899   0.78974   0.00000  Uiso   1.00
H543   H     0.20678   0.00366   0.71172   0.00000  Uiso   1.00
H544   H     0.12492   0.33129   0.78879   0.00000  Uiso   1.00
H545   H     0.20616   0.05657   0.50524   0.00000  Uiso   1.00
H546   H     0.17052   0.19572   0.57502   0.00000  Uiso   1.00
H547   H     0.11915   0.25193   0.91981   0.00000  Uiso   1.00
H548   H     0.14107   0.22998   0.54305   0.00000  Uiso   1.00
H549   H     0.14983   0.10950   0.90022   0.00000  Uiso   1.00
O550   O     0.16667   0.16667   0.75000   0.00000  Uiso   1.00
O551   O     0.15451   0.12637   0.65459   0.00000  Uiso   1.00
O552   O     0.12940   0.20391   0.84968   0.00000  Uiso   1.00
O553   O     0.20824   0.17759   0.64606   0.00000  Uiso   1.00
O554   O     0.17451   0.15880   0.84968   0.00000  Uiso   1.00
O555   O     0.07388   0.28315   0.55004   0.00000  Uiso   1.00
O556   O     0.14606   0.31895   0.52223   0.00000  Uiso   1.00
O557   O     0.09136   0.31457   0.97319   0.00000  Uiso   1.00
O558   O     0.17930   0.08019   0.78214   0.00000  Uiso   1.00
O559   O     0.14632   0.26085   0.77014   0.00000  Uiso   1.00
O560   O     0.07412   0.13291   0.73413   0.00000  Uiso   1.00
O561   O     0.26693   0.19272   0.71361   0.00000  Uiso   1.00
O562   O     0.07071   0.18878   0.78213   0.00000  Uiso   1.00
O563   O     0.25491   0.15226   0.77014   0.00000  Uiso   1.00
O564   O     0.13760   0.06944   0.73413   0.00000  Uiso   1.00
O565   O     0.20345   0.25620   0.71361   0.00000  Uiso   1.00
S566   S     0.10939   0.29113   0.50896   0.00000  Uiso   1.00
Zn567  Zn    0.19338   0.13994   0.78734   0.00000  Uiso   1.00
Zn568  Zn    0.13379   0.12458   0.71876   0.00000  Uiso   1.00
Zn569  Zn    0.21056   0.19775   0.70657   0.00000  Uiso   1.00
Zn570  Zn    0.12893   0.20439   0.78734   0.00000  Uiso   1.00
Br571  Br    0.51754   0.04327   0.92558   0.00000  Uiso   1.00
C572   C     0.38605   0.15956   0.76001   0.00000  Uiso   1.00
C573   C     0.51118   0.16597   0.55784   0.00000  Uiso   1.00
C574   C     0.53499   0.09993   0.56213   0.00000  Uiso   1.00
C575   C     0.61406   0.17377   0.74005   0.00000  Uiso   1.00
C576   C     0.47461   0.19251   0.92001   0.00000  Uiso   1.00
C577   C     0.65989   0.17646   0.73609   0.00000  Uiso   1.00
C578   C     0.34079   0.15698   0.76382   0.00000  Uiso   1.00
C579   C     0.51370   0.32244   0.73664   0.00000  Uiso   1.00
C580   C     0.48506   0.01172   0.76377   0.00000  Uiso   1.00
C581   C     0.48940   0.05584   0.76019   0.00000  Uiso   1.00
C582   C     0.50987   0.27787   0.74022   0.00000  Uiso   1.00
C583   C     0.46050   0.24329   0.98416   0.00000  Uiso   1.00
C584   C     0.51845   0.14790   0.62947   0.00000  Uiso   1.00
C585   C     0.48122   0.18395   0.87108   0.00000  Uiso   1.00
C586   C     0.53125   0.08721   0.51900   0.00000  Uiso   1.00
C587   C     0.52452   0.13902   0.58161   0.00000  Uiso   1.00
C588   C     0.46130   0.23097   0.93960   0.00000  Uiso   1.00
C589   C     0.47506   0.21819   0.50910   0.00000  Uiso   1.00
C590   C     0.48869   0.17907   0.99067   0.00000  Uiso   1.00
C591   C     0.48518   0.16496   0.94664   0.00000  Uiso   1.00
C592   C     0.50505   0.15322   0.51474   0.00000  Uiso   1.00
C593   C     0.51518   0.11280   0.99533   0.00000  Uiso   1.00
C594   C     0.50747   0.09812   0.95354   0.00000  Uiso   1.00
C595   C     0.49154   0.12349   0.93053   0.00000  Uiso   1.00
H596   H     0.54467   0.07867   0.58097   0.00000  Uiso   1.00
H597   H     0.34884   0.19438   0.71049   0.00000  Uiso   1.00
H598   H     0.41831   0.00880   0.98870   0.00000  Uiso   1.00
H599   H     0.65254   0.13899   0.78974   0.00000  Uiso   1.00
H600   H     0.54011   0.00366   0.71172   0.00000  Uiso   1.00
H601   H     0.45825   0.33129   0.78879   0.00000  Uiso   1.00
H602   H     0.53950   0.05657   0.50524   0.00000  Uiso   1.00
H603   H     0.50386   0.19572   0.57502   0.00000  Uiso   1.00
H604   H     0.45248   0.25193   0.91981   0.00000  Uiso   1.00
H605   H     0.47440   0.22998   0.54305   0.00000  Uiso   1.00
H606   H     0.48316   0.10950   0.90022   0.00000  Uiso   1.00
O607   O     0.50000   0.16667   0.75000   0.00000  Uiso   1.00
O608   O     0.48784   0.12637   0.65459   0.00000  Uiso   1.00
O609   O     0.46274   0.20391   0.84968   0.00000  Uiso   1.00
O610   O     0.54157   0.17759   0.64606   0.00000  Uiso   1.00
O611   O     0.50785   0.15880   0.84968   0.00000  Uiso   1.00
O612   O     0.40721   0.28315   0.55004   0.00000  Uiso   1.00
O613   O     0.47940   0.31895   0.52223   0.00000  Uiso   1.00
O614   O     0.42470   0.31457   0.97319   0.00000  Uiso   1.00
O615   O     0.51264   0.08019   0.78214   0.00000  Uiso   1.00
O616   O     0.47965   0.26085   0.77014   0.00000  Uiso   1.00
O617   O     0.40745   0.13291   0.73413   0.00000  Uiso   1.00
O618   O     0.60026   0.19272   0.71361   0.00000  Uiso   1.00
O619   O     0.40405   0.18878   0.78213   0.00000  Uiso   1.00
O620   O     0.58824   0.15226   0.77014   0.00000  Uiso   1.00
O621   O     0.47093   0.06944   0.73413   0.00000  Uiso   1.00
O622   O     0.53678   0.25620   0.71361   0.00000  Uiso   1.00
S623   S     0.44273   0.29113   0.50896   0.00000  Uiso   1.00
Zn624  Zn    0.52672   0.13994   0.78734   0.00000  Uiso   1.00
Zn625  Zn    0.46713   0.12458   0.71876   0.00000  Uiso   1.00
Zn626  Zn    0.54389   0.19775   0.70657   0.00000  Uiso   1.00
Zn627  Zn    0.46226   0.20439   0.78734   0.00000  Uiso   1.00
Br628  Br    0.85087   0.04327   0.92558   0.00000  Uiso   1.00
C629   C     0.71938   0.15956   0.76001   0.00000  Uiso   1.00
C630   C     0.84451   0.16597   0.55784   0.00000  Uiso   1.00
C631   C     0.86832   0.09993   0.56213   0.00000  Uiso   1.00
C632   C     0.94739   0.17377   0.74005   0.00000  Uiso   1.00
C633   C     0.80794   0.19251   0.92001   0.00000  Uiso   1.00
C634   C     0.99322   0.17646   0.73609   0.00000  Uiso   1.00
C635   C     0.67412   0.15698   0.76382   0.00000  Uiso   1.00
C636   C     0.84703   0.32244   0.73664   0.00000  Uiso   1.00
C637   C     0.81839   0.01172   0.76377   0.00000  Uiso   1.00
C638   C     0.82273   0.05584   0.76019   0.00000  Uiso   1.00
C639   C     0.84320   0.27787   0.74022   0.00000  Uiso   1.00
C640   C     0.79383   0.24329   0.98416   0.00000  Uiso   1.00
C641   C     0.85178   0.14790   0.62947   0.00000  Uiso   1.00
C642   C     0.81455   0.18395   0.87108   0.00000  Uiso   1.00
C643   C     0.86458   0.08721   0.51900   0.00000  Uiso   1.00
C644   C     0.85785   0.13902   0.58161   0.00000  Uiso   1.00
C645   C     0.79463   0.23097   0.93960   0.00000  Uiso   1.00
C646   C     0.80839   0.21819   0.50910   0.00000  Uiso   1.00
C647   C     0.82202   0.17907   0.99067   0.00000  Uiso   1.00
C648   C     0.81851   0.16496   0.94664   0.00000  Uiso   1.00
C649   C     0.83838   0.15322   0.51474   0.00000  Uiso   1.00
C650   C     0.84852   0.11280   0.99533   0.00000  Uiso   1.00
C651   C     0.84081   0.09812   0.95354   0.00000  Uiso   1.00
C652   C     0.82487   0.12349   0.93053   0.00000  Uiso   1.00
H653   H     0.87801   0.07867   0.58097   0.00000  Uiso   1.00
H654   H     0.68218   0.19438   0.71049   0.00000  Uiso   1.00
H655   H     0.75164   0.00880   0.98870   0.00000  Uiso   1.00
H656   H     0.98587   0.13899   0.78974   0.00000  Uiso   1.00
H657   H     0.87345   0.00366   0.71172   0.00000  Uiso   1.00
H658   H     0.79159   0.33129   0.78879   0.00000  Uiso   1.00
H659   H     0.87283   0.05657   0.50524   0.00000  Uiso   1.00
H660   H     0.83719   0.19572   0.57502   0.00000  Uiso   1.00
H661   H     0.78582   0.25193   0.91981   0.00000  Uiso   1.00
H662   H     0.80774   0.22998   0.54305   0.00000  Uiso   1.00
H663   H     0.81649   0.10950   0.90022   0.00000  Uiso   1.00
O664   O     0.83333   0.16667   0.75000   0.00000  Uiso   1.00
O665   O     0.82118   0.12637   0.65459   0.00000  Uiso   1.00
O666   O     0.79607   0.20391   0.84968   0.00000  Uiso   1.00
O667   O     0.87491   0.17759   0.64606   0.00000  Uiso   1.00
O668   O     0.84118   0.15880   0.84968   0.00000  Uiso   1.00
O669   O     0.74055   0.28315   0.55004   0.00000  Uiso   1.00
O670   O     0.81273   0.31895   0.52223   0.00000  Uiso   1.00
O671   O     0.75803   0.31457   0.97319   0.00000  Uiso   1.00
O672   O     0.84597   0.08019   0.78214   0.00000  Uiso   1.00
O673   O     0.81298   0.26085   0.77014   0.00000  Uiso   1.00
O674   O     0.74078   0.13291   0.73413   0.00000  Uiso   1.00
O675   O     0.93360   0.19272   0.71361   0.00000  Uiso   1.00
O676   O     0.73738   0.18878   0.78213   0.00000  Uiso   1.00
O677   O     0.92158   0.15226   0.77014   0.00000  Uiso   1.00
O678   O     0.80426   0.06944   0.73413   0.00000  Uiso   1.00
O679   O     0.87012   0.25620   0.71361   0.00000  Uiso   1.00
S680   S     0.77606   0.29113   0.50896   0.00000  Uiso   1.00
Zn681  Zn    0.86005   0.13994   0.78734   0.00000  Uiso   1.00
Zn682  Zn    0.80046   0.12458   0.71876   0.00000  Uiso   1.00
Zn683  Zn    0.87723   0.19775   0.70657   0.00000  Uiso   1.00
Zn684  Zn    0.79560   0.20439   0.78734   0.00000  Uiso   1.00
Br685  Br    0.18421   0.37660   0.92558   0.00000  Uiso   1.00
C686   C     0.05272   0.49289   0.76001   0.00000  Uiso   1.00
C687   C     0.17785   0.49931   0.55784   0.00000  Uiso   1.00
C688   C     0.20165   0.43326   0.56213   0.00000  Uiso   1.00
C689   C     0.28072   0.50710   0.74005   0.00000  Uiso   1.00
C690   C     0.14127   0.52585   0.92001   0.00000  Uiso   1.00
C691   C     0.32656   0.50980   0.73609   0.00000  Uiso   1.00
C692   C     0.00745   0.49031   0.76382   0.00000  Uiso   1.00
C693   C     0.18036   0.65577   0.73664   0.00000  Uiso   1.00
C694   C     0.15173   0.34505   0.76377   0.00000  Uiso   1.00
C695   C     0.15606   0.38918   0.76019   0.00000  Uiso   1.00
C696   C     0.17653   0.61120   0.74022   0.00000  Uiso   1.00
C697   C     0.12717   0.57662   0.98416   0.00000  Uiso   1.00
C698   C     0.18511   0.48124   0.62947   0.00000  Uiso   1.00
C699   C     0.14788   0.51728   0.87108   0.00000  Uiso   1.00
C700   C     0.19791   0.42054   0.51900   0.00000  Uiso   1.00
C701   C     0.19118   0.47235   0.58161   0.00000  Uiso   1.00
C702   C     0.12796   0.56430   0.93960   0.00000  Uiso   1.00
C703   C     0.14172   0.55152   0.50910   0.00000  Uiso   1.00
C704   C     0.15535   0.51240   0.99067   0.00000  Uiso   1.00
C705   C     0.15184   0.49830   0.94664   0.00000  Uiso   1.00
C706   C     0.17171   0.48655   0.51474   0.00000  Uiso   1.00
C707   C     0.18185   0.44614   0.99533   0.00000  Uiso   1.00
C708   C     0.17414   0.43146   0.95354   0.00000  Uiso   1.00
C709   C     0.15821   0.45683   0.93053   0.00000  Uiso   1.00
H710   H     0.21134   0.41201   0.58097   0.00000  Uiso   1.00
H711   H     0.01551   0.52772   0.71049   0.00000  Uiso   1.00
H712   H     0.08498   0.34213   0.98870   0.00000  Uiso   1.00
H713   H     0.31920   0.47232   0.78974   0.00000  Uiso   1.00
H714   H     0.20678   0.33699   0.71172   0.00000  Uiso   1.00
H715   H     0.12492   0.66463   0.78879   0.00000  Uiso   1.00
H716   H     0.20616   0.38990   0.50524   0.00000  Uiso   1.00
H717   H     0.17052   0.52905   0.57502   0.00000  Uiso   1.00
H718   H     0.11915   0.58526   0.91981   0.00000  Uiso   1.00
H719   H     0.14107   0.56331   0.54305   0.00000  Uiso   1.00
H720   H     0.14983   0.44284   0.90022   0.00000  Uiso   1.00
O721   O     0.16667   0.50000   0.75000   0.00000  Uiso   1.00
O722   O     0.15451   0.45970   0.65459   0.00000  Uiso   1.00
O723   O     0.12940   0.53724   0.84968   0.00000  Uiso   1.00
O724   O     0.20824   0.51092   0.64606   0.00000  Uiso   1.00
O725   O     0.17451   0.49213   0.84968   0.00000  Uiso   1.00
O726   O     0.07388   0.61648   0.55004   0.00000  Uiso   1.00
O727   O     0.14606   0.65229   0.52223   0.00000  Uiso   1.00
O728   O     0.09136   0.64790   0.97319   0.00000  Uiso   1.00
O729   O     0.17930   0.41352   0.78214   0.00000  Uiso   1.00
O730   O     0.14632   0.59418   0.77014   0.00000  Uiso   1.00
O731   O     0.07412   0.46625   0.73413   0.00000  Uiso   1.00
O732   O     0.26693   0.52605   0.71361   0.00000  Uiso   1.00
O733   O     0.07071   0.52211   0.78213   0.00000  Uiso   1.00
O734   O     0.25491   0.48559   0.77014   0.00000  Uiso   1.00
O735   O     0.13760   0.40277   0.73413   0.00000  Uiso   1.00
O736   O     0.20345   0.58953   0.71361   0.00000  Uiso   1.00
S737   S     0.10939   0.62446   0.50896   0.00000  Uiso   1.00
Zn738  Zn    0.19338   0.47327   0.78734   0.00000  Uiso   1.00
Zn739  Zn    0.13379   0.45791   0.71876   0.00000  Uiso   1.00
Zn740  Zn    0.21056   0.53109   0.70657   0.00000  Uiso   1.00
Zn741  Zn    0.12893   0.53773   0.78734   0.00000  Uiso   1.00
Br742  Br    0.51754   0.37660   0.92558   0.00000  Uiso   1.00
C743   C     0.38605   0.49289   0.76001   0.00000  Uiso   1.00
C744   C     0.51118   0.49931   0.55784   0.00000  Uiso   1.00
C745   C     0.53499   0.43326   0.56213   0.00000  Uiso   1.00
C746   C     0.61406   0.50710   0.74005   0.00000  Uiso   1.00
C747   C     0.47461   0.52585   0.92001   0.00000  Uiso   1.00
C748   C     0.65989   0.50980   0.73609   0.00000  Uiso   1.00
C749   C     0.34079   0.49031   0.76382   0.00000  Uiso   1.00
C750   C     0.51370   0.65577   0.73664   0.00000  Uiso   1.00
C751   C     0.48506   0.34505   0.76377   0.00000  Uiso   1.00
C752   C     0.48940   0.38918   0.76019   0.00000  Uiso   1.00
C753   C     0.50987   0.61120   0.74022   0.00000  Uiso   1.00
C754   C     0.46050   0.57662   0.98416   0.00000  Uiso   1.00
C755   C     0.51845   0.48124   0.62947   0.00000  Uiso   1.00
C756   C     0.48122   0.51728   0.87108   0.00000  Uiso   1.00
C757   C     0.53125   0.42054   0.51900   0.00000  Uiso   1.00
C758   C     0.52452   0.47235   0.58161   0.00000  Uiso   1.00
C759   C     0.46130   0.56430   0.93960   0.00000  Uiso   1.00
C760   C     0.47506   0.55152   0.50910   0.00000  Uiso   1.00
C761   C     0.48869   0.51240   0.99067   0.00000  Uiso   1.00
C762   C     0.48518   0.49830   0.94664   0.00000  Uiso   1.00
C763   C     0.50505   0.48655   0.51474   0.00000  Uiso   1.00
C764   C     0.51518   0.44614   0.99533   0.00000  Uiso   1.00
C765   C     0.50747   0.43146   0.95354   0.00000  Uiso   1.00
C766   C     0.49154   0.45683   0.93053   0.00000  Uiso   1.00
H767   H     0.54467   0.41201   0.58097   0.00000  Uiso   1.00
H768   H     0.34884   0.52772   0.71049   0.00000  Uiso   1.00
H769   H     0.41831   0.34213   0.98870   0.00000  Uiso   1.00
H770   H     0.65254   0.47232   0.78974   0.00000  Uiso   1.00
H771   H     0.54011   0.33699   0.71172   0.00000  Uiso   1.00
H772   H     0.45825   0.66463   0.78879   0.00000  Uiso   1.00
H773   H     0.53950   0.38990   0.50524   0.00000  Uiso   1.00
H774   H     0.50386   0.52905   0.57502   0.00000  Uiso   1.00
H775   H     0.45248   0.58526   0.91981   0.00000  Uiso   1.00
H776   H     0.47440   0.56331   0.54305   0.00000  Uiso   1.00
H777   H     0.48316   0.44284   0.90022   0.00000  Uiso   1.00
O778   O     0.50000   0.50000   0.75000   0.00000  Uiso   1.00
O779   O     0.48784   0.45970   0.65459   0.00000  Uiso   1.00
O780   O     0.46274   0.53724   0.84968   0.00000  Uiso   1.00
O781   O     0.54157   0.51092   0.64606   0.00000  Uiso   1.00
O782   O     0.50785   0.49213   0.84968   0.00000  Uiso   1.00
O783   O     0.40721   0.61648   0.55004   0.00000  Uiso   1.00
O784   O     0.47940   0.65229   0.52223   0.00000  Uiso   1.00
O785   O     0.42470   0.64790   0.97319   0.00000  Uiso   1.00
O786   O     0.51264   0.41352   0.78214   0.00000  Uiso   1.00
O787   O     0.47965   0.59418   0.77014   0.00000  Uiso   1.00
O788   O     0.40745   0.46625   0.73413   0.00000  Uiso   1.00
O789   O     0.60026   0.52605   0.71361   0.00000  Uiso   1.00
O790   O     0.40405   0.52211   0.78213   0.00000  Uiso   1.00
O791   O     0.58824   0.48559   0.77014   0.00000  Uiso   1.00
O792   O     0.47093   0.40277   0.73413   0.00000  Uiso   1.00
O793   O     0.53678   0.58953   0.71361   0.00000  Uiso   1.00
S794   S     0.44273   0.62446   0.50896   0.00000  Uiso   1.00
Zn795  Zn    0.52672   0.47327   0.78734   0.00000  Uiso   1.00
Zn796  Zn    0.46713   0.45791   0.71876   0.00000  Uiso   1.00
Zn797  Zn    0.54389   0.53109   0.70657   0.00000  Uiso   1.00
Zn798  Zn    0.46226   0.53773   0.78734   0.00000  Uiso   1.00
Br799  Br    0.85087   0.37660   0.92558   0.00000  Uiso   1.00
C800   C     0.71938   0.49289   0.76001   0.00000  Uiso   1.00
C801   C     0.84451   0.49931   0.55784   0.00000  Uiso   1.00
C802   C     0.86832   0.43326   0.56213   0.00000  Uiso   1.00
C803   C     0.94739   0.50710   0.74005   0.00000  Uiso   1.00
C804   C     0.80794   0.52585   0.92001   0.00000  Uiso   1.00
C805   C     0.99322   0.50980   0.73609   0.00000  Uiso   1.00
C806   C     0.67412   0.49031   0.76382   0.00000  Uiso   1.00
C807   C     0.84703   0.65577   0.73664   0.00000  Uiso   1.00
C808   C     0.81839   0.34505   0.76377   0.00000  Uiso   1.00
C809   C     0.82273   0.38918   0.76019   0.00000  Uiso   1.00
C810   C     0.84320   0.61120   0.74022   0.00000  Uiso   1.00
C811   C     0.79383   0.57662   0.98416   0.00000  Uiso   1.00
C812   C     0.85178   0.48124   0.62947   0.00000  Uiso   1.00
C813   C     0.81455   0.51728   0.87108   0.00000  Uiso   1.00
C814   C     0.86458   0.42054   0.51900   0.00000  Uiso   1.00
C815   C     0.85785   0.47235   0.58161   0.00000  Uiso   1.00
C816   C     0.79463   0.56430   0.93960   0.00000  Uiso   1.00
C817   C     0.80839   0.55152   0.50910   0.00000  Uiso   1.00
C818   C     0.82202   0.51240   0.99067   0.00000  Uiso   1.00
C819   C     0.81851   0.49830   0.94664   0.00000  Uiso   1.00
C820   C     0.83838   0.48655   0.51474   0.00000  Uiso   1.00
C821   C     0.84852   0.44614   0.99533   0.00000  Uiso   1.00
C822   C     0.84081   0.43146   0.95354   0.00000  Uiso   1.00
C823   C     0.82487   0.45683   0.93053   0.00000  Uiso   1.00
H824   H     0.87801   0.41201   0.58097   0.00000  Uiso   1.00
H825   H     0.68218   0.52772   0.71049   0.00000  Uiso   1.00
H826   H     0.75164   0.34213   0.98870   0.00000  Uiso   1.00
H827   H     0.98587   0.47232   0.78974   0.00000  Uiso   1.00
H828   H     0.87345   0.33699   0.71172   0.00000  Uiso   1.00
H829   H     0.79159   0.66463   0.78879   0.00000  Uiso   1.00
H830   H     0.87283   0.38990   0.50524   0.00000  Uiso   1.00
H831   H     0.83719   0.52905   0.57502   0.00000  Uiso   1.00
H832   H     0.78582   0.58526   0.91981   0.00000  Uiso   1.00
H833   H     0.80774   0.56331   0.54305   0.00000  Uiso   1.00
H834   H     0.81649   0.44284   0.90022   0.00000  Uiso   1.00
O835   O     0.83333   0.50000   0.75000   0.00000  Uiso   1.00
O836   O     0.82118   0.45970   0.65459   0.00000  Uiso   1.00
O837   O     0.79607   0.53724   0.84968   0.00000  Uiso   1.00
O838   O     0.87491   0.51092   0.64606   0.00000  Uiso   1.00
O839   O     0.84118   0.49213   0.84968   0.00000  Uiso   1.00
O840   O     0.74055   0.61648   0.55004   0.00000  Uiso   1.00
O841   O     0.81273   0.65229   0.52223   0.00000  Uiso   1.00
O842   O     0.75803   0.64790   0.97319   0.00000  Uiso   1.00
O843   O     0.84597   0.41352   0.78214   0.00000  Uiso   1.00
O844   O     0.81298   0.59418   0.77014   0.00000  Uiso   1.00
O845   O     0.74078   0.46625   0.73413   0.00000  Uiso   1.00
O846   O     0.93360   0.52605   0.71361   0.00000  Uiso   1.00
O847   O     0.73738   0.52211   0.78213   0.00000  Uiso   1.00
O848   O     0.92158   0.48559   0.77014   0.00000  Uiso   1.00
O849   O     0.80426   0.40277   0.73413   0.00000  Uiso   1.00
O850   O     0.87012   0.58953   0.71361   0.00000  Uiso   1.00
S851   S     0.77606   0.62446   0.50896   0.00000  Uiso   1.00
Zn852  Zn    0.86005   0.47327   0.78734   0.00000  Uiso   1.00
Zn853  Zn    0.80046   0.45791   0.71876   0.00000  Uiso   1.00
Zn854  Zn    0.87723   0.53109   0.70657   0.00000  Uiso   1.00
Zn855  Zn    0.79560   0.53773   0.78734   0.00000  Uiso   1.00
Br856  Br    0.18421   0.70994   0.92558   0.00000  Uiso   1.00
C857   C     0.05272   0.82622   0.76001   0.00000  Uiso   1.00
C858   C     0.17785   0.83264   0.55784   0.00000  Uiso   1.00
C859   C     0.20165   0.76660   0.56213   0.00000  Uiso   1.00
C860   C     0.28072   0.84044   0.74005   0.00000  Uiso   1.00
C861   C     0.14127   0.85918   0.92001   0.00000  Uiso   1.00
C862   C     0.32656   0.84313   0.73609   0.00000  Uiso   1.00
C863   C     0.00745   0.82364   0.76382   0.00000  Uiso   1.00
C864   C     0.18036   0.98911   0.73664   0.00000  Uiso   1.00
C865   C     0.15173   0.67838   0.76377   0.00000  Uiso   1.00
C866   C     0.15606   0.72251   0.76019   0.00000  Uiso   1.00
C867   C     0.17653   0.94454   0.74022   0.00000  Uiso   1.00
C868   C     0.12717   0.90996   0.98416   0.00000  Uiso   1.00
C869   C     0.18511   0.81457   0.62947   0.00000  Uiso   1.00
C870   C     0.14788   0.85062   0.87108   0.00000  Uiso   1.00
C871   C     0.19791   0.75388   0.51900   0.00000  Uiso   1.00
C872   C     0.19118   0.80568   0.58161   0.00000  Uiso   1.00
C873   C     0.12796   0.89763   0.93960   0.00000  Uiso   1.00
C874   C     0.14172   0.88486   0.50910   0.00000  Uiso   1.00
C875   C     0.15535   0.84573   0.99067   0.00000  Uiso   1.00
C876   C     0.15184   0.83163   0.94664   0.00000  Uiso   1.00
C877   C     0.17171   0.81989   0.51474   0.00000  Uiso   1.00
C878   C     0.18185   0.77947   0.99533   0.00000  Uiso   1.00
C879   C     0.17414   0.76479   0.95354   0.00000  Uiso   1.00
C880   C     0.15821   0.79016   0.93053   0.00000  Uiso   1.00
H881   H     0.21134   0.74534   0.58097   0.00000  Uiso   1.00
H882   H     0.01551   0.86105   0.71049   0.00000  Uiso   1.00
H883   H     0.08498   0.67546   0.98870   0.00000  Uiso   1.00
H884   H     0.31920   0.80565   0.78974   0.00000  Uiso   1.00
H885   H     0.20678   0.67033   0.71172   0.00000  Uiso   1.00
H886   H     0.12492   0.99796   0.78879   0.00000  Uiso   1.00
H887   H     0.20616   0.72324   0.50524   0.00000  Uiso   1.00
H888   H     0.17052   0.86239   0.57502   0.00000  Uiso   1.00
H889   H     0.11915   0.91860   0.91981   0.00000  Uiso   1.00
H890   H     0.14107   0.89664   0.54305   0.00000  Uiso   1.00
H891   H     0.14983   0.77617   0.90022   0.00000  Uiso   1.00
O892   O     0.16667   0.83333   0.75000   0.00000  Uiso   1.00
O893   O     0.15451   0.79304   0.65459   0.00000  Uiso   1.00
O894   O     0.12940   0.87058   0.84968   0.00000  Uiso   1.00
O895   O     0.20824   0.84425   0.64606   0.00000  Uiso   1.00
O896   O     0.17451   0.82546   0.84968   0.00000  Uiso   1.00
O897   O     0.07388   0.94981   0.55004   0.00000  Uiso   1.00
O898   O     0.14606   0.98562   0.52223   0.00000  Uiso   1.00
O899   O     0.09136   0.98124   0.97319   0.00000  Uiso   1.00
O900   O     0.17930   0.74686   0.78214   0.00000  Uiso   1.00
O901   O     0.14632   0.92751   0.77014   0.00000  Uiso   1.00
O902   O     0.07412   0.79958   0.73413   0.00000  Uiso   1.00
O903   O     0.26693   0.85939   0.71361   0.00000  Uiso   1.00
O904   O     0.07071   0.85544   0.78213   0.00000  Uiso   1.00
O905   O     0.25491   0.81892   0.77014   0.00000  Uiso   1.00
O906   O     0.13760   0.73610   0.73413   0.00000  Uiso   1.00
O907   O     0.20345   0.92286   0.71361   0.00000  Uiso   1.00
S908   S     0.10939   0.95779   0.50896   0.00000  Uiso   1.00
Zn909  Zn    0.19338   0.80661   0.78734   0.00000  Uiso   1.00
Zn910  Zn    0.13379   0.79124   0.71876   0.00000  Uiso   1.00
Zn911  Zn    0.21056   0.86442   0.70657   0.00000  Uiso   1.00
Zn912  Zn    0.12893   0.87106   0.78734   0.00000  Uiso   1.00
Br913  Br    0.51754   0.70994   0.92558   0.00000  Uiso   1.00
C914   C     0.38605   0.82622   0.76001   0.00000  Uiso   1.00
C915   C     0.51118   0.83264   0.55784   0.00000  Uiso   1.00
C916   C     0.53499   0.76660   0.56213   0.00000  Uiso   1.00
C917   C     0.61406   0.84044   0.74005   0.00000  Uiso   1.00
C918   C     0.47461   0.85918   0.92001   0.00000  Uiso   1.00
C919   C     0.65989   0.84313   0.73609   0.00000  Uiso   1.00
C920   C     0.34079   0.82364   0.76382   0.00000  Uiso   1.00
C921   C     0.51370   0.98911   0.73664   0.00000  Uiso   1.00
C922   C     0.48506   0.67838   0.76377   0.00000  Uiso   1.00
C923   C     0.48940   0.72251   0.76019   0.00000  Uiso   1.00
C924   C     0.50987   0.94454   0.74022   0.00000  Uiso   1.00
C925   C     0.46050   0.90996   0.98416   0.00000  Uiso   1.00
C926   C     0.51845   0.81457   0.62947   0.00000  Uiso   1.00
C927   C     0.48122   0.85062   0.87108   0.00000  Uiso   1.00
C928   C     0.53125   0.75388   0.51900   0.00000  Uiso   1.00
C929   C     0.52452   0.80568   0.58161   0.00000  Uiso   1.00
C930   C     0.46130   0.89763   0.93960   0.00000  Uiso   1.00
C931   C     0.47506   0.88486   0.50910   0.00000  Uiso   1.00
C932   C     0.48869   0.84573   0.99067   0.00000  Uiso   1.00
C933   C     0.48518   0.83163   0.94664   0.00000  Uiso   1.00
C934   C     0.50505   0.81989   0.51474   0.00000  Uiso   1.00
C935   C     0.51518   0.77947   0.99533   0.00000  Uiso   1.00
C936   C     0.50747   0.76479   0.95354   0.00000  Uiso   1.00
C937   C     0.49154   0.79016   0.93053   0.00000  Uiso   1.00
H938   H     0.54467   0.74534   0.58097   0.00000  Uiso   1.00
H939   H     0.34884   0.86105   0.71049   0.00000  Uiso   1.00
H940   H     0.41831   0.67546   0.98870   0.00000  Uiso   1.00
H941   H     0.65254   0.80565   0.78974   0.00000  Uiso   1.00
H942   H     0.54011   0.67033   0.71172   0.00000  Uiso   1.00
H943   H     0.45825   0.99796   0.78879   0.00000  Uiso   1.00
H944   H     0.53950   0.72324   0.50524   0.00000  Uiso   1.00
H945   H     0.50386   0.86239   0.57502   0.00000  Uiso   1.00
H946   H     0.45248   0.91860   0.91981   0.00000  Uiso   1.00
H947   H     0.47440   0.89664   0.54305   0.00000  Uiso   1.00
H948   H     0.48316   0.77617   0.90022   0.00000  Uiso   1.00
O949   O     0.50000   0.83333   0.75000   0.00000  Uiso   1.00
O950   O     0.48784   0.79304   0.65459   0.00000  Uiso   1.00
O951   O     0.46274   0.87058   0.84968   0.00000  Uiso   1.00
O952   O     0.54157   0.84425   0.64606   0.00000  Uiso   1.00
O953   O     0.50785   0.82546   0.84968   0.00000  Uiso   1.00
O954   O     0.40721   0.94981   0.55004   0.00000  Uiso   1.00
O955   O     0.47940   0.98562   0.52223   0.00000  Uiso   1.00
O956   O     0.42470   0.98124   0.97319   0.00000  Uiso   1.00
O957   O     0.51264   0.74686   0.78214   0.00000  Uiso   1.00
O958   O     0.47965   0.92751   0.77014   0.00000  Uiso   1.00
O959   O     0.40745   0.79958   0.73413   0.00000  Uiso   1.00
O960   O     0.60026   0.85939   0.71361   0.00000  Uiso   1.00
O961   O     0.40405   0.85544   0.78213   0.00000  Uiso   1.00
O962   O     0.58824   0.81892   0.77014   0.00000  Uiso   1.00
O963   O     0.47093   0.73610   0.73413   0.00000  Uiso   1.00
O964   O     0.53678   0.92286   0.71361   0.00000  Uiso   1.00
S965   S     0.44273   0.95779   0.50896   0.00000  Uiso   1.00
Zn966  Zn    0.52672   0.80661   0.78734   0.00000  Uiso   1.00
Zn967  Zn    0.46713   0.79124   0.71876   0.00000  Uiso   1.00
Zn968  Zn    0.54389   0.86442   0.70657   0.00000  Uiso   1.00
Zn969  Zn    0.46226   0.87106   0.78734   0.00000  Uiso   1.00
Br970  Br    0.85087   0.70994   0.92558   0.00000  Uiso   1.00
C971   C     0.71938   0.82622   0.76001   0.00000  Uiso   1.00
C972   C     0.84451   0.83264   0.55784   0.00000  Uiso   1.00
C973   C     0.86832   0.76660   0.56213   0.00000  Uiso   1.00
C974   C     0.94739   0.84044   0.74005   0.00000  Uiso   1.00
C975   C     0.80794   0.85918   0.92001   0.00000  Uiso   1.00
C976   C     0.99322   0.84313   0.73609   0.00000  Uiso   1.00
C977   C     0.67412   0.82364   0.76382   0.00000  Uiso   1.00
C978   C     0.84703   0.98911   0.73664   0.00000  Uiso   1.00
C979   C     0.81839   0.67838   0.76377   0.00000  Uiso   1.00
C980   C     0.82273   0.72251   0.76019   0.00000  Uiso   1.00
C981   C     0.84320   0.94454   0.74022   0.00000  Uiso   1.00
C982   C     0.79383   0.90996   0.98416   0.00000  Uiso   1.00
C983   C     0.85178   0.81457   0.62947   0.00000  Uiso   1.00
C984   C     0.81455   0.85062   0.87108   0.00000  Uiso   1.00
C985   C     0.86458   0.75388   0.51900   0.00000  Uiso   1.00
C986   C     0.85785   0.80568   0.58161   0.00000  Uiso   1.00
C987   C     0.79463   0.89763   0.93960   0.00000  Uiso   1.00
C988   C     0.80839   0.88486   0.50910   0.00000  Uiso   1.00
C989   C     0.82202   0.84573   0.99067   0.00000  Uiso   1.00
C990   C     0.81851   0.83163   0.94664   0.00000  Uiso   1.00
C991   C     0.83838   0.81989   0.51474   0.00000  Uiso   1.00
C992   C     0.84852   0.77947   0.99533   0.00000  Uiso   1.00
C993   C     0.84081   0.76479   0.95354   0.00000  Uiso   1.00
C994   C     0.82487   0.79016   0.93053   0.00000  Uiso   1.00
H995   H     0.87801   0.74534   0.58097   0.00000  Uiso   1.00
H996   H     0.68218   0.86105   0.71049   0.00000  Uiso   1.00
H997   H     0.75164   0.67546   0.98870   0.00000  Uiso   1.00
H998   H     0.98587   0.80565   0.78974   0.00000  Uiso   1.00
H999   H     0.87345   0.67033   0.71172   0.00000  Uiso   1.00
H1000  H     0.79159   0.99796   0.78879   0.00000  Uiso   1.00
H1001  H     0.87283   0.72324   0.50524   0.00000  Uiso   1.00
H1002  H     0.83719   0.86239   0.57502   0.00000  Uiso   1.00
H1003  H     0.78582   0.91860   0.91981   0.00000  Uiso   1.00
H1004  H     0.80774   0.89664   0.54305   0.00000  Uiso   1.00
H1005  H     0.81649   0.77617   0.90022   0.00000  Uiso   1.00
O1006  O     0.83333   0.83333   0.75000   0.00000  Uiso   1.00
O1007  O     0.82118   0.79304   0.65459   0.00000  Uiso   1.00
O1008  O     0.79607   0.87058   0.84968   0.00000  Uiso   1.00
O1009  O     0.87491   0.84425   0.64606   0.00000  Uiso   1.00
O1010  O     0.84118   0.82546   0.84968   0.00000  Uiso   1.00
O1011  O     0.74055   0.94981   0.55004   0.00000  Uiso   1.00
O1012  O     0.81273   0.98562   0.52223   0.00000  Uiso   1.00
O1013  O     0.75803   0.98124   0.97319   0.00000  Uiso   1.00
O1014  O     0.84597   0.74686   0.78214   0.00000  Uiso   1.00
O1015  O     0.81298   0.92751   0.77014   0.00000  Uiso   1.00
O1016  O     0.74078   0.79958   0.73413   0.00000  Uiso   1.00
O1017  O     0.93360   0.85939   0.71361   0.00000  Uiso   1.00
O1018  O     0.73738   0.85544   0.78213   0.00000  Uiso   1.00
O1019  O     0.92158   0.81892   0.77014   0.00000  Uiso   1.00
O1020  O     0.80426   0.73610   0.73413   0.00000  Uiso   1.00
O1021  O     0.87012   0.92286   0.71361   0.00000  Uiso   1.00
S1022  S     0.77606   0.95779   0.50896   0.00000  Uiso   1.00
Zn1023 Zn    0.86005   0.80661   0.78734   0.00000  Uiso   1.00
Zn1024 Zn    0.80046   0.79124   0.71876   0.00000  Uiso   1.00
Zn1025 Zn    0.87723   0.86442   0.70657   0.00000  Uiso   1.00
Zn1026 Zn    0.79560   0.87106   0.78734   0.00000  Uiso   1.00
loop_
_geom_bond_atom_site_label_1
_geom_bond_atom_site_label_2
_geom_bond_distance
_geom_bond_site_symmetry_2
_ccdc_geom_bond_type
Br1    C24     1.925   .     S
C2     O49     1.268   .     A
C2     O47     1.268   .     A
C2     C8      1.437   .     S
C3     C17     1.390   .     A
C3     H33     1.077   .     S
C3     C22     1.411   .     A
C4     C16     1.387   .     A
C4     H26     1.084   .     S
C4     C17     1.393   .     A
C5     C7      1.454   .     S
C5     O48     1.284   .     A
C5     O50     1.281   .     A
C6     C18     1.403   .     A
C6     C15     1.479   .     S
C6     C21     1.420   .     A
C7     C65     1.334   .     S
C7     H84     1.088   .     S
C8     C121    1.334   1_455 S
C8     H143    1.086   1_455 S
C9     C12     1.451   .     S
C9     C181    1.331   .     S
C9     H201    1.088   .     S
C10    C11     1.435   .     S
C10    C351    1.331   1_545 S
C10    H373    1.086   1_545 S
C11    O45     1.275   .     A
C11    O51     1.275   .     A
C12    O46     1.274   .     A
C12    O52     1.273   .     A
C13    C18     1.391   .     A
C13    C532    1.394   .     S
C13    S566    1.762   .     S
C14    C17     1.449   .     S
C14    O40     1.277   .     A
C14    O38     1.269   .     A
C15    O39     1.284   .     A
C15    O41     1.283   .     A
C16    H32     1.081   .     S
C16    C536    1.406   1_554 S
C18    H34     1.083   .     S
C19    H35     1.076   .     S
C19    C526    1.394   1_554 S
C19    C533    1.417   1_554 S
C20    C21     1.420   .     A
C20    C532    1.417   .     S
C20    C535    1.426   .     S
C21    C25     1.408   .     A
C22    C533    1.426   1_554 S
C22    C536    1.428   1_554 S
C23    C24     1.402   .     A
C23    C535    1.428   .     S
C23    C529    1.406   .     S
C24    C25     1.385   .     A
C25    H36     1.079   .     S
H27    C121    1.088   1_455 S
H28    O386    0.991   1_545 S
H29    C65     1.086   .     S
H30    C351    1.088   1_545 S
H31    C181    1.086   .     S
O37    Zn54    1.959   .     S
O37    Zn57    1.933   .     S
O37    Zn55    1.937   .     S
O37    Zn56    1.943   .     S
O38    Zn55    1.938   .     S
O39    Zn57    1.944   .     S
O40    Zn56    1.935   .     S
O41    Zn54    1.931   .     S
O42    S53     1.503   .     D
O43    S53     1.503   .     D
O44    H199    0.991   .     S
O44    S566    1.682   .     S
O45    Zn54    1.926   .     S
O46    Zn57    1.934   .     S
O47    Zn55    1.928   .     S
O48    Zn56    1.934   .     S
O49    Zn57    1.930   .     S
O50    Zn54    1.926   .     S
O51    Zn55    1.938   .     S
O52    Zn56    1.929   .     S
S53    O557    1.682   1_554 S
S53    C526    1.762   1_554 S
Br58   C81     1.925   .     S
C59    O106    1.268   .     A
C59    O104    1.268   .     A
C59    C65     1.437   .     S
C60    C74     1.390   .     A
C60    H90     1.077   .     S
C60    C79     1.411   .     A
C61    C73     1.387   .     A
C61    H83     1.084   .     S
C61    C74     1.393   .     A
C62    C64     1.454   .     S
C62    O105    1.284   .     A
C62    O107    1.281   .     A
C63    C75     1.403   .     A
C63    C72     1.479   .     S
C63    C78     1.420   .     A
C64    C122    1.334   .     S
C64    H141    1.088   .     S
C66    C69     1.451   .     S
C66    C238    1.331   .     S
C66    H258    1.088   .     S
C67    C68     1.435   .     S
C67    C408    1.331   1_545 S
C67    H430    1.086   1_545 S
C68    O102    1.275   .     A
C68    O108    1.275   .     A
C69    O103    1.274   .     A
C69    O109    1.273   .     A
C70    C75     1.391   .     A
C70    C589    1.394   .     S
C70    S623    1.762   .     S
C71    C74     1.449   .     S
C71    O97     1.277   .     A
C71    O95     1.269   .     A
C72    O96     1.284   .     A
C72    O98     1.283   .     A
C73    H89     1.081   .     S
C73    C593    1.406   1_554 S
C75    H91     1.083   .     S
C76    H92     1.076   .     S
C76    C583    1.394   1_554 S
C76    C590    1.417   1_554 S
C77    C78     1.420   .     A
C77    C589    1.417   .     S
C77    C592    1.426   .     S
C78    C82     1.408   .     A
C79    C590    1.426   1_554 S
C79    C593    1.428   1_554 S
C80    C81     1.402   .     A
C80    C592    1.428   .     S
C80    C586    1.406   .     S
C81    C82     1.385   .     A
C82    H93     1.079   .     S
H85    O443    0.991   1_545 S
H86    C122    1.086   .     S
H87    C408    1.088   1_545 S
H88    C238    1.086   .     S
O94    Zn111   1.959   .     S
O94    Zn114   1.933   .     S
O94    Zn112   1.937   .     S
O94    Zn113   1.943   .     S
O95    Zn112   1.938   .     S
O96    Zn114   1.944   .     S
O97    Zn113   1.935   .     S
O98    Zn111   1.931   .     S
O99    S110    1.503   .     D
O100   S110    1.503   .     D
O101   H256    0.991   .     S
O101   S623    1.682   .     S
O102   Zn111   1.926   .     S
O103   Zn114   1.934   .     S
O104   Zn112   1.928   .     S
O105   Zn113   1.934   .     S
O106   Zn114   1.930   .     S
O107   Zn111   1.926   .     S
O108   Zn112   1.938   .     S
O109   Zn113   1.929   .     S
S110   O614    1.682   1_554 S
S110   C583    1.762   1_554 S
Br115  C138    1.925   .     S
C116   O163    1.268   .     A
C116   O161    1.268   .     A
C116   C122    1.437   .     S
C117   C131    1.390   .     A
C117   H147    1.077   .     S
C117   C136    1.411   .     A
C118   C130    1.387   .     A
C118   H140    1.084   .     S
C118   C131    1.393   .     A
C119   C121    1.454   .     S
C119   O162    1.284   .     A
C119   O164    1.281   .     A
C120   C132    1.403   .     A
C120   C129    1.479   .     S
C120   C135    1.420   .     A
C121   C8      1.334   1_655 S
C121   H27     1.088   1_655 S
C123   C126    1.451   .     S
C123   C295    1.331   .     S
C123   H315    1.088   .     S
C124   C125    1.435   .     S
C124   C465    1.331   1_545 S
C124   H487    1.086   1_545 S
C125   O159    1.275   .     A
C125   O165    1.275   .     A
C126   O160    1.274   .     A
C126   O166    1.273   .     A
C127   C132    1.391   .     A
C127   C646    1.394   .     S
C127   S680    1.762   .     S
C128   C131    1.449   .     S
C128   O154    1.277   .     A
C128   O152    1.269   .     A
C129   O153    1.284   .     A
C129   O155    1.283   .     A
C130   H146    1.081   .     S
C130   C650    1.406   1_554 S
C132   H148    1.083   .     S
C133   H149    1.076   .     S
C133   C640    1.394   1_554 S
C133   C647    1.417   1_554 S
C134   C135    1.420   .     A
C134   C646    1.417   .     S
C134   C649    1.426   .     S
C135   C139    1.408   .     A
C136   C647    1.426   1_554 S
C136   C650    1.428   1_554 S
C137   C138    1.402   .     A
C137   C649    1.428   .     S
C137   C643    1.406   .     S
C138   C139    1.385   .     A
C139   H150    1.079   .     S
H142   O500    0.991   1_545 S
H143   C8      1.086   1_655 S
H144   C465    1.088   1_545 S
H145   C295    1.086   .     S
O151   Zn168   1.959   .     S
O151   Zn171   1.933   .     S
O151   Zn169   1.937   .     S
O151   Zn170   1.943   .     S
O152   Zn169   1.938   .     S
O153   Zn171   1.944   .     S
O154   Zn170   1.935   .     S
O155   Zn168   1.931   .     S
O156   S167    1.503   .     D
O157   S167    1.503   .     D
O158   H313    0.991   .     S
O158   S680    1.682   .     S
O159   Zn168   1.926   .     S
O160   Zn171   1.934   .     S
O161   Zn169   1.928   .     S
O162   Zn170   1.934   .     S
O163   Zn171   1.930   .     S
O164   Zn168   1.926   .     S
O165   Zn169   1.938   .     S
O166   Zn170   1.929   .     S
S167   O671    1.682   1_554 S
S167   C640    1.762   1_554 S
Br172  C195    1.925   .     S
C173   O220    1.268   .     A
C173   O218    1.268   .     A
C173   C179    1.437   .     S
C174   C188    1.390   .     A
C174   H204    1.077   .     S
C174   C193    1.411   .     A
C175   C187    1.387   .     A
C175   H197    1.084   .     S
C175   C188    1.393   .     A
C176   C178    1.454   .     S
C176   O219    1.284   .     A
C176   O221    1.281   .     A
C177   C189    1.403   .     A
C177   C186    1.479   .     S
C177   C192    1.420   .     A
C178   C236    1.334   .     S
C178   H255    1.088   .     S
C179   C292    1.334   1_455 S
C179   H314    1.086   1_455 S
C180   C183    1.451   .     S
C180   C352    1.331   .     S
C180   H372    1.088   .     S
C181   C182    1.435   .     S
C182   O216    1.275   .     A
C182   O222    1.275   .     A
C183   O217    1.274   .     A
C183   O223    1.273   .     A
C184   C189    1.391   .     A
C184   C703    1.394   .     S
C184   S737    1.762   .     S
C185   C188    1.449   .     S
C185   O211    1.277   .     A
C185   O209    1.269   .     A
C186   O210    1.284   .     A
C186   O212    1.283   .     A
C187   H203    1.081   .     S
C187   C707    1.406   1_554 S
C189   H205    1.083   .     S
C190   H206    1.076   .     S
C190   C697    1.394   1_554 S
C190   C704    1.417   1_554 S
C191   C192    1.420   .     A
C191   C703    1.417   .     S
C191   C706    1.426   .     S
C192   C196    1.408   .     A
C193   C704    1.426   1_554 S
C193   C707    1.428   1_554 S
C194   C195    1.402   .     A
C194   C706    1.428   .     S
C194   C700    1.406   .     S
C195   C196    1.385   .     A
C196   H207    1.079   .     S
H198   C292    1.088   1_455 S
H200   C236    1.086   .     S
H202   C352    1.086   .     S
O208   Zn225   1.959   .     S
O208   Zn228   1.933   .     S
O208   Zn226   1.937   .     S
O208   Zn227   1.943   .     S
O209   Zn226   1.938   .     S
O210   Zn228   1.944   .     S
O211   Zn227   1.935   .     S
O212   Zn225   1.931   .     S
O213   S224    1.503   .     D
O214   S224    1.503   .     D
O215   H370    0.991   .     S
O215   S737    1.682   .     S
O216   Zn225   1.926   .     S
O217   Zn228   1.934   .     S
O218   Zn226   1.928   .     S
O219   Zn227   1.934   .     S
O220   Zn228   1.930   .     S
O221   Zn225   1.926   .     S
O222   Zn226   1.938   .     S
O223   Zn227   1.929   .     S
S224   O728    1.682   1_554 S
S224   C697    1.762   1_554 S
Br229  C252    1.925   .     S
C230   O277    1.268   .     A
C230   O275    1.268   .     A
C230   C236    1.437   .     S
C231   C245    1.390   .     A
C231   H261    1.077   .     S
C231   C250    1.411   .     A
C232   C244    1.387   .     A
C232   H254    1.084   .     S
C232   C245    1.393   .     A
C233   C235    1.454   .     S
C233   O276    1.284   .     A
C233   O278    1.281   .     A
C234   C246    1.403   .     A
C234   C243    1.479   .     S
C234   C249    1.420   .     A
C235   C293    1.334   .     S
C235   H312    1.088   .     S
C237   C240    1.451   .     S
C237   C409    1.331   .     S
C237   H429    1.088   .     S
C238   C239    1.435   .     S
C239   O273    1.275   .     A
C239   O279    1.275   .     A
C240   O274    1.274   .     A
C240   O280    1.273   .     A
C241   C246    1.391   .     A
C241   C760    1.394   .     S
C241   S794    1.762   .     S
C242   C245    1.449   .     S
C242   O268    1.277   .     A
C242   O266    1.269   .     A
C243   O267    1.284   .     A
C243   O269    1.283   .     A
C244   H260    1.081   .     S
C244   C764    1.406   1_554 S
C246   H262    1.083   .     S
C247   H263    1.076   .     S
C247   C754    1.394   1_554 S
C247   C761    1.417   1_554 S
C248   C249    1.420   .     A
C248   C760    1.417   .     S
C248   C763    1.426   .     S
C249   C253    1.408   .     A
C250   C761    1.426   1_554 S
C250   C764    1.428   1_554 S
C251   C252    1.402   .     A
C251   C763    1.428   .     S
C251   C757    1.406   .     S
C252   C253    1.385   .     A
C253   H264    1.079   .     S
H257   C293    1.086   .     S
H259   C409    1.086   .     S
O265   Zn282   1.959   .     S
O265   Zn285   1.933   .     S
O265   Zn283   1.937   .     S
O265   Zn284   1.943   .     S
O266   Zn283   1.938   .     S
O267   Zn285   1.944   .     S
O268   Zn284   1.935   .     S
O269   Zn282   1.931   .     S
O270   S281    1.503   .     D
O271   S281    1.503   .     D
O272   H427    0.991   .     S
O272   S794    1.682   .     S
O273   Zn282   1.926   .     S
O274   Zn285   1.934   .     S
O275   Zn283   1.928   .     S
O276   Zn284   1.934   .     S
O277   Zn285   1.930   .     S
O278   Zn282   1.926   .     S
O279   Zn283   1.938   .     S
O280   Zn284   1.929   .     S
S281   O785    1.682   1_554 S
S281   C754    1.762   1_554 S
Br286  C309    1.925   .     S
C287   O334    1.268   .     A
C287   O332    1.268   .     A
C287   C293    1.437   .     S
C288   C302    1.390   .     A
C288   H318    1.077   .     S
C288   C307    1.411   .     A
C289   C301    1.387   .     A
C289   H311    1.084   .     S
C289   C302    1.393   .     A
C290   C292    1.454   .     S
C290   O333    1.284   .     A
C290   O335    1.281   .     A
C291   C303    1.403   .     A
C291   C300    1.479   .     S
C291   C306    1.420   .     A
C292   C179    1.334   1_655 S
C292   H198    1.088   1_655 S
C294   C297    1.451   .     S
C294   C466    1.331   .     S
C294   H486    1.088   .     S
C295   C296    1.435   .     S
C296   O330    1.275   .     A
C296   O336    1.275   .     A
C297   O331    1.274   .     A
C297   O337    1.273   .     A
C298   C303    1.391   .     A
C298   C817    1.394   .     S
C298   S851    1.762   .     S
C299   C302    1.449   .     S
C299   O325    1.277   .     A
C299   O323    1.269   .     A
C300   O324    1.284   .     A
C300   O326    1.283   .     A
C301   H317    1.081   .     S
C301   C821    1.406   1_554 S
C303   H319    1.083   .     S
C304   H320    1.076   .     S
C304   C811    1.394   1_554 S
C304   C818    1.417   1_554 S
C305   C306    1.420   .     A
C305   C817    1.417   .     S
C305   C820    1.426   .     S
C306   C310    1.408   .     A
C307   C818    1.426   1_554 S
C307   C821    1.428   1_554 S
C308   C309    1.402   .     A
C308   C820    1.428   .     S
C308   C814    1.406   .     S
C309   C310    1.385   .     A
C310   H321    1.079   .     S
H314   C179    1.086   1_655 S
H316   C466    1.086   .     S
O322   Zn339   1.959   .     S
O322   Zn342   1.933   .     S
O322   Zn340   1.937   .     S
O322   Zn341   1.943   .     S
O323   Zn340   1.938   .     S
O324   Zn342   1.944   .     S
O325   Zn341   1.935   .     S
O326   Zn339   1.931   .     S
O327   S338    1.503   .     D
O328   S338    1.503   .     D
O329   H484    0.991   .     S
O329   S851    1.682   .     S
O330   Zn339   1.926   .     S
O331   Zn342   1.934   .     S
O332   Zn340   1.928   .     S
O333   Zn341   1.934   .     S
O334   Zn342   1.930   .     S
O335   Zn339   1.926   .     S
O336   Zn340   1.938   .     S
O337   Zn341   1.929   .     S
S338   O842    1.682   1_554 S
S338   C811    1.762   1_554 S
Br343  C366    1.925   .     S
C344   O391    1.268   .     A
C344   O389    1.268   .     A
C344   C350    1.437   .     S
C345   C359    1.390   .     A
C345   H375    1.077   .     S
C345   C364    1.411   .     A
C346   C358    1.387   .     A
C346   H368    1.084   .     S
C346   C359    1.393   .     A
C347   C349    1.454   .     S
C347   O390    1.284   .     A
C347   O392    1.281   .     A
C348   C360    1.403   .     A
C348   C357    1.479   .     S
C348   C363    1.420   .     A
C349   C407    1.334   .     S
C349   H426    1.088   .     S
C350   C463    1.334   1_455 S
C350   H485    1.086   1_455 S
C351   C354    1.451   .     S
C351   C10     1.331   1_565 S
C351   H30     1.088   1_565 S
C352   C353    1.435   .     S
C353   O387    1.275   .     A
C353   O393    1.275   .     A
C354   O388    1.274   .     A
C354   O394    1.273   .     A
C355   C360    1.391   .     A
C355   C874    1.394   .     S
C355   S908    1.762   .     S
C356   C359    1.449   .     S
C356   O382    1.277   .     A
C356   O380    1.269   .     A
C357   O381    1.284   .     A
C357   O383    1.283   .     A
C358   H374    1.081   .     S
C358   C878    1.406   1_554 S
C360   H376    1.083   .     S
C361   H377    1.076   .     S
C361   C868    1.394   1_554 S
C361   C875    1.417   1_554 S
C362   C363    1.420   .     A
C362   C874    1.417   .     S
C362   C877    1.426   .     S
C363   C367    1.408   .     A
C364   C875    1.426   1_554 S
C364   C878    1.428   1_554 S
C365   C366    1.402   .     A
C365   C877    1.428   .     S
C365   C871    1.406   .     S
C366   C367    1.385   .     A
C367   H378    1.079   .     S
H369   C463    1.088   1_455 S
H371   C407    1.086   .     S
H373   C10     1.086   1_565 S
O379   Zn396   1.959   .     S
O379   Zn399   1.933   .     S
O379   Zn397   1.937   .     S
O379   Zn398   1.943   .     S
O380   Zn397   1.938   .     S
O381   Zn399   1.944   .     S
O382   Zn398   1.935   .     S
O383   Zn396   1.931   .     S
O384   S395    1.503   .     D
O385   S395    1.503   .     D
O386   H28     0.991   1_565 S
O386   S908    1.682   .     S
O387   Zn396   1.926   .     S
O388   Zn399   1.934   .     S
O389   Zn397   1.928   .     S
O390   Zn398   1.934   .     S
O391   Zn399   1.930   .     S
O392   Zn396   1.926   .     S
O393   Zn397   1.938   .     S
O394   Zn398   1.929   .     S
S395   O899    1.682   1_554 S
S395   C868    1.762   1_554 S
Br400  C423    1.925   .     S
C401   O448    1.268   .     A
C401   O446    1.268   .     A
C401   C407    1.437   .     S
C402   C416    1.390   .     A
C402   H432    1.077   .     S
C402   C421    1.411   .     A
C403   C415    1.387   .     A
C403   H425    1.084   .     S
C403   C416    1.393   .     A
C404   C406    1.454   .     S
C404   O447    1.284   .     A
C404   O449    1.281   .     A
C405   C417    1.403   .     A
C405   C414    1.479   .     S
C405   C420    1.420   .     A
C406   C464    1.334   .     S
C406   H483    1.088   .     S
C408   C411    1.451   .     S
C408   C67     1.331   1_565 S
C408   H87     1.088   1_565 S
C409   C410    1.435   .     S
C410   O444    1.275   .     A
C410   O450    1.275   .     A
C411   O445    1.274   .     A
C411   O451    1.273   .     A
C412   C417    1.391   .     A
C412   C931    1.394   .     S
C412   S965    1.762   .     S
C413   C416    1.449   .     S
C413   O439    1.277   .     A
C413   O437    1.269   .     A
C414   O438    1.284   .     A
C414   O440    1.283   .     A
C415   H431    1.081   .     S
C415   C935    1.406   1_554 S
C417   H433    1.083   .     S
C418   H434    1.076   .     S
C418   C925    1.394   1_554 S
C418   C932    1.417   1_554 S
C419   C420    1.420   .     A
C419   C931    1.417   .     S
C419   C934    1.426   .     S
C420   C424    1.408   .     A
C421   C932    1.426   1_554 S
C421   C935    1.428   1_554 S
C422   C423    1.402   .     A
C422   C934    1.428   .     S
C422   C928    1.406   .     S
C423   C424    1.385   .     A
C424   H435    1.079   .     S
H428   C464    1.086   .     S
H430   C67     1.086   1_565 S
O436   Zn453   1.959   .     S
O436   Zn456   1.933   .     S
O436   Zn454   1.937   .     S
O436   Zn455   1.943   .     S
O437   Zn454   1.938   .     S
O438   Zn456   1.944   .     S
O439   Zn455   1.935   .     S
O440   Zn453   1.931   .     S
O441   S452    1.503   .     D
O442   S452    1.503   .     D
O443   H85     0.991   1_565 S
O443   S965    1.682   .     S
O444   Zn453   1.926   .     S
O445   Zn456   1.934   .     S
O446   Zn454   1.928   .     S
O447   Zn455   1.934   .     S
O448   Zn456   1.930   .     S
O449   Zn453   1.926   .     S
O450   Zn454   1.938   .     S
O451   Zn455   1.929   .     S
S452   O956    1.682   1_554 S
S452   C925    1.762   1_554 S
Br457  C480    1.925   .     S
C458   O505    1.268   .     A
C458   O503    1.268   .     A
C458   C464    1.437   .     S
C459   C473    1.390   .     A
C459   H489    1.077   .     S
C459   C478    1.411   .     A
C460   C472    1.387   .     A
C460   H482    1.084   .     S
C460   C473    1.393   .     A
C461   C463    1.454   .     S
C461   O504    1.284   .     A
C461   O506    1.281   .     A
C462   C474    1.403   .     A
C462   C471    1.479   .     S
C462   C477    1.420   .     A
C463   C350    1.334   1_655 S
C463   H369    1.088   1_655 S
C465   C468    1.451   .     S
C465   C124    1.331   1_565 S
C465   H144    1.088   1_565 S
C466   C467    1.435   .     S
C467   O501    1.275   .     A
C467   O507    1.275   .     A
C468   O502    1.274   .     A
C468   O508    1.273   .     A
C469   C474    1.391   .     A
C469   C988    1.394   .     S
C469   S1022   1.762   .     S
C470   C473    1.449   .     S
C470   O496    1.277   .     A
C470   O494    1.269   .     A
C471   O495    1.284   .     A
C471   O497    1.283   .     A
C472   H488    1.081   .     S
C472   C992    1.406   1_554 S
C474   H490    1.083   .     S
C475   H491    1.076   .     S
C475   C982    1.394   1_554 S
C475   C989    1.417   1_554 S
C476   C477    1.420   .     A
C476   C988    1.417   .     S
C476   C991    1.426   .     S
C477   C481    1.408   .     A
C478   C989    1.426   1_554 S
C478   C992    1.428   1_554 S
C479   C480    1.402   .     A
C479   C991    1.428   .     S
C479   C985    1.406   .     S
C480   C481    1.385   .     A
C481   H492    1.079   .     S
H485   C350    1.086   1_655 S
H487   C124    1.086   1_565 S
O493   Zn510   1.959   .     S
O493   Zn513   1.933   .     S
O493   Zn511   1.937   .     S
O493   Zn512   1.943   .     S
O494   Zn511   1.938   .     S
O495   Zn513   1.944   .     S
O496   Zn512   1.935   .     S
O497   Zn510   1.931   .     S
O498   S509    1.503   .     D
O499   S509    1.503   .     D
O500   H142    0.991   1_565 S
O500   S1022   1.682   .     S
O501   Zn510   1.926   .     S
O502   Zn513   1.934   .     S
O503   Zn511   1.928   .     S
O504   Zn512   1.934   .     S
O505   Zn513   1.930   .     S
O506   Zn510   1.926   .     S
O507   Zn511   1.938   .     S
O508   Zn512   1.929   .     S
S509   O1013   1.682   1_554 S
S509   C982    1.762   1_554 S
Br514  C537    1.925   .     S
C515   O562    1.268   .     A
C515   O560    1.268   .     A
C515   C521    1.437   .     S
C516   C530    1.390   .     A
C516   H546    1.077   .     S
C516   C535    1.411   .     A
C517   C529    1.387   .     A
C517   H539    1.084   .     S
C517   C530    1.393   .     A
C518   C520    1.454   .     S
C518   O561    1.284   .     A
C518   O563    1.281   .     A
C519   C531    1.403   .     A
C519   C528    1.479   .     S
C519   C534    1.420   .     A
C520   C578    1.334   .     S
C520   H597    1.088   .     S
C521   C634    1.334   1_455 S
C521   H656    1.086   1_455 S
C522   C525    1.451   .     S
C522   C694    1.331   .     S
C522   H714    1.088   .     S
C523   C524    1.435   .     S
C523   C864    1.331   1_545 S
C523   H886    1.086   1_545 S
C524   O558    1.275   .     A
C524   O564    1.275   .     A
C525   O559    1.274   .     A
C525   O565    1.273   .     A
C526   C531    1.391   .     A
C526   C19     1.394   1_556 S
C526   S53     1.762   1_556 S
C527   C530    1.449   .     S
C527   O553    1.277   .     A
C527   O551    1.269   .     A
C528   O552    1.284   .     A
C528   O554    1.283   .     A
C529   H545    1.081   .     S
C531   H547    1.083   .     S
C532   H548    1.076   .     S
C533   C534    1.420   .     A
C533   C19     1.417   1_556 S
C533   C22     1.426   1_556 S
C534   C538    1.408   .     A
C536   C537    1.402   .     A
C536   C22     1.428   1_556 S
C536   C16     1.406   1_556 S
C537   C538    1.385   .     A
C538   H549    1.079   .     S
H540   C634    1.088   1_455 S
H541   O899    0.991   1_545 S
H542   C578    1.086   .     S
H543   C864    1.088   1_545 S
H544   C694    1.086   .     S
O550   Zn567   1.959   .     S
O550   Zn570   1.933   .     S
O550   Zn568   1.937   .     S
O550   Zn569   1.943   .     S
O551   Zn568   1.938   .     S
O552   Zn570   1.944   .     S
O553   Zn569   1.935   .     S
O554   Zn567   1.931   .     S
O555   S566    1.503   .     D
O556   S566    1.503   .     D
O557   H712    0.991   .     S
O557   S53     1.682   1_556 S
O558   Zn567   1.926   .     S
O559   Zn570   1.934   .     S
O560   Zn568   1.928   .     S
O561   Zn569   1.934   .     S
O562   Zn570   1.930   .     S
O563   Zn567   1.926   .     S
O564   Zn568   1.938   .     S
O565   Zn569   1.929   .     S
Br571  C594    1.925   .     S
C572   O619    1.268   .     A
C572   O617    1.268   .     A
C572   C578    1.437   .     S
C573   C587    1.390   .     A
C573   H603    1.077   .     S
C573   C592    1.411   .     A
C574   C586    1.387   .     A
C574   H596    1.084   .     S
C574   C587    1.393   .     A
C575   C577    1.454   .     S
C575   O618    1.284   .     A
C575   O620    1.281   .     A
C576   C588    1.403   .     A
C576   C585    1.479   .     S
C576   C591    1.420   .     A
C577   C635    1.334   .     S
C577   H654    1.088   .     S
C579   C582    1.451   .     S
C579   C751    1.331   .     S
C579   H771    1.088   .     S
C580   C581    1.435   .     S
C580   C921    1.331   1_545 S
C580   H943    1.086   1_545 S
C581   O615    1.275   .     A
C581   O621    1.275   .     A
C582   O616    1.274   .     A
C582   O622    1.273   .     A
C583   C588    1.391   .     A
C583   C76     1.394   1_556 S
C583   S110    1.762   1_556 S
C584   C587    1.449   .     S
C584   O610    1.277   .     A
C584   O608    1.269   .     A
C585   O609    1.284   .     A
C585   O611    1.283   .     A
C586   H602    1.081   .     S
C588   H604    1.083   .     S
C589   H605    1.076   .     S
C590   C591    1.420   .     A
C590   C76     1.417   1_556 S
C590   C79     1.426   1_556 S
C591   C595    1.408   .     A
C593   C594    1.402   .     A
C593   C79     1.428   1_556 S
C593   C73     1.406   1_556 S
C594   C595    1.385   .     A
C595   H606    1.079   .     S
H598   O956    0.991   1_545 S
H599   C635    1.086   .     S
H600   C921    1.088   1_545 S
H601   C751    1.086   .     S
O607   Zn624   1.959   .     S
O607   Zn627   1.933   .     S
O607   Zn625   1.937   .     S
O607   Zn626   1.943   .     S
O608   Zn625   1.938   .     S
O609   Zn627   1.944   .     S
O610   Zn626   1.935   .     S
O611   Zn624   1.931   .     S
O612   S623    1.503   .     D
O613   S623    1.503   .     D
O614   H769    0.991   .     S
O614   S110    1.682   1_556 S
O615   Zn624   1.926   .     S
O616   Zn627   1.934   .     S
O617   Zn625   1.928   .     S
O618   Zn626   1.934   .     S
O619   Zn627   1.930   .     S
O620   Zn624   1.926   .     S
O621   Zn625   1.938   .     S
O622   Zn626   1.929   .     S
Br628  C651    1.925   .     S
C629   O676    1.268   .     A
C629   O674    1.268   .     A
C629   C635    1.437   .     S
C630   C644    1.390   .     A
C630   H660    1.077   .     S
C630   C649    1.411   .     A
C631   C643    1.387   .     A
C631   H653    1.084   .     S
C631   C644    1.393   .     A
C632   C634    1.454   .     S
C632   O675    1.284   .     A
C632   O677    1.281   .     A
C633   C645    1.403   .     A
C633   C642    1.479   .     S
C633   C648    1.420   .     A
C634   C521    1.334   1_655 S
C634   H540    1.088   1_655 S
C636   C639    1.451   .     S
C636   C808    1.331   .     S
C636   H828    1.088   .     S
C637   C638    1.435   .     S
C637   C978    1.331   1_545 S
C637   H1000   1.086   1_545 S
C638   O672    1.275   .     A
C638   O678    1.275   .     A
C639   O673    1.274   .     A
C639   O679    1.273   .     A
C640   C645    1.391   .     A
C640   C133    1.394   1_556 S
C640   S167    1.762   1_556 S
C641   C644    1.449   .     S
C641   O667    1.277   .     A
C641   O665    1.269   .     A
C642   O666    1.284   .     A
C642   O668    1.283   .     A
C643   H659    1.081   .     S
C645   H661    1.083   .     S
C646   H662    1.076   .     S
C647   C648    1.420   .     A
C647   C133    1.417   1_556 S
C647   C136    1.426   1_556 S
C648   C652    1.408   .     A
C650   C651    1.402   .     A
C650   C136    1.428   1_556 S
C650   C130    1.406   1_556 S
C651   C652    1.385   .     A
C652   H663    1.079   .     S
H655   O1013   0.991   1_545 S
H656   C521    1.086   1_655 S
H657   C978    1.088   1_545 S
H658   C808    1.086   .     S
O664   Zn681   1.959   .     S
O664   Zn684   1.933   .     S
O664   Zn682   1.937   .     S
O664   Zn683   1.943   .     S
O665   Zn682   1.938   .     S
O666   Zn684   1.944   .     S
O667   Zn683   1.935   .     S
O668   Zn681   1.931   .     S
O669   S680    1.503   .     D
O670   S680    1.503   .     D
O671   H826    0.991   .     S
O671   S167    1.682   1_556 S
O672   Zn681   1.926   .     S
O673   Zn684   1.934   .     S
O674   Zn682   1.928   .     S
O675   Zn683   1.934   .     S
O676   Zn684   1.930   .     S
O677   Zn681   1.926   .     S
O678   Zn682   1.938   .     S
O679   Zn683   1.929   .     S
Br685  C708    1.925   .     S
C686   O733    1.268   .     A
C686   O731    1.268   .     A
C686   C692    1.437   .     S
C687   C701    1.390   .     A
C687   H717    1.077   .     S
C687   C706    1.411   .     A
C688   C700    1.387   .     A
C688   H710    1.084   .     S
C688   C701    1.393   .     A
C689   C691    1.454   .     S
C689   O732    1.284   .     A
C689   O734    1.281   .     A
C690   C702    1.403   .     A
C690   C699    1.479   .     S
C690   C705    1.420   .     A
C691   C749    1.334   .     S
C691   H768    1.088   .     S
C692   C805    1.334   1_455 S
C692   H827    1.086   1_455 S
C693   C696    1.451   .     S
C693   C865    1.331   .     S
C693   H885    1.088   .     S
C694   C695    1.435   .     S
C695   O729    1.275   .     A
C695   O735    1.275   .     A
C696   O730    1.274   .     A
C696   O736    1.273   .     A
C697   C702    1.391   .     A
C697   C190    1.394   1_556 S
C697   S224    1.762   1_556 S
C698   C701    1.449   .     S
C698   O724    1.277   .     A
C698   O722    1.269   .     A
C699   O723    1.284   .     A
C699   O725    1.283   .     A
C700   H716    1.081   .     S
C702   H718    1.083   .     S
C703   H719    1.076   .     S
C704   C705    1.420   .     A
C704   C190    1.417   1_556 S
C704   C193    1.426   1_556 S
C705   C709    1.408   .     A
C707   C708    1.402   .     A
C707   C193    1.428   1_556 S
C707   C187    1.406   1_556 S
C708   C709    1.385   .     A
C709   H720    1.079   .     S
H711   C805    1.088   1_455 S
H713   C749    1.086   .     S
H715   C865    1.086   .     S
O721   Zn738   1.959   .     S
O721   Zn741   1.933   .     S
O721   Zn739   1.937   .     S
O721   Zn740   1.943   .     S
O722   Zn739   1.938   .     S
O723   Zn741   1.944   .     S
O724   Zn740   1.935   .     S
O725   Zn738   1.931   .     S
O726   S737    1.503   .     D
O727   S737    1.503   .     D
O728   H883    0.991   .     S
O728   S224    1.682   1_556 S
O729   Zn738   1.926   .     S
O730   Zn741   1.934   .     S
O731   Zn739   1.928   .     S
O732   Zn740   1.934   .     S
O733   Zn741   1.930   .     S
O734   Zn738   1.926   .     S
O735   Zn739   1.938   .     S
O736   Zn740   1.929   .     S
Br742  C765    1.925   .     S
C743   O790    1.268   .     A
C743   O788    1.268   .     A
C743   C749    1.437   .     S
C744   C758    1.390   .     A
C744   H774    1.077   .     S
C744   C763    1.411   .     A
C745   C757    1.387   .     A
C745   H767    1.084   .     S
C745   C758    1.393   .     A
C746   C748    1.454   .     S
C746   O789    1.284   .     A
C746   O791    1.281   .     A
C747   C759    1.403   .     A
C747   C756    1.479   .     S
C747   C762    1.420   .     A
C748   C806    1.334   .     S
C748   H825    1.088   .     S
C750   C753    1.451   .     S
C750   C922    1.331   .     S
C750   H942    1.088   .     S
C751   C752    1.435   .     S
C752   O786    1.275   .     A
C752   O792    1.275   .     A
C753   O787    1.274   .     A
C753   O793    1.273   .     A
C754   C759    1.391   .     A
C754   C247    1.394   1_556 S
C754   S281    1.762   1_556 S
C755   C758    1.449   .     S
C755   O781    1.277   .     A
C755   O779    1.269   .     A
C756   O780    1.284   .     A
C756   O782    1.283   .     A
C757   H773    1.081   .     S
C759   H775    1.083   .     S
C760   H776    1.076   .     S
C761   C762    1.420   .     A
C761   C247    1.417   1_556 S
C761   C250    1.426   1_556 S
C762   C766    1.408   .     A
C764   C765    1.402   .     A
C764   C250    1.428   1_556 S
C764   C244    1.406   1_556 S
C765   C766    1.385   .     A
C766   H777    1.079   .     S
H770   C806    1.086   .     S
H772   C922    1.086   .     S
O778   Zn795   1.959   .     S
O778   Zn798   1.933   .     S
O778   Zn796   1.937   .     S
O778   Zn797   1.943   .     S
O779   Zn796   1.938   .     S
O780   Zn798   1.944   .     S
O781   Zn797   1.935   .     S
O782   Zn795   1.931   .     S
O783   S794    1.503   .     D
O784   S794    1.503   .     D
O785   H940    0.991   .     S
O785   S281    1.682   1_556 S
O786   Zn795   1.926   .     S
O787   Zn798   1.934   .     S
O788   Zn796   1.928   .     S
O789   Zn797   1.934   .     S
O790   Zn798   1.930   .     S
O791   Zn795   1.926   .     S
O792   Zn796   1.938   .     S
O793   Zn797   1.929   .     S
Br799  C822    1.925   .     S
C800   O847    1.268   .     A
C800   O845    1.268   .     A
C800   C806    1.437   .     S
C801   C815    1.390   .     A
C801   H831    1.077   .     S
C801   C820    1.411   .     A
C802   C814    1.387   .     A
C802   H824    1.084   .     S
C802   C815    1.393   .     A
C803   C805    1.454   .     S
C803   O846    1.284   .     A
C803   O848    1.281   .     A
C804   C816    1.403   .     A
C804   C813    1.479   .     S
C804   C819    1.420   .     A
C805   C692    1.334   1_655 S
C805   H711    1.088   1_655 S
C807   C810    1.451   .     S
C807   C979    1.331   .     S
C807   H999    1.088   .     S
C808   C809    1.435   .     S
C809   O843    1.275   .     A
C809   O849    1.275   .     A
C810   O844    1.274   .     A
C810   O850    1.273   .     A
C811   C816    1.391   .     A
C811   C304    1.394   1_556 S
C811   S338    1.762   1_556 S
C812   C815    1.449   .     S
C812   O838    1.277   .     A
C812   O836    1.269   .     A
C813   O837    1.284   .     A
C813   O839    1.283   .     A
C814   H830    1.081   .     S
C816   H832    1.083   .     S
C817   H833    1.076   .     S
C818   C819    1.420   .     A
C818   C304    1.417   1_556 S
C818   C307    1.426   1_556 S
C819   C823    1.408   .     A
C821   C822    1.402   .     A
C821   C307    1.428   1_556 S
C821   C301    1.406   1_556 S
C822   C823    1.385   .     A
C823   H834    1.079   .     S
H827   C692    1.086   1_655 S
H829   C979    1.086   .     S
O835   Zn852   1.959   .     S
O835   Zn855   1.933   .     S
O835   Zn853   1.937   .     S
O835   Zn854   1.943   .     S
O836   Zn853   1.938   .     S
O837   Zn855   1.944   .     S
O838   Zn854   1.935   .     S
O839   Zn852   1.931   .     S
O840   S851    1.503   .     D
O841   S851    1.503   .     D
O842   H997    0.991   .     S
O842   S338    1.682   1_556 S
O843   Zn852   1.926   .     S
O844   Zn855   1.934   .     S
O845   Zn853   1.928   .     S
O846   Zn854   1.934   .     S
O847   Zn855   1.930   .     S
O848   Zn852   1.926   .     S
O849   Zn853   1.938   .     S
O850   Zn854   1.929   .     S
Br856  C879    1.925   .     S
C857   O904    1.268   .     A
C857   O902    1.268   .     A
C857   C863    1.437   .     S
C858   C872    1.390   .     A
C858   H888    1.077   .     S
C858   C877    1.411   .     A
C859   C871    1.387   .     A
C859   H881    1.084   .     S
C859   C872    1.393   .     A
C860   C862    1.454   .     S
C860   O903    1.284   .     A
C860   O905    1.281   .     A
C861   C873    1.403   .     A
C861   C870    1.479   .     S
C861   C876    1.420   .     A
C862   C920    1.334   .     S
C862   H939    1.088   .     S
C863   C976    1.334   1_455 S
C863   H998    1.086   1_455 S
C864   C867    1.451   .     S
C864   C523    1.331   1_565 S
C864   H543    1.088   1_565 S
C865   C866    1.435   .     S
C866   O900    1.275   .     A
C866   O906    1.275   .     A
C867   O901    1.274   .     A
C867   O907    1.273   .     A
C868   C873    1.391   .     A
C868   C361    1.394   1_556 S
C868   S395    1.762   1_556 S
C869   C872    1.449   .     S
C869   O895    1.277   .     A
C869   O893    1.269   .     A
C870   O894    1.284   .     A
C870   O896    1.283   .     A
C871   H887    1.081   .     S
C873   H889    1.083   .     S
C874   H890    1.076   .     S
C875   C876    1.420   .     A
C875   C361    1.417   1_556 S
C875   C364    1.426   1_556 S
C876   C880    1.408   .     A
C878   C879    1.402   .     A
C878   C364    1.428   1_556 S
C878   C358    1.406   1_556 S
C879   C880    1.385   .     A
C880   H891    1.079   .     S
H882   C976    1.088   1_455 S
H884   C920    1.086   .     S
H886   C523    1.086   1_565 S
O892   Zn909   1.959   .     S
O892   Zn912   1.933   .     S
O892   Zn910   1.937   .     S
O892   Zn911   1.943   .     S
O893   Zn910   1.938   .     S
O894   Zn912   1.944   .     S
O895   Zn911   1.935   .     S
O896   Zn909   1.931   .     S
O897   S908    1.503   .     D
O898   S908    1.503   .     D
O899   H541    0.991   1_565 S
O899   S395    1.682   1_556 S
O900   Zn909   1.926   .     S
O901   Zn912   1.934   .     S
O902   Zn910   1.928   .     S
O903   Zn911   1.934   .     S
O904   Zn912   1.930   .     S
O905   Zn909   1.926   .     S
O906   Zn910   1.938   .     S
O907   Zn911   1.929   .     S
Br913  C936    1.925   .     S
C914   O961    1.268   .     A
C914   O959    1.268   .     A
C914   C920    1.437   .     S
C915   C929    1.390   .     A
C915   H945    1.077   .     S
C915   C934    1.411   .     A
C916   C928    1.387   .     A
C916   H938    1.084   .     S
C916   C929    1.393   .     A
C917   C919    1.454   .     S
C917   O960    1.284   .     A
C917   O962    1.281   .     A
C918   C930    1.403   .     A
C918   C927    1.479   .     S
C918   C933    1.420   .     A
C919   C977    1.334   .     S
C919   H996    1.088   .     S
C921   C924    1.451   .     S
C921   C580    1.331   1_565 S
C921   H600    1.088   1_565 S
C922   C923    1.435   .     S
C923   O957    1.275   .     A
C923   O963    1.275   .     A
C924   O958    1.274   .     A
C924   O964    1.273   .     A
C925   C930    1.391   .     A
C925   C418    1.394   1_556 S
C925   S452    1.762   1_556 S
C926   C929    1.449   .     S
C926   O952    1.277   .     A
C926   O950    1.269   .     A
C927   O951    1.284   .     A
C927   O953    1.283   .     A
C928   H944    1.081   .     S
C930   H946    1.083   .     S
C931   H947    1.076   .     S
C932   C933    1.420   .     A
C932   C418    1.417   1_556 S
C932   C421    1.426   1_556 S
C933   C937    1.408   .     A
C935   C936    1.402   .     A
C935   C421    1.428   1_556 S
C935   C415    1.406   1_556 S
C936   C937    1.385   .     A
C937   H948    1.079   .     S
H941   C977    1.086   .     S
H943   C580    1.086   1_565 S
O949   Zn966   1.959   .     S
O949   Zn969   1.933   .     S
O949   Zn967   1.937   .     S
O949   Zn968   1.943   .     S
O950   Zn967   1.938   .     S
O951   Zn969   1.944   .     S
O952   Zn968   1.935   .     S
O953   Zn966   1.931   .     S
O954   S965    1.503   .     D
O955   S965    1.503   .     D
O956   H598    0.991   1_565 S
O956   S452    1.682   1_556 S
O957   Zn966   1.926   .     S
O958   Zn969   1.934   .     S
O959   Zn967   1.928   .     S
O960   Zn968   1.934   .     S
O961   Zn969   1.930   .     S
O962   Zn966   1.926   .     S
O963   Zn967   1.938   .     S
O964   Zn968   1.929   .     S
Br970  C993    1.925   .     S
C971   O1018   1.268   .     A
C971   O1016   1.268   .     A
C971   C977    1.437   .     S
C972   C986    1.390   .     A
C972   H1002   1.077   .     S
C972   C991    1.411   .     A
C973   C985    1.387   .     A
C973   H995    1.084   .     S
C973   C986    1.393   .     A
C974   C976    1.454   .     S
C974   O1017   1.284   .     A
C974   O1019   1.281   .     A
C975   C987    1.403   .     A
C975   C984    1.479   .     S
C975   C990    1.420   .     A
C976   C863    1.334   1_655 S
C976   H882    1.088   1_655 S
C978   C981    1.451   .     S
C978   C637    1.331   1_565 S
C978   H657    1.088   1_565 S
C979   C980    1.435   .     S
C980   O1014   1.275   .     A
C980   O1020   1.275   .     A
C981   O1015   1.274   .     A
C981   O1021   1.273   .     A
C982   C987    1.391   .     A
C982   C475    1.394   1_556 S
C982   S509    1.762   1_556 S
C983   C986    1.449   .     S
C983   O1009   1.277   .     A
C983   O1007   1.269   .     A
C984   O1008   1.284   .     A
C984   O1010   1.283   .     A
C985   H1001   1.081   .     S
C987   H1003   1.083   .     S
C988   H1004   1.076   .     S
C989   C990    1.420   .     A
C989   C475    1.417   1_556 S
C989   C478    1.426   1_556 S
C990   C994    1.408   .     A
C992   C993    1.402   .     A
C992   C478    1.428   1_556 S
C992   C472    1.406   1_556 S
C993   C994    1.385   .     A
C994   H1005   1.079   .     S
H998   C863    1.086   1_655 S
H1000  C637    1.086   1_565 S
O1006  Zn1023  1.959   .     S
O1006  Zn1026  1.933   .     S
O1006  Zn1024  1.937   .     S
O1006  Zn1025  1.943   .     S
O1007  Zn1024  1.938   .     S
O1008  Zn1026  1.944   .     S
O1009  Zn1025  1.935   .     S
O1010  Zn1023  1.931   .     S
O1011  S1022   1.503   .     D
O1012  S1022   1.503   .     D
O1013  H655    0.991   1_565 S
O1013  S509    1.682   1_556 S
O1014  Zn1023  1.926   .     S
O1015  Zn1026  1.934   .     S
O1016  Zn1024  1.928   .     S
O1017  Zn1025  1.934   .     S
O1018  Zn1026  1.930   .     S
O1019  Zn1023  1.926   .     S
O1020  Zn1024  1.938   .     S
O1021  Zn1025  1.929   .     S
