data_str_m3_o1_o2_pcu_sym.141
_audit_creation_date              2020-01-03
_audit_creation_method            'Materials Studio'
_symmetry_space_group_name_H-M    'P1'
_symmetry_Int_Tables_number       1
_symmetry_cell_setting            triclinic
loop_
_symmetry_equiv_pos_as_xyz
  x,y,z
_cell_length_a                    31.8653
_cell_length_b                    29.5159
_cell_length_c                    29.8066
_cell_angle_alpha                 87.7873
_cell_angle_beta                  90.3759
_cell_angle_gamma                 90.0170
loop_
_atom_site_label
_atom_site_type_symbol
_atom_site_fract_x
_atom_site_fract_y
_atom_site_fract_z
_atom_site_U_iso_or_equiv
_atom_site_adp_type
_atom_site_occupancy
C1     C     0.08678   0.16667   0.24993   0.00000  Uiso   1.00
C2     C     0.24655   0.16667   0.25007   0.00000  Uiso   1.00
C3     C     0.16733   0.16769   0.16364   0.00000  Uiso   1.00
C4     C     0.16600   0.16564   0.33636   0.00000  Uiso   1.00
C5     C     0.19256   0.02291   0.27827   0.00000  Uiso   1.00
C6     C     0.14077   0.31042   0.22173   0.00000  Uiso   1.00
C7     C     0.14076   0.02506   0.22174   0.00000  Uiso   1.00
C8     C     0.19257   0.30827   0.27826   0.00000  Uiso   1.00
C9     C     0.02194   0.14887   0.28799   0.00000  Uiso   1.00
C10    C     0.31140   0.18446   0.21201   0.00000  Uiso   1.00
C11    C     0.31193   0.14884   0.28800   0.00000  Uiso   1.00
C12    C     0.02140   0.18449   0.21200   0.00000  Uiso   1.00
C13    C     0.16100   0.21100   0.04418   0.00000  Uiso   1.00
C14    C     0.17233   0.12233   0.45582   0.00000  Uiso   1.00
C15    C     0.13175   0.19062   0.45247   0.00000  Uiso   1.00
C16    C     0.20158   0.14271   0.04753   0.00000  Uiso   1.00
C17    C     0.15617   0.20899   0.09075   0.00000  Uiso   1.00
C18    C     0.17716   0.12434   0.40925   0.00000  Uiso   1.00
C19    C     0.13527   0.19371   0.40564   0.00000  Uiso   1.00
C20    C     0.19807   0.13962   0.09436   0.00000  Uiso   1.00
C21    C     0.17216   0.17091   0.11533   0.00000  Uiso   1.00
C22    C     0.16118   0.16243   0.38467   0.00000  Uiso   1.00
C23    C     0.17399   0.17174   0.02304   0.00000  Uiso   1.00
C24    C     0.15934   0.16159   0.47696   0.00000  Uiso   1.00
C25    C     0.29066   0.16666   0.25003   0.00000  Uiso   1.00
C26    C     0.04267   0.16667   0.24997   0.00000  Uiso   1.00
H27    H     0.21327   0.04024   0.30085   0.00000  Uiso   1.00
H28    H     0.12007   0.29310   0.19915   0.00000  Uiso   1.00
H29    H     0.12004   0.04411   0.19916   0.00000  Uiso   1.00
H30    H     0.21329   0.28923   0.30084   0.00000  Uiso   1.00
N31    N     0.16667   0.28573   0.25000   0.00000  Uiso   1.00
N32    N     0.16667   0.04760   0.25000   0.00000  Uiso   1.00
O33    O     0.10559   0.20487   0.25000   0.00000  Uiso   1.00
O34    O     0.22774   0.12846   0.25001   0.00000  Uiso   1.00
O35    O     0.22774   0.20487   0.25001   0.00000  Uiso   1.00
O36    O     0.10559   0.12846   0.25000   0.00000  Uiso   1.00
O37    O     0.16666   0.20489   0.18453   0.00000  Uiso   1.00
O38    O     0.16667   0.12845   0.31547   0.00000  Uiso   1.00
O39    O     0.16667   0.20489   0.31547   0.00000  Uiso   1.00
O40    O     0.16666   0.12845   0.18453   0.00000  Uiso   1.00
Zn41   Zn    0.16667   0.21771   0.25000   0.00000  Uiso   1.00
Zn42   Zn    0.16667   0.11563   0.25000   0.00000  Uiso   1.00
Cl43   Cl    0.16271   0.26462   0.01529   0.00000  Uiso   1.00
Cl44   Cl    0.17062   0.06871   0.48471   0.00000  Uiso   1.00
Cl45   Cl    0.08597   0.21156   0.47805   0.00000  Uiso   1.00
Cl46   Cl    0.24736   0.12177   0.02195   0.00000  Uiso   1.00
O47    O     0.13657   0.24343   0.11283   0.00000  Uiso   1.00
H48    H     0.12122   0.26332   0.09082   0.00000  Uiso   1.00
O49    O     0.19676   0.08991   0.38717   0.00000  Uiso   1.00
H50    H     0.21211   0.07001   0.40918   0.00000  Uiso   1.00
O51    O     0.11235   0.22474   0.37959   0.00000  Uiso   1.00
H52    H     0.10124   0.24847   0.39886   0.00000  Uiso   1.00
O53    O     0.22098   0.10859   0.12041   0.00000  Uiso   1.00
H54    H     0.23209   0.08486   0.10114   0.00000  Uiso   1.00
Cl55   Cl    0.05013   0.12808   0.33592   0.00000  Uiso   1.00
Cl56   Cl    0.28320   0.20525   0.16408   0.00000  Uiso   1.00
Cl57   Cl    0.28442   0.12789   0.33591   0.00000  Uiso   1.00
Cl58   Cl    0.04891   0.20544   0.16409   0.00000  Uiso   1.00
C59    C     0.42011   0.16667   0.24993   0.00000  Uiso   1.00
C60    C     0.57989   0.16667   0.25007   0.00000  Uiso   1.00
C61    C     0.50066   0.16769   0.16364   0.00000  Uiso   1.00
C62    C     0.49933   0.16564   0.33636   0.00000  Uiso   1.00
C63    C     0.52590   0.02291   0.27827   0.00000  Uiso   1.00
C64    C     0.47410   0.31042   0.22173   0.00000  Uiso   1.00
C65    C     0.47409   0.02506   0.22174   0.00000  Uiso   1.00
C66    C     0.52591   0.30827   0.27826   0.00000  Uiso   1.00
C67    C     0.35527   0.14887   0.28799   0.00000  Uiso   1.00
C68    C     0.64473   0.18446   0.21201   0.00000  Uiso   1.00
C69    C     0.64526   0.14884   0.28800   0.00000  Uiso   1.00
C70    C     0.35474   0.18449   0.21200   0.00000  Uiso   1.00
C71    C     0.49433   0.21100   0.04418   0.00000  Uiso   1.00
C72    C     0.50566   0.12233   0.45582   0.00000  Uiso   1.00
C73    C     0.46508   0.19062   0.45247   0.00000  Uiso   1.00
C74    C     0.53491   0.14271   0.04753   0.00000  Uiso   1.00
C75    C     0.48950   0.20899   0.09075   0.00000  Uiso   1.00
C76    C     0.51050   0.12434   0.40925   0.00000  Uiso   1.00
C77    C     0.46860   0.19371   0.40564   0.00000  Uiso   1.00
C78    C     0.53140   0.13962   0.09436   0.00000  Uiso   1.00
C79    C     0.50549   0.17091   0.11533   0.00000  Uiso   1.00
C80    C     0.49451   0.16243   0.38467   0.00000  Uiso   1.00
C81    C     0.50733   0.17174   0.02304   0.00000  Uiso   1.00
C82    C     0.49267   0.16159   0.47696   0.00000  Uiso   1.00
C83    C     0.62399   0.16666   0.25003   0.00000  Uiso   1.00
C84    C     0.37601   0.16667   0.24997   0.00000  Uiso   1.00
H85    H     0.54660   0.04024   0.30085   0.00000  Uiso   1.00
H86    H     0.45340   0.29310   0.19915   0.00000  Uiso   1.00
H87    H     0.45337   0.04411   0.19916   0.00000  Uiso   1.00
H88    H     0.54663   0.28923   0.30084   0.00000  Uiso   1.00
N89    N     0.50000   0.28573   0.25000   0.00000  Uiso   1.00
N90    N     0.50000   0.04760   0.25000   0.00000  Uiso   1.00
O91    O     0.43892   0.20487   0.25000   0.00000  Uiso   1.00
O92    O     0.56108   0.12846   0.25001   0.00000  Uiso   1.00
O93    O     0.56108   0.20487   0.25001   0.00000  Uiso   1.00
O94    O     0.43892   0.12846   0.25000   0.00000  Uiso   1.00
O95    O     0.50000   0.20489   0.18453   0.00000  Uiso   1.00
O96    O     0.50000   0.12845   0.31547   0.00000  Uiso   1.00
O97    O     0.50000   0.20489   0.31547   0.00000  Uiso   1.00
O98    O     0.50000   0.12845   0.18453   0.00000  Uiso   1.00
Zn99   Zn    0.50000   0.21771   0.25000   0.00000  Uiso   1.00
Zn100  Zn    0.50000   0.11563   0.25000   0.00000  Uiso   1.00
Cl101  Cl    0.49604   0.26462   0.01529   0.00000  Uiso   1.00
Cl102  Cl    0.50396   0.06871   0.48471   0.00000  Uiso   1.00
Cl103  Cl    0.41931   0.21156   0.47805   0.00000  Uiso   1.00
Cl104  Cl    0.58069   0.12177   0.02195   0.00000  Uiso   1.00
O105   O     0.46991   0.24343   0.11283   0.00000  Uiso   1.00
H106   H     0.45456   0.26332   0.09082   0.00000  Uiso   1.00
O107   O     0.53009   0.08991   0.38717   0.00000  Uiso   1.00
H108   H     0.54544   0.07001   0.40918   0.00000  Uiso   1.00
O109   O     0.44569   0.22474   0.37959   0.00000  Uiso   1.00
H110   H     0.43457   0.24847   0.39886   0.00000  Uiso   1.00
O111   O     0.55431   0.10859   0.12041   0.00000  Uiso   1.00
H112   H     0.56543   0.08486   0.10114   0.00000  Uiso   1.00
Cl113  Cl    0.38347   0.12808   0.33592   0.00000  Uiso   1.00
Cl114  Cl    0.61653   0.20525   0.16408   0.00000  Uiso   1.00
Cl115  Cl    0.61776   0.12789   0.33591   0.00000  Uiso   1.00
Cl116  Cl    0.38224   0.20544   0.16409   0.00000  Uiso   1.00
C117   C     0.75345   0.16667   0.24993   0.00000  Uiso   1.00
C118   C     0.91322   0.16667   0.25007   0.00000  Uiso   1.00
C119   C     0.83400   0.16769   0.16364   0.00000  Uiso   1.00
C120   C     0.83267   0.16564   0.33636   0.00000  Uiso   1.00
C121   C     0.85923   0.02291   0.27827   0.00000  Uiso   1.00
C122   C     0.80744   0.31042   0.22173   0.00000  Uiso   1.00
C123   C     0.80743   0.02506   0.22174   0.00000  Uiso   1.00
C124   C     0.85924   0.30827   0.27826   0.00000  Uiso   1.00
C125   C     0.68860   0.14887   0.28799   0.00000  Uiso   1.00
C126   C     0.97806   0.18446   0.21201   0.00000  Uiso   1.00
C127   C     0.97860   0.14884   0.28800   0.00000  Uiso   1.00
C128   C     0.68807   0.18449   0.21200   0.00000  Uiso   1.00
C129   C     0.82767   0.21100   0.04418   0.00000  Uiso   1.00
C130   C     0.83900   0.12233   0.45582   0.00000  Uiso   1.00
C131   C     0.79842   0.19062   0.45247   0.00000  Uiso   1.00
C132   C     0.86825   0.14271   0.04753   0.00000  Uiso   1.00
C133   C     0.82284   0.20899   0.09075   0.00000  Uiso   1.00
C134   C     0.84383   0.12434   0.40925   0.00000  Uiso   1.00
C135   C     0.80193   0.19371   0.40564   0.00000  Uiso   1.00
C136   C     0.86473   0.13962   0.09436   0.00000  Uiso   1.00
C137   C     0.83882   0.17091   0.11533   0.00000  Uiso   1.00
C138   C     0.82784   0.16243   0.38467   0.00000  Uiso   1.00
C139   C     0.84066   0.17174   0.02304   0.00000  Uiso   1.00
C140   C     0.82601   0.16159   0.47696   0.00000  Uiso   1.00
C141   C     0.95733   0.16666   0.25003   0.00000  Uiso   1.00
C142   C     0.70934   0.16667   0.24997   0.00000  Uiso   1.00
H143   H     0.87993   0.04024   0.30085   0.00000  Uiso   1.00
H144   H     0.78673   0.29310   0.19915   0.00000  Uiso   1.00
H145   H     0.78671   0.04411   0.19916   0.00000  Uiso   1.00
H146   H     0.87996   0.28923   0.30084   0.00000  Uiso   1.00
N147   N     0.83333   0.28573   0.25000   0.00000  Uiso   1.00
N148   N     0.83333   0.04760   0.25000   0.00000  Uiso   1.00
O149   O     0.77226   0.20487   0.25000   0.00000  Uiso   1.00
O150   O     0.89441   0.12846   0.25001   0.00000  Uiso   1.00
O151   O     0.89441   0.20487   0.25001   0.00000  Uiso   1.00
O152   O     0.77226   0.12846   0.25000   0.00000  Uiso   1.00
O153   O     0.83333   0.20489   0.18453   0.00000  Uiso   1.00
O154   O     0.83334   0.12845   0.31547   0.00000  Uiso   1.00
O155   O     0.83334   0.20489   0.31547   0.00000  Uiso   1.00
O156   O     0.83333   0.12845   0.18453   0.00000  Uiso   1.00
Zn157  Zn    0.83333   0.21771   0.25000   0.00000  Uiso   1.00
Zn158  Zn    0.83333   0.11563   0.25000   0.00000  Uiso   1.00
Cl159  Cl    0.82937   0.26462   0.01529   0.00000  Uiso   1.00
Cl160  Cl    0.83729   0.06871   0.48471   0.00000  Uiso   1.00
Cl161  Cl    0.75264   0.21156   0.47805   0.00000  Uiso   1.00
Cl162  Cl    0.91403   0.12177   0.02195   0.00000  Uiso   1.00
O163   O     0.80324   0.24343   0.11283   0.00000  Uiso   1.00
H164   H     0.78789   0.26332   0.09082   0.00000  Uiso   1.00
O165   O     0.86343   0.08991   0.38717   0.00000  Uiso   1.00
H166   H     0.87878   0.07001   0.40918   0.00000  Uiso   1.00
O167   O     0.77902   0.22474   0.37959   0.00000  Uiso   1.00
H168   H     0.76791   0.24847   0.39886   0.00000  Uiso   1.00
O169   O     0.88765   0.10859   0.12041   0.00000  Uiso   1.00
H170   H     0.89876   0.08486   0.10114   0.00000  Uiso   1.00
Cl171  Cl    0.71680   0.12808   0.33592   0.00000  Uiso   1.00
Cl172  Cl    0.94987   0.20525   0.16408   0.00000  Uiso   1.00
Cl173  Cl    0.95109   0.12789   0.33591   0.00000  Uiso   1.00
Cl174  Cl    0.71558   0.20544   0.16409   0.00000  Uiso   1.00
C175   C     0.08678   0.50000   0.24993   0.00000  Uiso   1.00
C176   C     0.24655   0.50000   0.25007   0.00000  Uiso   1.00
C177   C     0.16733   0.50102   0.16364   0.00000  Uiso   1.00
C178   C     0.16600   0.49898   0.33636   0.00000  Uiso   1.00
C179   C     0.19256   0.35624   0.27827   0.00000  Uiso   1.00
C180   C     0.14077   0.64376   0.22173   0.00000  Uiso   1.00
C181   C     0.14076   0.35840   0.22174   0.00000  Uiso   1.00
C182   C     0.19257   0.64160   0.27826   0.00000  Uiso   1.00
C183   C     0.02194   0.48221   0.28799   0.00000  Uiso   1.00
C184   C     0.31140   0.51779   0.21201   0.00000  Uiso   1.00
C185   C     0.31193   0.48218   0.28800   0.00000  Uiso   1.00
C186   C     0.02140   0.51782   0.21200   0.00000  Uiso   1.00
C187   C     0.16100   0.54434   0.04418   0.00000  Uiso   1.00
C188   C     0.17233   0.45566   0.45582   0.00000  Uiso   1.00
C189   C     0.13175   0.52395   0.45247   0.00000  Uiso   1.00
C190   C     0.20158   0.47605   0.04753   0.00000  Uiso   1.00
C191   C     0.15617   0.54232   0.09075   0.00000  Uiso   1.00
C192   C     0.17716   0.45768   0.40925   0.00000  Uiso   1.00
C193   C     0.13527   0.52704   0.40564   0.00000  Uiso   1.00
C194   C     0.19807   0.47296   0.09436   0.00000  Uiso   1.00
C195   C     0.17216   0.50424   0.11533   0.00000  Uiso   1.00
C196   C     0.16118   0.49576   0.38467   0.00000  Uiso   1.00
C197   C     0.17399   0.50507   0.02304   0.00000  Uiso   1.00
C198   C     0.15934   0.49493   0.47696   0.00000  Uiso   1.00
C199   C     0.29066   0.49999   0.25003   0.00000  Uiso   1.00
C200   C     0.04267   0.50001   0.24997   0.00000  Uiso   1.00
H201   H     0.21327   0.37357   0.30085   0.00000  Uiso   1.00
H202   H     0.12007   0.62643   0.19915   0.00000  Uiso   1.00
H203   H     0.12004   0.37744   0.19916   0.00000  Uiso   1.00
H204   H     0.21329   0.62256   0.30084   0.00000  Uiso   1.00
N205   N     0.16667   0.61907   0.25000   0.00000  Uiso   1.00
N206   N     0.16667   0.38093   0.25000   0.00000  Uiso   1.00
O207   O     0.10559   0.53821   0.25000   0.00000  Uiso   1.00
O208   O     0.22774   0.46179   0.25001   0.00000  Uiso   1.00
O209   O     0.22774   0.53821   0.25001   0.00000  Uiso   1.00
O210   O     0.10559   0.46179   0.25000   0.00000  Uiso   1.00
O211   O     0.16666   0.53822   0.18453   0.00000  Uiso   1.00
O212   O     0.16667   0.46178   0.31547   0.00000  Uiso   1.00
O213   O     0.16667   0.53822   0.31547   0.00000  Uiso   1.00
O214   O     0.16666   0.46178   0.18453   0.00000  Uiso   1.00
Zn215  Zn    0.16667   0.55104   0.25000   0.00000  Uiso   1.00
Zn216  Zn    0.16667   0.44896   0.25000   0.00000  Uiso   1.00
Cl217  Cl    0.16271   0.59795   0.01529   0.00000  Uiso   1.00
Cl218  Cl    0.17062   0.40205   0.48471   0.00000  Uiso   1.00
Cl219  Cl    0.08597   0.54489   0.47805   0.00000  Uiso   1.00
Cl220  Cl    0.24736   0.45511   0.02195   0.00000  Uiso   1.00
O221   O     0.13657   0.57676   0.11283   0.00000  Uiso   1.00
H222   H     0.12122   0.59665   0.09082   0.00000  Uiso   1.00
O223   O     0.19676   0.42324   0.38717   0.00000  Uiso   1.00
H224   H     0.21211   0.40335   0.40918   0.00000  Uiso   1.00
O225   O     0.11235   0.55808   0.37959   0.00000  Uiso   1.00
H226   H     0.10124   0.58180   0.39886   0.00000  Uiso   1.00
O227   O     0.22098   0.44192   0.12041   0.00000  Uiso   1.00
H228   H     0.23209   0.41819   0.10114   0.00000  Uiso   1.00
Cl229  Cl    0.05013   0.46141   0.33592   0.00000  Uiso   1.00
Cl230  Cl    0.28320   0.53859   0.16408   0.00000  Uiso   1.00
Cl231  Cl    0.28442   0.46123   0.33591   0.00000  Uiso   1.00
Cl232  Cl    0.04891   0.53877   0.16409   0.00000  Uiso   1.00
C233   C     0.42011   0.50000   0.24993   0.00000  Uiso   1.00
C234   C     0.57989   0.50000   0.25007   0.00000  Uiso   1.00
C235   C     0.50066   0.50102   0.16364   0.00000  Uiso   1.00
C236   C     0.49933   0.49898   0.33636   0.00000  Uiso   1.00
C237   C     0.52590   0.35624   0.27827   0.00000  Uiso   1.00
C238   C     0.47410   0.64376   0.22173   0.00000  Uiso   1.00
C239   C     0.47409   0.35840   0.22174   0.00000  Uiso   1.00
C240   C     0.52591   0.64160   0.27826   0.00000  Uiso   1.00
C241   C     0.35527   0.48221   0.28799   0.00000  Uiso   1.00
C242   C     0.64473   0.51779   0.21201   0.00000  Uiso   1.00
C243   C     0.64526   0.48218   0.28800   0.00000  Uiso   1.00
C244   C     0.35474   0.51782   0.21200   0.00000  Uiso   1.00
C245   C     0.49433   0.54434   0.04418   0.00000  Uiso   1.00
C246   C     0.50566   0.45566   0.45582   0.00000  Uiso   1.00
C247   C     0.46508   0.52395   0.45247   0.00000  Uiso   1.00
C248   C     0.53491   0.47605   0.04753   0.00000  Uiso   1.00
C249   C     0.48950   0.54232   0.09075   0.00000  Uiso   1.00
C250   C     0.51050   0.45768   0.40925   0.00000  Uiso   1.00
C251   C     0.46860   0.52704   0.40564   0.00000  Uiso   1.00
C252   C     0.53140   0.47296   0.09436   0.00000  Uiso   1.00
C253   C     0.50549   0.50424   0.11533   0.00000  Uiso   1.00
C254   C     0.49451   0.49576   0.38467   0.00000  Uiso   1.00
C255   C     0.50733   0.50507   0.02304   0.00000  Uiso   1.00
C256   C     0.49267   0.49493   0.47696   0.00000  Uiso   1.00
C257   C     0.62399   0.49999   0.25003   0.00000  Uiso   1.00
C258   C     0.37601   0.50001   0.24997   0.00000  Uiso   1.00
H259   H     0.54660   0.37357   0.30085   0.00000  Uiso   1.00
H260   H     0.45340   0.62643   0.19915   0.00000  Uiso   1.00
H261   H     0.45337   0.37744   0.19916   0.00000  Uiso   1.00
H262   H     0.54663   0.62256   0.30084   0.00000  Uiso   1.00
N263   N     0.50000   0.61907   0.25000   0.00000  Uiso   1.00
N264   N     0.50000   0.38093   0.25000   0.00000  Uiso   1.00
O265   O     0.43892   0.53821   0.25000   0.00000  Uiso   1.00
O266   O     0.56108   0.46179   0.25001   0.00000  Uiso   1.00
O267   O     0.56108   0.53821   0.25001   0.00000  Uiso   1.00
O268   O     0.43892   0.46179   0.25000   0.00000  Uiso   1.00
O269   O     0.50000   0.53822   0.18453   0.00000  Uiso   1.00
O270   O     0.50000   0.46178   0.31547   0.00000  Uiso   1.00
O271   O     0.50000   0.53822   0.31547   0.00000  Uiso   1.00
O272   O     0.50000   0.46178   0.18453   0.00000  Uiso   1.00
Zn273  Zn    0.50000   0.55104   0.25000   0.00000  Uiso   1.00
Zn274  Zn    0.50000   0.44896   0.25000   0.00000  Uiso   1.00
Cl275  Cl    0.49604   0.59795   0.01529   0.00000  Uiso   1.00
Cl276  Cl    0.50396   0.40205   0.48471   0.00000  Uiso   1.00
Cl277  Cl    0.41931   0.54489   0.47805   0.00000  Uiso   1.00
Cl278  Cl    0.58069   0.45511   0.02195   0.00000  Uiso   1.00
O279   O     0.46991   0.57676   0.11283   0.00000  Uiso   1.00
H280   H     0.45456   0.59665   0.09082   0.00000  Uiso   1.00
O281   O     0.53009   0.42324   0.38717   0.00000  Uiso   1.00
H282   H     0.54544   0.40335   0.40918   0.00000  Uiso   1.00
O283   O     0.44569   0.55808   0.37959   0.00000  Uiso   1.00
H284   H     0.43457   0.58180   0.39886   0.00000  Uiso   1.00
O285   O     0.55431   0.44192   0.12041   0.00000  Uiso   1.00
H286   H     0.56543   0.41819   0.10114   0.00000  Uiso   1.00
Cl287  Cl    0.38347   0.46141   0.33592   0.00000  Uiso   1.00
Cl288  Cl    0.61653   0.53859   0.16408   0.00000  Uiso   1.00
Cl289  Cl    0.61776   0.46123   0.33591   0.00000  Uiso   1.00
Cl290  Cl    0.38224   0.53877   0.16409   0.00000  Uiso   1.00
C291   C     0.75345   0.50000   0.24993   0.00000  Uiso   1.00
C292   C     0.91322   0.50000   0.25007   0.00000  Uiso   1.00
C293   C     0.83400   0.50102   0.16364   0.00000  Uiso   1.00
C294   C     0.83267   0.49898   0.33636   0.00000  Uiso   1.00
C295   C     0.85923   0.35624   0.27827   0.00000  Uiso   1.00
C296   C     0.80744   0.64376   0.22173   0.00000  Uiso   1.00
C297   C     0.80743   0.35840   0.22174   0.00000  Uiso   1.00
C298   C     0.85924   0.64160   0.27826   0.00000  Uiso   1.00
C299   C     0.68860   0.48221   0.28799   0.00000  Uiso   1.00
C300   C     0.97806   0.51779   0.21201   0.00000  Uiso   1.00
C301   C     0.97860   0.48218   0.28800   0.00000  Uiso   1.00
C302   C     0.68807   0.51782   0.21200   0.00000  Uiso   1.00
C303   C     0.82767   0.54434   0.04418   0.00000  Uiso   1.00
C304   C     0.83900   0.45566   0.45582   0.00000  Uiso   1.00
C305   C     0.79842   0.52395   0.45247   0.00000  Uiso   1.00
C306   C     0.86825   0.47605   0.04753   0.00000  Uiso   1.00
C307   C     0.82284   0.54232   0.09075   0.00000  Uiso   1.00
C308   C     0.84383   0.45768   0.40925   0.00000  Uiso   1.00
C309   C     0.80193   0.52704   0.40564   0.00000  Uiso   1.00
C310   C     0.86473   0.47296   0.09436   0.00000  Uiso   1.00
C311   C     0.83882   0.50424   0.11533   0.00000  Uiso   1.00
C312   C     0.82784   0.49576   0.38467   0.00000  Uiso   1.00
C313   C     0.84066   0.50507   0.02304   0.00000  Uiso   1.00
C314   C     0.82601   0.49493   0.47696   0.00000  Uiso   1.00
C315   C     0.95733   0.49999   0.25003   0.00000  Uiso   1.00
C316   C     0.70934   0.50001   0.24997   0.00000  Uiso   1.00
H317   H     0.87993   0.37357   0.30085   0.00000  Uiso   1.00
H318   H     0.78673   0.62643   0.19915   0.00000  Uiso   1.00
H319   H     0.78671   0.37744   0.19916   0.00000  Uiso   1.00
H320   H     0.87996   0.62256   0.30084   0.00000  Uiso   1.00
N321   N     0.83333   0.61907   0.25000   0.00000  Uiso   1.00
N322   N     0.83333   0.38093   0.25000   0.00000  Uiso   1.00
O323   O     0.77226   0.53821   0.25000   0.00000  Uiso   1.00
O324   O     0.89441   0.46179   0.25001   0.00000  Uiso   1.00
O325   O     0.89441   0.53821   0.25001   0.00000  Uiso   1.00
O326   O     0.77226   0.46179   0.25000   0.00000  Uiso   1.00
O327   O     0.83333   0.53822   0.18453   0.00000  Uiso   1.00
O328   O     0.83334   0.46178   0.31547   0.00000  Uiso   1.00
O329   O     0.83334   0.53822   0.31547   0.00000  Uiso   1.00
O330   O     0.83333   0.46178   0.18453   0.00000  Uiso   1.00
Zn331  Zn    0.83333   0.55104   0.25000   0.00000  Uiso   1.00
Zn332  Zn    0.83333   0.44896   0.25000   0.00000  Uiso   1.00
Cl333  Cl    0.82937   0.59795   0.01529   0.00000  Uiso   1.00
Cl334  Cl    0.83729   0.40205   0.48471   0.00000  Uiso   1.00
Cl335  Cl    0.75264   0.54489   0.47805   0.00000  Uiso   1.00
Cl336  Cl    0.91403   0.45511   0.02195   0.00000  Uiso   1.00
O337   O     0.80324   0.57676   0.11283   0.00000  Uiso   1.00
H338   H     0.78789   0.59665   0.09082   0.00000  Uiso   1.00
O339   O     0.86343   0.42324   0.38717   0.00000  Uiso   1.00
H340   H     0.87878   0.40335   0.40918   0.00000  Uiso   1.00
O341   O     0.77902   0.55808   0.37959   0.00000  Uiso   1.00
H342   H     0.76791   0.58180   0.39886   0.00000  Uiso   1.00
O343   O     0.88765   0.44192   0.12041   0.00000  Uiso   1.00
H344   H     0.89876   0.41819   0.10114   0.00000  Uiso   1.00
Cl345  Cl    0.71680   0.46141   0.33592   0.00000  Uiso   1.00
Cl346  Cl    0.94987   0.53859   0.16408   0.00000  Uiso   1.00
Cl347  Cl    0.95109   0.46123   0.33591   0.00000  Uiso   1.00
Cl348  Cl    0.71558   0.53877   0.16409   0.00000  Uiso   1.00
C349   C     0.08678   0.83334   0.24993   0.00000  Uiso   1.00
C350   C     0.24655   0.83333   0.25007   0.00000  Uiso   1.00
C351   C     0.16733   0.83436   0.16364   0.00000  Uiso   1.00
C352   C     0.16600   0.83231   0.33636   0.00000  Uiso   1.00
C353   C     0.19256   0.68958   0.27827   0.00000  Uiso   1.00
C354   C     0.14077   0.97709   0.22173   0.00000  Uiso   1.00
C355   C     0.14076   0.69173   0.22174   0.00000  Uiso   1.00
C356   C     0.19257   0.97494   0.27826   0.00000  Uiso   1.00
C357   C     0.02194   0.81554   0.28799   0.00000  Uiso   1.00
C358   C     0.31140   0.85113   0.21201   0.00000  Uiso   1.00
C359   C     0.31193   0.81551   0.28800   0.00000  Uiso   1.00
C360   C     0.02140   0.85116   0.21200   0.00000  Uiso   1.00
C361   C     0.16100   0.87767   0.04418   0.00000  Uiso   1.00
C362   C     0.17233   0.78900   0.45582   0.00000  Uiso   1.00
C363   C     0.13175   0.85729   0.45247   0.00000  Uiso   1.00
C364   C     0.20158   0.80938   0.04753   0.00000  Uiso   1.00
C365   C     0.15617   0.87566   0.09075   0.00000  Uiso   1.00
C366   C     0.17716   0.79101   0.40925   0.00000  Uiso   1.00
C367   C     0.13527   0.86038   0.40564   0.00000  Uiso   1.00
C368   C     0.19807   0.80629   0.09436   0.00000  Uiso   1.00
C369   C     0.17216   0.83757   0.11533   0.00000  Uiso   1.00
C370   C     0.16118   0.82909   0.38467   0.00000  Uiso   1.00
C371   C     0.17399   0.83841   0.02304   0.00000  Uiso   1.00
C372   C     0.15934   0.82826   0.47696   0.00000  Uiso   1.00
C373   C     0.29066   0.83333   0.25003   0.00000  Uiso   1.00
C374   C     0.04267   0.83334   0.24997   0.00000  Uiso   1.00
H375   H     0.21327   0.70690   0.30085   0.00000  Uiso   1.00
H376   H     0.12007   0.95976   0.19915   0.00000  Uiso   1.00
H377   H     0.12004   0.71077   0.19916   0.00000  Uiso   1.00
H378   H     0.21329   0.95589   0.30084   0.00000  Uiso   1.00
N379   N     0.16667   0.95240   0.25000   0.00000  Uiso   1.00
N380   N     0.16667   0.71427   0.25000   0.00000  Uiso   1.00
O381   O     0.10559   0.87154   0.25000   0.00000  Uiso   1.00
O382   O     0.22774   0.79513   0.25001   0.00000  Uiso   1.00
O383   O     0.22774   0.87154   0.25001   0.00000  Uiso   1.00
O384   O     0.10559   0.79513   0.25000   0.00000  Uiso   1.00
O385   O     0.16666   0.87155   0.18453   0.00000  Uiso   1.00
O386   O     0.16667   0.79511   0.31547   0.00000  Uiso   1.00
O387   O     0.16667   0.87155   0.31547   0.00000  Uiso   1.00
O388   O     0.16666   0.79511   0.18453   0.00000  Uiso   1.00
Zn389  Zn    0.16667   0.88437   0.25000   0.00000  Uiso   1.00
Zn390  Zn    0.16667   0.78229   0.25000   0.00000  Uiso   1.00
Cl391  Cl    0.16271   0.93129   0.01529   0.00000  Uiso   1.00
Cl392  Cl    0.17062   0.73538   0.48471   0.00000  Uiso   1.00
Cl393  Cl    0.08597   0.87823   0.47805   0.00000  Uiso   1.00
Cl394  Cl    0.24736   0.78844   0.02195   0.00000  Uiso   1.00
O395   O     0.13657   0.91009   0.11283   0.00000  Uiso   1.00
H396   H     0.12122   0.92999   0.09082   0.00000  Uiso   1.00
O397   O     0.19676   0.75657   0.38717   0.00000  Uiso   1.00
H398   H     0.21211   0.73668   0.40918   0.00000  Uiso   1.00
O399   O     0.11235   0.89141   0.37959   0.00000  Uiso   1.00
H400   H     0.10124   0.91514   0.39886   0.00000  Uiso   1.00
O401   O     0.22098   0.77526   0.12041   0.00000  Uiso   1.00
H402   H     0.23209   0.75153   0.10114   0.00000  Uiso   1.00
Cl403  Cl    0.05013   0.79475   0.33592   0.00000  Uiso   1.00
Cl404  Cl    0.28320   0.87192   0.16408   0.00000  Uiso   1.00
Cl405  Cl    0.28442   0.79456   0.33591   0.00000  Uiso   1.00
Cl406  Cl    0.04891   0.87211   0.16409   0.00000  Uiso   1.00
C407   C     0.42011   0.83334   0.24993   0.00000  Uiso   1.00
C408   C     0.57989   0.83333   0.25007   0.00000  Uiso   1.00
C409   C     0.50066   0.83436   0.16364   0.00000  Uiso   1.00
C410   C     0.49933   0.83231   0.33636   0.00000  Uiso   1.00
C411   C     0.52590   0.68958   0.27827   0.00000  Uiso   1.00
C412   C     0.47410   0.97709   0.22173   0.00000  Uiso   1.00
C413   C     0.47409   0.69173   0.22174   0.00000  Uiso   1.00
C414   C     0.52591   0.97494   0.27826   0.00000  Uiso   1.00
C415   C     0.35527   0.81554   0.28799   0.00000  Uiso   1.00
C416   C     0.64473   0.85113   0.21201   0.00000  Uiso   1.00
C417   C     0.64526   0.81551   0.28800   0.00000  Uiso   1.00
C418   C     0.35474   0.85116   0.21200   0.00000  Uiso   1.00
C419   C     0.49433   0.87767   0.04418   0.00000  Uiso   1.00
C420   C     0.50566   0.78900   0.45582   0.00000  Uiso   1.00
C421   C     0.46508   0.85729   0.45247   0.00000  Uiso   1.00
C422   C     0.53491   0.80938   0.04753   0.00000  Uiso   1.00
C423   C     0.48950   0.87566   0.09075   0.00000  Uiso   1.00
C424   C     0.51050   0.79101   0.40925   0.00000  Uiso   1.00
C425   C     0.46860   0.86038   0.40564   0.00000  Uiso   1.00
C426   C     0.53140   0.80629   0.09436   0.00000  Uiso   1.00
C427   C     0.50549   0.83757   0.11533   0.00000  Uiso   1.00
C428   C     0.49451   0.82909   0.38467   0.00000  Uiso   1.00
C429   C     0.50733   0.83841   0.02304   0.00000  Uiso   1.00
C430   C     0.49267   0.82826   0.47696   0.00000  Uiso   1.00
C431   C     0.62399   0.83333   0.25003   0.00000  Uiso   1.00
C432   C     0.37601   0.83334   0.24997   0.00000  Uiso   1.00
H433   H     0.54660   0.70690   0.30085   0.00000  Uiso   1.00
H434   H     0.45340   0.95976   0.19915   0.00000  Uiso   1.00
H435   H     0.45337   0.71077   0.19916   0.00000  Uiso   1.00
H436   H     0.54663   0.95589   0.30084   0.00000  Uiso   1.00
N437   N     0.50000   0.95240   0.25000   0.00000  Uiso   1.00
N438   N     0.50000   0.71427   0.25000   0.00000  Uiso   1.00
O439   O     0.43892   0.87154   0.25000   0.00000  Uiso   1.00
O440   O     0.56108   0.79513   0.25001   0.00000  Uiso   1.00
O441   O     0.56108   0.87154   0.25001   0.00000  Uiso   1.00
O442   O     0.43892   0.79513   0.25000   0.00000  Uiso   1.00
O443   O     0.50000   0.87155   0.18453   0.00000  Uiso   1.00
O444   O     0.50000   0.79511   0.31547   0.00000  Uiso   1.00
O445   O     0.50000   0.87155   0.31547   0.00000  Uiso   1.00
O446   O     0.50000   0.79511   0.18453   0.00000  Uiso   1.00
Zn447  Zn    0.50000   0.88437   0.25000   0.00000  Uiso   1.00
Zn448  Zn    0.50000   0.78229   0.25000   0.00000  Uiso   1.00
Cl449  Cl    0.49604   0.93129   0.01529   0.00000  Uiso   1.00
Cl450  Cl    0.50396   0.73538   0.48471   0.00000  Uiso   1.00
Cl451  Cl    0.41931   0.87823   0.47805   0.00000  Uiso   1.00
Cl452  Cl    0.58069   0.78844   0.02195   0.00000  Uiso   1.00
O453   O     0.46991   0.91009   0.11283   0.00000  Uiso   1.00
H454   H     0.45456   0.92999   0.09082   0.00000  Uiso   1.00
O455   O     0.53009   0.75657   0.38717   0.00000  Uiso   1.00
H456   H     0.54544   0.73668   0.40918   0.00000  Uiso   1.00
O457   O     0.44569   0.89141   0.37959   0.00000  Uiso   1.00
H458   H     0.43457   0.91514   0.39886   0.00000  Uiso   1.00
O459   O     0.55431   0.77526   0.12041   0.00000  Uiso   1.00
H460   H     0.56543   0.75153   0.10114   0.00000  Uiso   1.00
Cl461  Cl    0.38347   0.79475   0.33592   0.00000  Uiso   1.00
Cl462  Cl    0.61653   0.87192   0.16408   0.00000  Uiso   1.00
Cl463  Cl    0.61776   0.79456   0.33591   0.00000  Uiso   1.00
Cl464  Cl    0.38224   0.87211   0.16409   0.00000  Uiso   1.00
C465   C     0.75345   0.83334   0.24993   0.00000  Uiso   1.00
C466   C     0.91322   0.83333   0.25007   0.00000  Uiso   1.00
C467   C     0.83400   0.83436   0.16364   0.00000  Uiso   1.00
C468   C     0.83267   0.83231   0.33636   0.00000  Uiso   1.00
C469   C     0.85923   0.68958   0.27827   0.00000  Uiso   1.00
C470   C     0.80744   0.97709   0.22173   0.00000  Uiso   1.00
C471   C     0.80743   0.69173   0.22174   0.00000  Uiso   1.00
C472   C     0.85924   0.97494   0.27826   0.00000  Uiso   1.00
C473   C     0.68860   0.81554   0.28799   0.00000  Uiso   1.00
C474   C     0.97806   0.85113   0.21201   0.00000  Uiso   1.00
C475   C     0.97860   0.81551   0.28800   0.00000  Uiso   1.00
C476   C     0.68807   0.85116   0.21200   0.00000  Uiso   1.00
C477   C     0.82767   0.87767   0.04418   0.00000  Uiso   1.00
C478   C     0.83900   0.78900   0.45582   0.00000  Uiso   1.00
C479   C     0.79842   0.85729   0.45247   0.00000  Uiso   1.00
C480   C     0.86825   0.80938   0.04753   0.00000  Uiso   1.00
C481   C     0.82284   0.87566   0.09075   0.00000  Uiso   1.00
C482   C     0.84383   0.79101   0.40925   0.00000  Uiso   1.00
C483   C     0.80193   0.86038   0.40564   0.00000  Uiso   1.00
C484   C     0.86473   0.80629   0.09436   0.00000  Uiso   1.00
C485   C     0.83882   0.83757   0.11533   0.00000  Uiso   1.00
C486   C     0.82784   0.82909   0.38467   0.00000  Uiso   1.00
C487   C     0.84066   0.83841   0.02304   0.00000  Uiso   1.00
C488   C     0.82601   0.82826   0.47696   0.00000  Uiso   1.00
C489   C     0.95733   0.83333   0.25003   0.00000  Uiso   1.00
C490   C     0.70934   0.83334   0.24997   0.00000  Uiso   1.00
H491   H     0.87993   0.70690   0.30085   0.00000  Uiso   1.00
H492   H     0.78673   0.95976   0.19915   0.00000  Uiso   1.00
H493   H     0.78671   0.71077   0.19916   0.00000  Uiso   1.00
H494   H     0.87996   0.95589   0.30084   0.00000  Uiso   1.00
N495   N     0.83333   0.95240   0.25000   0.00000  Uiso   1.00
N496   N     0.83333   0.71427   0.25000   0.00000  Uiso   1.00
O497   O     0.77226   0.87154   0.25000   0.00000  Uiso   1.00
O498   O     0.89441   0.79513   0.25001   0.00000  Uiso   1.00
O499   O     0.89441   0.87154   0.25001   0.00000  Uiso   1.00
O500   O     0.77226   0.79513   0.25000   0.00000  Uiso   1.00
O501   O     0.83333   0.87155   0.18453   0.00000  Uiso   1.00
O502   O     0.83334   0.79511   0.31547   0.00000  Uiso   1.00
O503   O     0.83334   0.87155   0.31547   0.00000  Uiso   1.00
O504   O     0.83333   0.79511   0.18453   0.00000  Uiso   1.00
Zn505  Zn    0.83333   0.88437   0.25000   0.00000  Uiso   1.00
Zn506  Zn    0.83333   0.78229   0.25000   0.00000  Uiso   1.00
Cl507  Cl    0.82937   0.93129   0.01529   0.00000  Uiso   1.00
Cl508  Cl    0.83729   0.73538   0.48471   0.00000  Uiso   1.00
Cl509  Cl    0.75264   0.87823   0.47805   0.00000  Uiso   1.00
Cl510  Cl    0.91403   0.78844   0.02195   0.00000  Uiso   1.00
O511   O     0.80324   0.91009   0.11283   0.00000  Uiso   1.00
H512   H     0.78789   0.92999   0.09082   0.00000  Uiso   1.00
O513   O     0.86343   0.75657   0.38717   0.00000  Uiso   1.00
H514   H     0.87878   0.73668   0.40918   0.00000  Uiso   1.00
O515   O     0.77902   0.89141   0.37959   0.00000  Uiso   1.00
H516   H     0.76791   0.91514   0.39886   0.00000  Uiso   1.00
O517   O     0.88765   0.77526   0.12041   0.00000  Uiso   1.00
H518   H     0.89876   0.75153   0.10114   0.00000  Uiso   1.00
Cl519  Cl    0.71680   0.79475   0.33592   0.00000  Uiso   1.00
Cl520  Cl    0.94987   0.87192   0.16408   0.00000  Uiso   1.00
Cl521  Cl    0.95109   0.79456   0.33591   0.00000  Uiso   1.00
Cl522  Cl    0.71558   0.87211   0.16409   0.00000  Uiso   1.00
C523   C     0.08678   0.16667   0.74993   0.00000  Uiso   1.00
C524   C     0.24655   0.16667   0.75007   0.00000  Uiso   1.00
C525   C     0.16733   0.16769   0.66364   0.00000  Uiso   1.00
C526   C     0.16600   0.16564   0.83636   0.00000  Uiso   1.00
C527   C     0.19256   0.02291   0.77827   0.00000  Uiso   1.00
C528   C     0.14077   0.31042   0.72173   0.00000  Uiso   1.00
C529   C     0.14076   0.02506   0.72174   0.00000  Uiso   1.00
C530   C     0.19257   0.30827   0.77826   0.00000  Uiso   1.00
C531   C     0.02194   0.14887   0.78799   0.00000  Uiso   1.00
C532   C     0.31140   0.18446   0.71201   0.00000  Uiso   1.00
C533   C     0.31193   0.14884   0.78800   0.00000  Uiso   1.00
C534   C     0.02140   0.18449   0.71200   0.00000  Uiso   1.00
C535   C     0.16100   0.21100   0.54418   0.00000  Uiso   1.00
C536   C     0.17233   0.12233   0.95582   0.00000  Uiso   1.00
C537   C     0.13175   0.19062   0.95247   0.00000  Uiso   1.00
C538   C     0.20158   0.14271   0.54753   0.00000  Uiso   1.00
C539   C     0.15617   0.20899   0.59075   0.00000  Uiso   1.00
C540   C     0.17716   0.12434   0.90925   0.00000  Uiso   1.00
C541   C     0.13527   0.19371   0.90564   0.00000  Uiso   1.00
C542   C     0.19807   0.13962   0.59436   0.00000  Uiso   1.00
C543   C     0.17216   0.17091   0.61533   0.00000  Uiso   1.00
C544   C     0.16118   0.16243   0.88467   0.00000  Uiso   1.00
C545   C     0.17399   0.17174   0.52304   0.00000  Uiso   1.00
C546   C     0.15934   0.16159   0.97696   0.00000  Uiso   1.00
C547   C     0.29066   0.16666   0.75003   0.00000  Uiso   1.00
C548   C     0.04267   0.16667   0.74997   0.00000  Uiso   1.00
H549   H     0.21327   0.04024   0.80085   0.00000  Uiso   1.00
H550   H     0.12007   0.29310   0.69915   0.00000  Uiso   1.00
H551   H     0.12004   0.04411   0.69916   0.00000  Uiso   1.00
H552   H     0.21329   0.28923   0.80084   0.00000  Uiso   1.00
N553   N     0.16667   0.28573   0.75000   0.00000  Uiso   1.00
N554   N     0.16667   0.04760   0.75000   0.00000  Uiso   1.00
O555   O     0.10559   0.20487   0.75000   0.00000  Uiso   1.00
O556   O     0.22774   0.12846   0.75001   0.00000  Uiso   1.00
O557   O     0.22774   0.20487   0.75001   0.00000  Uiso   1.00
O558   O     0.10559   0.12846   0.75000   0.00000  Uiso   1.00
O559   O     0.16666   0.20489   0.68453   0.00000  Uiso   1.00
O560   O     0.16667   0.12845   0.81547   0.00000  Uiso   1.00
O561   O     0.16667   0.20489   0.81547   0.00000  Uiso   1.00
O562   O     0.16666   0.12845   0.68453   0.00000  Uiso   1.00
Zn563  Zn    0.16667   0.21771   0.75000   0.00000  Uiso   1.00
Zn564  Zn    0.16667   0.11563   0.75000   0.00000  Uiso   1.00
Cl565  Cl    0.16271   0.26462   0.51529   0.00000  Uiso   1.00
Cl566  Cl    0.17062   0.06871   0.98471   0.00000  Uiso   1.00
Cl567  Cl    0.08597   0.21156   0.97805   0.00000  Uiso   1.00
Cl568  Cl    0.24736   0.12177   0.52195   0.00000  Uiso   1.00
O569   O     0.13657   0.24343   0.61283   0.00000  Uiso   1.00
H570   H     0.12122   0.26332   0.59082   0.00000  Uiso   1.00
O571   O     0.19676   0.08991   0.88717   0.00000  Uiso   1.00
H572   H     0.21211   0.07001   0.90918   0.00000  Uiso   1.00
O573   O     0.11235   0.22474   0.87959   0.00000  Uiso   1.00
H574   H     0.10124   0.24847   0.89886   0.00000  Uiso   1.00
O575   O     0.22098   0.10859   0.62041   0.00000  Uiso   1.00
H576   H     0.23209   0.08486   0.60114   0.00000  Uiso   1.00
Cl577  Cl    0.05013   0.12808   0.83592   0.00000  Uiso   1.00
Cl578  Cl    0.28320   0.20525   0.66408   0.00000  Uiso   1.00
Cl579  Cl    0.28442   0.12789   0.83591   0.00000  Uiso   1.00
Cl580  Cl    0.04891   0.20544   0.66409   0.00000  Uiso   1.00
C581   C     0.42011   0.16667   0.74993   0.00000  Uiso   1.00
C582   C     0.57989   0.16667   0.75007   0.00000  Uiso   1.00
C583   C     0.50066   0.16769   0.66364   0.00000  Uiso   1.00
C584   C     0.49933   0.16564   0.83636   0.00000  Uiso   1.00
C585   C     0.52590   0.02291   0.77827   0.00000  Uiso   1.00
C586   C     0.47410   0.31042   0.72173   0.00000  Uiso   1.00
C587   C     0.47409   0.02506   0.72174   0.00000  Uiso   1.00
C588   C     0.52591   0.30827   0.77826   0.00000  Uiso   1.00
C589   C     0.35527   0.14887   0.78799   0.00000  Uiso   1.00
C590   C     0.64473   0.18446   0.71201   0.00000  Uiso   1.00
C591   C     0.64526   0.14884   0.78800   0.00000  Uiso   1.00
C592   C     0.35474   0.18449   0.71200   0.00000  Uiso   1.00
C593   C     0.49433   0.21100   0.54418   0.00000  Uiso   1.00
C594   C     0.50566   0.12233   0.95582   0.00000  Uiso   1.00
C595   C     0.46508   0.19062   0.95247   0.00000  Uiso   1.00
C596   C     0.53491   0.14271   0.54753   0.00000  Uiso   1.00
C597   C     0.48950   0.20899   0.59075   0.00000  Uiso   1.00
C598   C     0.51050   0.12434   0.90925   0.00000  Uiso   1.00
C599   C     0.46860   0.19371   0.90564   0.00000  Uiso   1.00
C600   C     0.53140   0.13962   0.59436   0.00000  Uiso   1.00
C601   C     0.50549   0.17091   0.61533   0.00000  Uiso   1.00
C602   C     0.49451   0.16243   0.88467   0.00000  Uiso   1.00
C603   C     0.50733   0.17174   0.52304   0.00000  Uiso   1.00
C604   C     0.49267   0.16159   0.97696   0.00000  Uiso   1.00
C605   C     0.62399   0.16666   0.75003   0.00000  Uiso   1.00
C606   C     0.37601   0.16667   0.74997   0.00000  Uiso   1.00
H607   H     0.54660   0.04024   0.80085   0.00000  Uiso   1.00
H608   H     0.45340   0.29310   0.69915   0.00000  Uiso   1.00
H609   H     0.45337   0.04411   0.69916   0.00000  Uiso   1.00
H610   H     0.54663   0.28923   0.80084   0.00000  Uiso   1.00
N611   N     0.50000   0.28573   0.75000   0.00000  Uiso   1.00
N612   N     0.50000   0.04760   0.75000   0.00000  Uiso   1.00
O613   O     0.43892   0.20487   0.75000   0.00000  Uiso   1.00
O614   O     0.56108   0.12846   0.75001   0.00000  Uiso   1.00
O615   O     0.56108   0.20487   0.75001   0.00000  Uiso   1.00
O616   O     0.43892   0.12846   0.75000   0.00000  Uiso   1.00
O617   O     0.50000   0.20489   0.68453   0.00000  Uiso   1.00
O618   O     0.50000   0.12845   0.81547   0.00000  Uiso   1.00
O619   O     0.50000   0.20489   0.81547   0.00000  Uiso   1.00
O620   O     0.50000   0.12845   0.68453   0.00000  Uiso   1.00
Zn621  Zn    0.50000   0.21771   0.75000   0.00000  Uiso   1.00
Zn622  Zn    0.50000   0.11563   0.75000   0.00000  Uiso   1.00
Cl623  Cl    0.49604   0.26462   0.51529   0.00000  Uiso   1.00
Cl624  Cl    0.50396   0.06871   0.98471   0.00000  Uiso   1.00
Cl625  Cl    0.41931   0.21156   0.97805   0.00000  Uiso   1.00
Cl626  Cl    0.58069   0.12177   0.52195   0.00000  Uiso   1.00
O627   O     0.46991   0.24343   0.61283   0.00000  Uiso   1.00
H628   H     0.45456   0.26332   0.59082   0.00000  Uiso   1.00
O629   O     0.53009   0.08991   0.88717   0.00000  Uiso   1.00
H630   H     0.54544   0.07001   0.90918   0.00000  Uiso   1.00
O631   O     0.44569   0.22474   0.87959   0.00000  Uiso   1.00
H632   H     0.43457   0.24847   0.89886   0.00000  Uiso   1.00
O633   O     0.55431   0.10859   0.62041   0.00000  Uiso   1.00
H634   H     0.56543   0.08486   0.60114   0.00000  Uiso   1.00
Cl635  Cl    0.38347   0.12808   0.83592   0.00000  Uiso   1.00
Cl636  Cl    0.61653   0.20525   0.66408   0.00000  Uiso   1.00
Cl637  Cl    0.61776   0.12789   0.83591   0.00000  Uiso   1.00
Cl638  Cl    0.38224   0.20544   0.66409   0.00000  Uiso   1.00
C639   C     0.75345   0.16667   0.74993   0.00000  Uiso   1.00
C640   C     0.91322   0.16667   0.75007   0.00000  Uiso   1.00
C641   C     0.83400   0.16769   0.66364   0.00000  Uiso   1.00
C642   C     0.83267   0.16564   0.83636   0.00000  Uiso   1.00
C643   C     0.85923   0.02291   0.77827   0.00000  Uiso   1.00
C644   C     0.80744   0.31042   0.72173   0.00000  Uiso   1.00
C645   C     0.80743   0.02506   0.72174   0.00000  Uiso   1.00
C646   C     0.85924   0.30827   0.77826   0.00000  Uiso   1.00
C647   C     0.68860   0.14887   0.78799   0.00000  Uiso   1.00
C648   C     0.97806   0.18446   0.71201   0.00000  Uiso   1.00
C649   C     0.97860   0.14884   0.78800   0.00000  Uiso   1.00
C650   C     0.68807   0.18449   0.71200   0.00000  Uiso   1.00
C651   C     0.82767   0.21100   0.54418   0.00000  Uiso   1.00
C652   C     0.83900   0.12233   0.95582   0.00000  Uiso   1.00
C653   C     0.79842   0.19062   0.95247   0.00000  Uiso   1.00
C654   C     0.86825   0.14271   0.54753   0.00000  Uiso   1.00
C655   C     0.82284   0.20899   0.59075   0.00000  Uiso   1.00
C656   C     0.84383   0.12434   0.90925   0.00000  Uiso   1.00
C657   C     0.80193   0.19371   0.90564   0.00000  Uiso   1.00
C658   C     0.86473   0.13962   0.59436   0.00000  Uiso   1.00
C659   C     0.83882   0.17091   0.61533   0.00000  Uiso   1.00
C660   C     0.82784   0.16243   0.88467   0.00000  Uiso   1.00
C661   C     0.84066   0.17174   0.52304   0.00000  Uiso   1.00
C662   C     0.82601   0.16159   0.97696   0.00000  Uiso   1.00
C663   C     0.95733   0.16666   0.75003   0.00000  Uiso   1.00
C664   C     0.70934   0.16667   0.74997   0.00000  Uiso   1.00
H665   H     0.87993   0.04024   0.80085   0.00000  Uiso   1.00
H666   H     0.78673   0.29310   0.69915   0.00000  Uiso   1.00
H667   H     0.78671   0.04411   0.69916   0.00000  Uiso   1.00
H668   H     0.87996   0.28923   0.80084   0.00000  Uiso   1.00
N669   N     0.83333   0.28573   0.75000   0.00000  Uiso   1.00
N670   N     0.83333   0.04760   0.75000   0.00000  Uiso   1.00
O671   O     0.77226   0.20487   0.75000   0.00000  Uiso   1.00
O672   O     0.89441   0.12846   0.75001   0.00000  Uiso   1.00
O673   O     0.89441   0.20487   0.75001   0.00000  Uiso   1.00
O674   O     0.77226   0.12846   0.75000   0.00000  Uiso   1.00
O675   O     0.83333   0.20489   0.68453   0.00000  Uiso   1.00
O676   O     0.83334   0.12845   0.81547   0.00000  Uiso   1.00
O677   O     0.83334   0.20489   0.81547   0.00000  Uiso   1.00
O678   O     0.83333   0.12845   0.68453   0.00000  Uiso   1.00
Zn679  Zn    0.83333   0.21771   0.75000   0.00000  Uiso   1.00
Zn680  Zn    0.83333   0.11563   0.75000   0.00000  Uiso   1.00
Cl681  Cl    0.82937   0.26462   0.51529   0.00000  Uiso   1.00
Cl682  Cl    0.83729   0.06871   0.98471   0.00000  Uiso   1.00
Cl683  Cl    0.75264   0.21156   0.97805   0.00000  Uiso   1.00
Cl684  Cl    0.91403   0.12177   0.52195   0.00000  Uiso   1.00
O685   O     0.80324   0.24343   0.61283   0.00000  Uiso   1.00
H686   H     0.78789   0.26332   0.59082   0.00000  Uiso   1.00
O687   O     0.86343   0.08991   0.88717   0.00000  Uiso   1.00
H688   H     0.87878   0.07001   0.90918   0.00000  Uiso   1.00
O689   O     0.77902   0.22474   0.87959   0.00000  Uiso   1.00
H690   H     0.76791   0.24847   0.89886   0.00000  Uiso   1.00
O691   O     0.88765   0.10859   0.62041   0.00000  Uiso   1.00
H692   H     0.89876   0.08486   0.60114   0.00000  Uiso   1.00
Cl693  Cl    0.71680   0.12808   0.83592   0.00000  Uiso   1.00
Cl694  Cl    0.94987   0.20525   0.66408   0.00000  Uiso   1.00
Cl695  Cl    0.95109   0.12789   0.83591   0.00000  Uiso   1.00
Cl696  Cl    0.71558   0.20544   0.66409   0.00000  Uiso   1.00
C697   C     0.08678   0.50000   0.74993   0.00000  Uiso   1.00
C698   C     0.24655   0.50000   0.75007   0.00000  Uiso   1.00
C699   C     0.16733   0.50102   0.66364   0.00000  Uiso   1.00
C700   C     0.16600   0.49898   0.83636   0.00000  Uiso   1.00
C701   C     0.19256   0.35624   0.77827   0.00000  Uiso   1.00
C702   C     0.14077   0.64376   0.72173   0.00000  Uiso   1.00
C703   C     0.14076   0.35840   0.72174   0.00000  Uiso   1.00
C704   C     0.19257   0.64160   0.77826   0.00000  Uiso   1.00
C705   C     0.02194   0.48221   0.78799   0.00000  Uiso   1.00
C706   C     0.31140   0.51779   0.71201   0.00000  Uiso   1.00
C707   C     0.31193   0.48218   0.78800   0.00000  Uiso   1.00
C708   C     0.02140   0.51782   0.71200   0.00000  Uiso   1.00
C709   C     0.16100   0.54434   0.54418   0.00000  Uiso   1.00
C710   C     0.17233   0.45566   0.95582   0.00000  Uiso   1.00
C711   C     0.13175   0.52395   0.95247   0.00000  Uiso   1.00
C712   C     0.20158   0.47605   0.54753   0.00000  Uiso   1.00
C713   C     0.15617   0.54232   0.59075   0.00000  Uiso   1.00
C714   C     0.17716   0.45768   0.90925   0.00000  Uiso   1.00
C715   C     0.13527   0.52704   0.90564   0.00000  Uiso   1.00
C716   C     0.19807   0.47296   0.59436   0.00000  Uiso   1.00
C717   C     0.17216   0.50424   0.61533   0.00000  Uiso   1.00
C718   C     0.16118   0.49576   0.88467   0.00000  Uiso   1.00
C719   C     0.17399   0.50507   0.52304   0.00000  Uiso   1.00
C720   C     0.15934   0.49493   0.97696   0.00000  Uiso   1.00
C721   C     0.29066   0.49999   0.75003   0.00000  Uiso   1.00
C722   C     0.04267   0.50001   0.74997   0.00000  Uiso   1.00
H723   H     0.21327   0.37357   0.80085   0.00000  Uiso   1.00
H724   H     0.12007   0.62643   0.69915   0.00000  Uiso   1.00
H725   H     0.12004   0.37744   0.69916   0.00000  Uiso   1.00
H726   H     0.21329   0.62256   0.80084   0.00000  Uiso   1.00
N727   N     0.16667   0.61907   0.75000   0.00000  Uiso   1.00
N728   N     0.16667   0.38093   0.75000   0.00000  Uiso   1.00
O729   O     0.10559   0.53821   0.75000   0.00000  Uiso   1.00
O730   O     0.22774   0.46179   0.75001   0.00000  Uiso   1.00
O731   O     0.22774   0.53821   0.75001   0.00000  Uiso   1.00
O732   O     0.10559   0.46179   0.75000   0.00000  Uiso   1.00
O733   O     0.16666   0.53822   0.68453   0.00000  Uiso   1.00
O734   O     0.16667   0.46178   0.81547   0.00000  Uiso   1.00
O735   O     0.16667   0.53822   0.81547   0.00000  Uiso   1.00
O736   O     0.16666   0.46178   0.68453   0.00000  Uiso   1.00
Zn737  Zn    0.16667   0.55104   0.75000   0.00000  Uiso   1.00
Zn738  Zn    0.16667   0.44896   0.75000   0.00000  Uiso   1.00
Cl739  Cl    0.16271   0.59795   0.51529   0.00000  Uiso   1.00
Cl740  Cl    0.17062   0.40205   0.98471   0.00000  Uiso   1.00
Cl741  Cl    0.08597   0.54489   0.97805   0.00000  Uiso   1.00
Cl742  Cl    0.24736   0.45511   0.52195   0.00000  Uiso   1.00
O743   O     0.13657   0.57676   0.61283   0.00000  Uiso   1.00
H744   H     0.12122   0.59665   0.59082   0.00000  Uiso   1.00
O745   O     0.19676   0.42324   0.88717   0.00000  Uiso   1.00
H746   H     0.21211   0.40335   0.90918   0.00000  Uiso   1.00
O747   O     0.11235   0.55808   0.87959   0.00000  Uiso   1.00
H748   H     0.10124   0.58180   0.89886   0.00000  Uiso   1.00
O749   O     0.22098   0.44192   0.62041   0.00000  Uiso   1.00
H750   H     0.23209   0.41819   0.60114   0.00000  Uiso   1.00
Cl751  Cl    0.05013   0.46141   0.83592   0.00000  Uiso   1.00
Cl752  Cl    0.28320   0.53859   0.66408   0.00000  Uiso   1.00
Cl753  Cl    0.28442   0.46123   0.83591   0.00000  Uiso   1.00
Cl754  Cl    0.04891   0.53877   0.66409   0.00000  Uiso   1.00
C755   C     0.42011   0.50000   0.74993   0.00000  Uiso   1.00
C756   C     0.57989   0.50000   0.75007   0.00000  Uiso   1.00
C757   C     0.50066   0.50102   0.66364   0.00000  Uiso   1.00
C758   C     0.49933   0.49898   0.83636   0.00000  Uiso   1.00
C759   C     0.52590   0.35624   0.77827   0.00000  Uiso   1.00
C760   C     0.47410   0.64376   0.72173   0.00000  Uiso   1.00
C761   C     0.47409   0.35840   0.72174   0.00000  Uiso   1.00
C762   C     0.52591   0.64160   0.77826   0.00000  Uiso   1.00
C763   C     0.35527   0.48221   0.78799   0.00000  Uiso   1.00
C764   C     0.64473   0.51779   0.71201   0.00000  Uiso   1.00
C765   C     0.64526   0.48218   0.78800   0.00000  Uiso   1.00
C766   C     0.35474   0.51782   0.71200   0.00000  Uiso   1.00
C767   C     0.49433   0.54434   0.54418   0.00000  Uiso   1.00
C768   C     0.50566   0.45566   0.95582   0.00000  Uiso   1.00
C769   C     0.46508   0.52395   0.95247   0.00000  Uiso   1.00
C770   C     0.53491   0.47605   0.54753   0.00000  Uiso   1.00
C771   C     0.48950   0.54232   0.59075   0.00000  Uiso   1.00
C772   C     0.51050   0.45768   0.90925   0.00000  Uiso   1.00
C773   C     0.46860   0.52704   0.90564   0.00000  Uiso   1.00
C774   C     0.53140   0.47296   0.59436   0.00000  Uiso   1.00
C775   C     0.50549   0.50424   0.61533   0.00000  Uiso   1.00
C776   C     0.49451   0.49576   0.88467   0.00000  Uiso   1.00
C777   C     0.50733   0.50507   0.52304   0.00000  Uiso   1.00
C778   C     0.49267   0.49493   0.97696   0.00000  Uiso   1.00
C779   C     0.62399   0.49999   0.75003   0.00000  Uiso   1.00
C780   C     0.37601   0.50001   0.74997   0.00000  Uiso   1.00
H781   H     0.54660   0.37357   0.80085   0.00000  Uiso   1.00
H782   H     0.45340   0.62643   0.69915   0.00000  Uiso   1.00
H783   H     0.45337   0.37744   0.69916   0.00000  Uiso   1.00
H784   H     0.54663   0.62256   0.80084   0.00000  Uiso   1.00
N785   N     0.50000   0.61907   0.75000   0.00000  Uiso   1.00
N786   N     0.50000   0.38093   0.75000   0.00000  Uiso   1.00
O787   O     0.43892   0.53821   0.75000   0.00000  Uiso   1.00
O788   O     0.56108   0.46179   0.75001   0.00000  Uiso   1.00
O789   O     0.56108   0.53821   0.75001   0.00000  Uiso   1.00
O790   O     0.43892   0.46179   0.75000   0.00000  Uiso   1.00
O791   O     0.50000   0.53822   0.68453   0.00000  Uiso   1.00
O792   O     0.50000   0.46178   0.81547   0.00000  Uiso   1.00
O793   O     0.50000   0.53822   0.81547   0.00000  Uiso   1.00
O794   O     0.50000   0.46178   0.68453   0.00000  Uiso   1.00
Zn795  Zn    0.50000   0.55104   0.75000   0.00000  Uiso   1.00
Zn796  Zn    0.50000   0.44896   0.75000   0.00000  Uiso   1.00
Cl797  Cl    0.49604   0.59795   0.51529   0.00000  Uiso   1.00
Cl798  Cl    0.50396   0.40205   0.98471   0.00000  Uiso   1.00
Cl799  Cl    0.41931   0.54489   0.97805   0.00000  Uiso   1.00
Cl800  Cl    0.58069   0.45511   0.52195   0.00000  Uiso   1.00
O801   O     0.46991   0.57676   0.61283   0.00000  Uiso   1.00
H802   H     0.45456   0.59665   0.59082   0.00000  Uiso   1.00
O803   O     0.53009   0.42324   0.88717   0.00000  Uiso   1.00
H804   H     0.54544   0.40335   0.90918   0.00000  Uiso   1.00
O805   O     0.44569   0.55808   0.87959   0.00000  Uiso   1.00
H806   H     0.43457   0.58180   0.89886   0.00000  Uiso   1.00
O807   O     0.55431   0.44192   0.62041   0.00000  Uiso   1.00
H808   H     0.56543   0.41819   0.60114   0.00000  Uiso   1.00
Cl809  Cl    0.38347   0.46141   0.83592   0.00000  Uiso   1.00
Cl810  Cl    0.61653   0.53859   0.66408   0.00000  Uiso   1.00
Cl811  Cl    0.61776   0.46123   0.83591   0.00000  Uiso   1.00
Cl812  Cl    0.38224   0.53877   0.66409   0.00000  Uiso   1.00
C813   C     0.75345   0.50000   0.74993   0.00000  Uiso   1.00
C814   C     0.91322   0.50000   0.75007   0.00000  Uiso   1.00
C815   C     0.83400   0.50102   0.66364   0.00000  Uiso   1.00
C816   C     0.83267   0.49898   0.83636   0.00000  Uiso   1.00
C817   C     0.85923   0.35624   0.77827   0.00000  Uiso   1.00
C818   C     0.80744   0.64376   0.72173   0.00000  Uiso   1.00
C819   C     0.80743   0.35840   0.72174   0.00000  Uiso   1.00
C820   C     0.85924   0.64160   0.77826   0.00000  Uiso   1.00
C821   C     0.68860   0.48221   0.78799   0.00000  Uiso   1.00
C822   C     0.97806   0.51779   0.71201   0.00000  Uiso   1.00
C823   C     0.97860   0.48218   0.78800   0.00000  Uiso   1.00
C824   C     0.68807   0.51782   0.71200   0.00000  Uiso   1.00
C825   C     0.82767   0.54434   0.54418   0.00000  Uiso   1.00
C826   C     0.83900   0.45566   0.95582   0.00000  Uiso   1.00
C827   C     0.79842   0.52395   0.95247   0.00000  Uiso   1.00
C828   C     0.86825   0.47605   0.54753   0.00000  Uiso   1.00
C829   C     0.82284   0.54232   0.59075   0.00000  Uiso   1.00
C830   C     0.84383   0.45768   0.90925   0.00000  Uiso   1.00
C831   C     0.80193   0.52704   0.90564   0.00000  Uiso   1.00
C832   C     0.86473   0.47296   0.59436   0.00000  Uiso   1.00
C833   C     0.83882   0.50424   0.61533   0.00000  Uiso   1.00
C834   C     0.82784   0.49576   0.88467   0.00000  Uiso   1.00
C835   C     0.84066   0.50507   0.52304   0.00000  Uiso   1.00
C836   C     0.82601   0.49493   0.97696   0.00000  Uiso   1.00
C837   C     0.95733   0.49999   0.75003   0.00000  Uiso   1.00
C838   C     0.70934   0.50001   0.74997   0.00000  Uiso   1.00
H839   H     0.87993   0.37357   0.80085   0.00000  Uiso   1.00
H840   H     0.78673   0.62643   0.69915   0.00000  Uiso   1.00
H841   H     0.78671   0.37744   0.69916   0.00000  Uiso   1.00
H842   H     0.87996   0.62256   0.80084   0.00000  Uiso   1.00
N843   N     0.83333   0.61907   0.75000   0.00000  Uiso   1.00
N844   N     0.83333   0.38093   0.75000   0.00000  Uiso   1.00
O845   O     0.77226   0.53821   0.75000   0.00000  Uiso   1.00
O846   O     0.89441   0.46179   0.75001   0.00000  Uiso   1.00
O847   O     0.89441   0.53821   0.75001   0.00000  Uiso   1.00
O848   O     0.77226   0.46179   0.75000   0.00000  Uiso   1.00
O849   O     0.83333   0.53822   0.68453   0.00000  Uiso   1.00
O850   O     0.83334   0.46178   0.81547   0.00000  Uiso   1.00
O851   O     0.83334   0.53822   0.81547   0.00000  Uiso   1.00
O852   O     0.83333   0.46178   0.68453   0.00000  Uiso   1.00
Zn853  Zn    0.83333   0.55104   0.75000   0.00000  Uiso   1.00
Zn854  Zn    0.83333   0.44896   0.75000   0.00000  Uiso   1.00
Cl855  Cl    0.82937   0.59795   0.51529   0.00000  Uiso   1.00
Cl856  Cl    0.83729   0.40205   0.98471   0.00000  Uiso   1.00
Cl857  Cl    0.75264   0.54489   0.97805   0.00000  Uiso   1.00
Cl858  Cl    0.91403   0.45511   0.52195   0.00000  Uiso   1.00
O859   O     0.80324   0.57676   0.61283   0.00000  Uiso   1.00
H860   H     0.78789   0.59665   0.59082   0.00000  Uiso   1.00
O861   O     0.86343   0.42324   0.88717   0.00000  Uiso   1.00
H862   H     0.87878   0.40335   0.90918   0.00000  Uiso   1.00
O863   O     0.77902   0.55808   0.87959   0.00000  Uiso   1.00
H864   H     0.76791   0.58180   0.89886   0.00000  Uiso   1.00
O865   O     0.88765   0.44192   0.62041   0.00000  Uiso   1.00
H866   H     0.89876   0.41819   0.60114   0.00000  Uiso   1.00
Cl867  Cl    0.71680   0.46141   0.83592   0.00000  Uiso   1.00
Cl868  Cl    0.94987   0.53859   0.66408   0.00000  Uiso   1.00
Cl869  Cl    0.95109   0.46123   0.83591   0.00000  Uiso   1.00
Cl870  Cl    0.71558   0.53877   0.66409   0.00000  Uiso   1.00
C871   C     0.08678   0.83334   0.74993   0.00000  Uiso   1.00
C872   C     0.24655   0.83333   0.75007   0.00000  Uiso   1.00
C873   C     0.16733   0.83436   0.66364   0.00000  Uiso   1.00
C874   C     0.16600   0.83231   0.83636   0.00000  Uiso   1.00
C875   C     0.19256   0.68958   0.77827   0.00000  Uiso   1.00
C876   C     0.14077   0.97709   0.72173   0.00000  Uiso   1.00
C877   C     0.14076   0.69173   0.72174   0.00000  Uiso   1.00
C878   C     0.19257   0.97494   0.77826   0.00000  Uiso   1.00
C879   C     0.02194   0.81554   0.78799   0.00000  Uiso   1.00
C880   C     0.31140   0.85113   0.71201   0.00000  Uiso   1.00
C881   C     0.31193   0.81551   0.78800   0.00000  Uiso   1.00
C882   C     0.02140   0.85116   0.71200   0.00000  Uiso   1.00
C883   C     0.16100   0.87767   0.54418   0.00000  Uiso   1.00
C884   C     0.17233   0.78900   0.95582   0.00000  Uiso   1.00
C885   C     0.13175   0.85729   0.95247   0.00000  Uiso   1.00
C886   C     0.20158   0.80938   0.54753   0.00000  Uiso   1.00
C887   C     0.15617   0.87566   0.59075   0.00000  Uiso   1.00
C888   C     0.17716   0.79101   0.90925   0.00000  Uiso   1.00
C889   C     0.13527   0.86038   0.90564   0.00000  Uiso   1.00
C890   C     0.19807   0.80629   0.59436   0.00000  Uiso   1.00
C891   C     0.17216   0.83757   0.61533   0.00000  Uiso   1.00
C892   C     0.16118   0.82909   0.88467   0.00000  Uiso   1.00
C893   C     0.17399   0.83841   0.52304   0.00000  Uiso   1.00
C894   C     0.15934   0.82826   0.97696   0.00000  Uiso   1.00
C895   C     0.29066   0.83333   0.75003   0.00000  Uiso   1.00
C896   C     0.04267   0.83334   0.74997   0.00000  Uiso   1.00
H897   H     0.21327   0.70690   0.80085   0.00000  Uiso   1.00
H898   H     0.12007   0.95976   0.69915   0.00000  Uiso   1.00
H899   H     0.12004   0.71077   0.69916   0.00000  Uiso   1.00
H900   H     0.21329   0.95589   0.80084   0.00000  Uiso   1.00
N901   N     0.16667   0.95240   0.75000   0.00000  Uiso   1.00
N902   N     0.16667   0.71427   0.75000   0.00000  Uiso   1.00
O903   O     0.10559   0.87154   0.75000   0.00000  Uiso   1.00
O904   O     0.22774   0.79513   0.75001   0.00000  Uiso   1.00
O905   O     0.22774   0.87154   0.75001   0.00000  Uiso   1.00
O906   O     0.10559   0.79513   0.75000   0.00000  Uiso   1.00
O907   O     0.16666   0.87155   0.68453   0.00000  Uiso   1.00
O908   O     0.16667   0.79511   0.81547   0.00000  Uiso   1.00
O909   O     0.16667   0.87155   0.81547   0.00000  Uiso   1.00
O910   O     0.16666   0.79511   0.68453   0.00000  Uiso   1.00
Zn911  Zn    0.16667   0.88437   0.75000   0.00000  Uiso   1.00
Zn912  Zn    0.16667   0.78229   0.75000   0.00000  Uiso   1.00
Cl913  Cl    0.16271   0.93129   0.51529   0.00000  Uiso   1.00
Cl914  Cl    0.17062   0.73538   0.98471   0.00000  Uiso   1.00
Cl915  Cl    0.08597   0.87823   0.97805   0.00000  Uiso   1.00
Cl916  Cl    0.24736   0.78844   0.52195   0.00000  Uiso   1.00
O917   O     0.13657   0.91009   0.61283   0.00000  Uiso   1.00
H918   H     0.12122   0.92999   0.59082   0.00000  Uiso   1.00
O919   O     0.19676   0.75657   0.88717   0.00000  Uiso   1.00
H920   H     0.21211   0.73668   0.90918   0.00000  Uiso   1.00
O921   O     0.11235   0.89141   0.87959   0.00000  Uiso   1.00
H922   H     0.10124   0.91514   0.89886   0.00000  Uiso   1.00
O923   O     0.22098   0.77526   0.62041   0.00000  Uiso   1.00
H924   H     0.23209   0.75153   0.60114   0.00000  Uiso   1.00
Cl925  Cl    0.05013   0.79475   0.83592   0.00000  Uiso   1.00
Cl926  Cl    0.28320   0.87192   0.66408   0.00000  Uiso   1.00
Cl927  Cl    0.28442   0.79456   0.83591   0.00000  Uiso   1.00
Cl928  Cl    0.04891   0.87211   0.66409   0.00000  Uiso   1.00
C929   C     0.42011   0.83334   0.74993   0.00000  Uiso   1.00
C930   C     0.57989   0.83333   0.75007   0.00000  Uiso   1.00
C931   C     0.50066   0.83436   0.66364   0.00000  Uiso   1.00
C932   C     0.49933   0.83231   0.83636   0.00000  Uiso   1.00
C933   C     0.52590   0.68958   0.77827   0.00000  Uiso   1.00
C934   C     0.47410   0.97709   0.72173   0.00000  Uiso   1.00
C935   C     0.47409   0.69173   0.72174   0.00000  Uiso   1.00
C936   C     0.52591   0.97494   0.77826   0.00000  Uiso   1.00
C937   C     0.35527   0.81554   0.78799   0.00000  Uiso   1.00
C938   C     0.64473   0.85113   0.71201   0.00000  Uiso   1.00
C939   C     0.64526   0.81551   0.78800   0.00000  Uiso   1.00
C940   C     0.35474   0.85116   0.71200   0.00000  Uiso   1.00
C941   C     0.49433   0.87767   0.54418   0.00000  Uiso   1.00
C942   C     0.50566   0.78900   0.95582   0.00000  Uiso   1.00
C943   C     0.46508   0.85729   0.95247   0.00000  Uiso   1.00
C944   C     0.53491   0.80938   0.54753   0.00000  Uiso   1.00
C945   C     0.48950   0.87566   0.59075   0.00000  Uiso   1.00
C946   C     0.51050   0.79101   0.90925   0.00000  Uiso   1.00
C947   C     0.46860   0.86038   0.90564   0.00000  Uiso   1.00
C948   C     0.53140   0.80629   0.59436   0.00000  Uiso   1.00
C949   C     0.50549   0.83757   0.61533   0.00000  Uiso   1.00
C950   C     0.49451   0.82909   0.88467   0.00000  Uiso   1.00
C951   C     0.50733   0.83841   0.52304   0.00000  Uiso   1.00
C952   C     0.49267   0.82826   0.97696   0.00000  Uiso   1.00
C953   C     0.62399   0.83333   0.75003   0.00000  Uiso   1.00
C954   C     0.37601   0.83334   0.74997   0.00000  Uiso   1.00
H955   H     0.54660   0.70690   0.80085   0.00000  Uiso   1.00
H956   H     0.45340   0.95976   0.69915   0.00000  Uiso   1.00
H957   H     0.45337   0.71077   0.69916   0.00000  Uiso   1.00
H958   H     0.54663   0.95589   0.80084   0.00000  Uiso   1.00
N959   N     0.50000   0.95240   0.75000   0.00000  Uiso   1.00
N960   N     0.50000   0.71427   0.75000   0.00000  Uiso   1.00
O961   O     0.43892   0.87154   0.75000   0.00000  Uiso   1.00
O962   O     0.56108   0.79513   0.75001   0.00000  Uiso   1.00
O963   O     0.56108   0.87154   0.75001   0.00000  Uiso   1.00
O964   O     0.43892   0.79513   0.75000   0.00000  Uiso   1.00
O965   O     0.50000   0.87155   0.68453   0.00000  Uiso   1.00
O966   O     0.50000   0.79511   0.81547   0.00000  Uiso   1.00
O967   O     0.50000   0.87155   0.81547   0.00000  Uiso   1.00
O968   O     0.50000   0.79511   0.68453   0.00000  Uiso   1.00
Zn969  Zn    0.50000   0.88437   0.75000   0.00000  Uiso   1.00
Zn970  Zn    0.50000   0.78229   0.75000   0.00000  Uiso   1.00
Cl971  Cl    0.49604   0.93129   0.51529   0.00000  Uiso   1.00
Cl972  Cl    0.50396   0.73538   0.98471   0.00000  Uiso   1.00
Cl973  Cl    0.41931   0.87823   0.97805   0.00000  Uiso   1.00
Cl974  Cl    0.58069   0.78844   0.52195   0.00000  Uiso   1.00
O975   O     0.46991   0.91009   0.61283   0.00000  Uiso   1.00
H976   H     0.45456   0.92999   0.59082   0.00000  Uiso   1.00
O977   O     0.53009   0.75657   0.88717   0.00000  Uiso   1.00
H978   H     0.54544   0.73668   0.90918   0.00000  Uiso   1.00
O979   O     0.44569   0.89141   0.87959   0.00000  Uiso   1.00
H980   H     0.43457   0.91514   0.89886   0.00000  Uiso   1.00
O981   O     0.55431   0.77526   0.62041   0.00000  Uiso   1.00
H982   H     0.56543   0.75153   0.60114   0.00000  Uiso   1.00
Cl983  Cl    0.38347   0.79475   0.83592   0.00000  Uiso   1.00
Cl984  Cl    0.61653   0.87192   0.66408   0.00000  Uiso   1.00
Cl985  Cl    0.61776   0.79456   0.83591   0.00000  Uiso   1.00
Cl986  Cl    0.38224   0.87211   0.66409   0.00000  Uiso   1.00
C987   C     0.75345   0.83334   0.74993   0.00000  Uiso   1.00
C988   C     0.91322   0.83333   0.75007   0.00000  Uiso   1.00
C989   C     0.83400   0.83436   0.66364   0.00000  Uiso   1.00
C990   C     0.83267   0.83231   0.83636   0.00000  Uiso   1.00
C991   C     0.85923   0.68958   0.77827   0.00000  Uiso   1.00
C992   C     0.80744   0.97709   0.72173   0.00000  Uiso   1.00
C993   C     0.80743   0.69173   0.72174   0.00000  Uiso   1.00
C994   C     0.85924   0.97494   0.77826   0.00000  Uiso   1.00
C995   C     0.68860   0.81554   0.78799   0.00000  Uiso   1.00
C996   C     0.97806   0.85113   0.71201   0.00000  Uiso   1.00
C997   C     0.97860   0.81551   0.78800   0.00000  Uiso   1.00
C998   C     0.68807   0.85116   0.71200   0.00000  Uiso   1.00
C999   C     0.82767   0.87767   0.54418   0.00000  Uiso   1.00
C1000  C     0.83900   0.78900   0.95582   0.00000  Uiso   1.00
C1001  C     0.79842   0.85729   0.95247   0.00000  Uiso   1.00
C1002  C     0.86825   0.80938   0.54753   0.00000  Uiso   1.00
C1003  C     0.82284   0.87566   0.59075   0.00000  Uiso   1.00
C1004  C     0.84383   0.79101   0.90925   0.00000  Uiso   1.00
C1005  C     0.80193   0.86038   0.90564   0.00000  Uiso   1.00
C1006  C     0.86473   0.80629   0.59436   0.00000  Uiso   1.00
C1007  C     0.83882   0.83757   0.61533   0.00000  Uiso   1.00
C1008  C     0.82784   0.82909   0.88467   0.00000  Uiso   1.00
C1009  C     0.84066   0.83841   0.52304   0.00000  Uiso   1.00
C1010  C     0.82601   0.82826   0.97696   0.00000  Uiso   1.00
C1011  C     0.95733   0.83333   0.75003   0.00000  Uiso   1.00
C1012  C     0.70934   0.83334   0.74997   0.00000  Uiso   1.00
H1013  H     0.87993   0.70690   0.80085   0.00000  Uiso   1.00
H1014  H     0.78673   0.95976   0.69915   0.00000  Uiso   1.00
H1015  H     0.78671   0.71077   0.69916   0.00000  Uiso   1.00
H1016  H     0.87996   0.95589   0.80084   0.00000  Uiso   1.00
N1017  N     0.83333   0.95240   0.75000   0.00000  Uiso   1.00
N1018  N     0.83333   0.71427   0.75000   0.00000  Uiso   1.00
O1019  O     0.77226   0.87154   0.75000   0.00000  Uiso   1.00
O1020  O     0.89441   0.79513   0.75001   0.00000  Uiso   1.00
O1021  O     0.89441   0.87154   0.75001   0.00000  Uiso   1.00
O1022  O     0.77226   0.79513   0.75000   0.00000  Uiso   1.00
O1023  O     0.83333   0.87155   0.68453   0.00000  Uiso   1.00
O1024  O     0.83334   0.79511   0.81547   0.00000  Uiso   1.00
O1025  O     0.83334   0.87155   0.81547   0.00000  Uiso   1.00
O1026  O     0.83333   0.79511   0.68453   0.00000  Uiso   1.00
Zn1027 Zn    0.83333   0.88437   0.75000   0.00000  Uiso   1.00
Zn1028 Zn    0.83333   0.78229   0.75000   0.00000  Uiso   1.00
Cl1029 Cl    0.82937   0.93129   0.51529   0.00000  Uiso   1.00
Cl1030 Cl    0.83729   0.73538   0.98471   0.00000  Uiso   1.00
Cl1031 Cl    0.75264   0.87823   0.97805   0.00000  Uiso   1.00
Cl1032 Cl    0.91403   0.78844   0.52195   0.00000  Uiso   1.00
O1033  O     0.80324   0.91009   0.61283   0.00000  Uiso   1.00
H1034  H     0.78789   0.92999   0.59082   0.00000  Uiso   1.00
O1035  O     0.86343   0.75657   0.88717   0.00000  Uiso   1.00
H1036  H     0.87878   0.73668   0.90918   0.00000  Uiso   1.00
O1037  O     0.77902   0.89141   0.87959   0.00000  Uiso   1.00
H1038  H     0.76791   0.91514   0.89886   0.00000  Uiso   1.00
O1039  O     0.88765   0.77526   0.62041   0.00000  Uiso   1.00
H1040  H     0.89876   0.75153   0.60114   0.00000  Uiso   1.00
Cl1041 Cl    0.71680   0.79475   0.83592   0.00000  Uiso   1.00
Cl1042 Cl    0.94987   0.87192   0.66408   0.00000  Uiso   1.00
Cl1043 Cl    0.95109   0.79456   0.83591   0.00000  Uiso   1.00
Cl1044 Cl    0.71558   0.87211   0.66409   0.00000  Uiso   1.00
loop_
_geom_bond_atom_site_label_1
_geom_bond_atom_site_label_2
_geom_bond_distance
_geom_bond_site_symmetry_2
_ccdc_geom_bond_type
C1     O36     1.277   .     A
C1     C26     1.405   .     S
C1     O33     1.277   .     A
C2     O35     1.277   .     A
C2     O34     1.277   .     A
C2     C25     1.405   .     S
C3     O40     1.294   .     A
C3     C21     1.449   .     S
C3     O37     1.283   .     A
C4     C22     1.449   .     S
C4     O39     1.294   .     A
C4     O38     1.283   .     A
C5     N32     1.366   .     A
C5     H27     1.082   .     S
C5     C356    1.416   1_545 S
C6     N31     1.366   .     A
C6     H28     1.082   .     S
C6     C181    1.416   .     S
C7     H29     1.082   .     S
C7     N32     1.366   .     A
C7     C354    1.416   1_545 S
C8     H30     1.082   .     S
C8     N31     1.366   .     A
C8     C179    1.416   .     S
C9     C26     1.400   .     A
C9     Cl55    1.772   .     S
C9     C127    1.381   1_455 S
C10    C25     1.400   .     A
C10    Cl56    1.772   .     S
C10    C70     1.381   .     S
C11    C25     1.400   .     A
C11    Cl57    1.771   .     S
C11    C67     1.381   .     S
C12    Cl58    1.771   .     S
C12    C26     1.400   .     A
C12    C126    1.381   1_455 S
C13    C17     1.397   .     A
C13    C23     1.404   .     A
C13    Cl43    1.773   .     S
C14    C18     1.397   .     A
C14    C24     1.404   .     A
C14    Cl44    1.773   .     S
C15    C19     1.400   .     A
C15    C24     1.408   .     A
C15    Cl45    1.773   .     S
C16    C23     1.408   .     A
C16    C20     1.400   .     A
C16    Cl46    1.773   .     S
C17    C21     1.411   .     A
C17    O47     1.383   .     S
C18    C22     1.411   .     A
C18    O49     1.383   .     S
C19    O51     1.383   .     S
C19    C22     1.406   .     A
C20    C21     1.406   .     A
C20    O53     1.383   .     S
C23    C546    1.489   1_554 S
C24    C545    1.489   .     S
N31    Zn41    2.008   .     S
N32    Zn42    2.008   .     S
O33    Zn41    1.983   .     S
O34    Zn42    1.983   .     S
O35    Zn41    1.983   .     S
O36    Zn42    1.983   .     S
O37    Zn41    2.002   .     S
O38    Zn42    2.002   .     S
O39    Zn41    1.973   .     S
O40    Zn42    1.973   .     S
O47    H48     0.990   .     S
O49    H50     0.990   .     S
O51    H52     0.990   .     S
O53    H54     0.990   .     S
C59    O94     1.277   .     A
C59    C84     1.405   .     S
C59    O91     1.277   .     A
C60    O93     1.277   .     A
C60    O92     1.277   .     A
C60    C83     1.405   .     S
C61    O98     1.294   .     A
C61    C79     1.449   .     S
C61    O95     1.283   .     A
C62    C80     1.449   .     S
C62    O97     1.294   .     A
C62    O96     1.283   .     A
C63    N90     1.366   .     A
C63    H85     1.082   .     S
C63    C414    1.416   1_545 S
C64    N89     1.366   .     A
C64    H86     1.082   .     S
C64    C239    1.416   .     S
C65    H87     1.082   .     S
C65    N90     1.366   .     A
C65    C412    1.416   1_545 S
C66    H88     1.082   .     S
C66    N89     1.366   .     A
C66    C237    1.416   .     S
C67    C84     1.400   .     A
C67    Cl113   1.772   .     S
C68    C83     1.400   .     A
C68    Cl114   1.772   .     S
C68    C128    1.381   .     S
C69    C83     1.400   .     A
C69    Cl115   1.771   .     S
C69    C125    1.381   .     S
C70    Cl116   1.771   .     S
C70    C84     1.400   .     A
C71    C75     1.397   .     A
C71    C81     1.404   .     A
C71    Cl101   1.773   .     S
C72    C76     1.397   .     A
C72    C82     1.404   .     A
C72    Cl102   1.773   .     S
C73    C77     1.400   .     A
C73    C82     1.408   .     A
C73    Cl103   1.773   .     S
C74    C81     1.408   .     A
C74    C78     1.400   .     A
C74    Cl104   1.773   .     S
C75    C79     1.411   .     A
C75    O105    1.383   .     S
C76    C80     1.411   .     A
C76    O107    1.383   .     S
C77    O109    1.383   .     S
C77    C80     1.406   .     A
C78    C79     1.406   .     A
C78    O111    1.383   .     S
C81    C604    1.489   1_554 S
C82    C603    1.489   .     S
N89    Zn99    2.008   .     S
N90    Zn100   2.008   .     S
O91    Zn99    1.983   .     S
O92    Zn100   1.983   .     S
O93    Zn99    1.983   .     S
O94    Zn100   1.983   .     S
O95    Zn99    2.002   .     S
O96    Zn100   2.002   .     S
O97    Zn99    1.973   .     S
O98    Zn100   1.973   .     S
O105   H106    0.990   .     S
O107   H108    0.990   .     S
O109   H110    0.990   .     S
O111   H112    0.990   .     S
C117   O152    1.277   .     A
C117   C142    1.405   .     S
C117   O149    1.277   .     A
C118   O151    1.277   .     A
C118   O150    1.277   .     A
C118   C141    1.405   .     S
C119   O156    1.294   .     A
C119   C137    1.449   .     S
C119   O153    1.283   .     A
C120   C138    1.449   .     S
C120   O155    1.294   .     A
C120   O154    1.283   .     A
C121   N148    1.366   .     A
C121   H143    1.082   .     S
C121   C472    1.416   1_545 S
C122   N147    1.366   .     A
C122   H144    1.082   .     S
C122   C297    1.416   .     S
C123   H145    1.082   .     S
C123   N148    1.366   .     A
C123   C470    1.416   1_545 S
C124   H146    1.082   .     S
C124   N147    1.366   .     A
C124   C295    1.416   .     S
C125   C142    1.400   .     A
C125   Cl171   1.772   .     S
C126   C141    1.400   .     A
C126   Cl172   1.772   .     S
C126   C12     1.381   1_655 S
C127   C141    1.400   .     A
C127   Cl173   1.771   .     S
C127   C9      1.381   1_655 S
C128   Cl174   1.771   .     S
C128   C142    1.400   .     A
C129   C133    1.397   .     A
C129   C139    1.404   .     A
C129   Cl159   1.773   .     S
C130   C134    1.397   .     A
C130   C140    1.404   .     A
C130   Cl160   1.773   .     S
C131   C135    1.400   .     A
C131   C140    1.408   .     A
C131   Cl161   1.773   .     S
C132   C139    1.408   .     A
C132   C136    1.400   .     A
C132   Cl162   1.773   .     S
C133   C137    1.411   .     A
C133   O163    1.383   .     S
C134   C138    1.411   .     A
C134   O165    1.383   .     S
C135   O167    1.383   .     S
C135   C138    1.406   .     A
C136   C137    1.406   .     A
C136   O169    1.383   .     S
C139   C662    1.489   1_554 S
C140   C661    1.489   .     S
N147   Zn157   2.008   .     S
N148   Zn158   2.008   .     S
O149   Zn157   1.983   .     S
O150   Zn158   1.983   .     S
O151   Zn157   1.983   .     S
O152   Zn158   1.983   .     S
O153   Zn157   2.002   .     S
O154   Zn158   2.002   .     S
O155   Zn157   1.973   .     S
O156   Zn158   1.973   .     S
O163   H164    0.990   .     S
O165   H166    0.990   .     S
O167   H168    0.990   .     S
O169   H170    0.990   .     S
C175   O210    1.277   .     A
C175   C200    1.405   .     S
C175   O207    1.277   .     A
C176   O209    1.277   .     A
C176   O208    1.277   .     A
C176   C199    1.405   .     S
C177   O214    1.294   .     A
C177   C195    1.449   .     S
C177   O211    1.283   .     A
C178   C196    1.449   .     S
C178   O213    1.294   .     A
C178   O212    1.283   .     A
C179   N206    1.366   .     A
C179   H201    1.082   .     S
C180   N205    1.366   .     A
C180   H202    1.082   .     S
C180   C355    1.416   .     S
C181   H203    1.082   .     S
C181   N206    1.366   .     A
C182   H204    1.082   .     S
C182   N205    1.366   .     A
C182   C353    1.416   .     S
C183   C200    1.400   .     A
C183   Cl229   1.772   .     S
C183   C301    1.381   1_455 S
C184   C199    1.400   .     A
C184   Cl230   1.772   .     S
C184   C244    1.381   .     S
C185   C199    1.400   .     A
C185   Cl231   1.771   .     S
C185   C241    1.381   .     S
C186   Cl232   1.771   .     S
C186   C200    1.400   .     A
C186   C300    1.381   1_455 S
C187   C191    1.397   .     A
C187   C197    1.404   .     A
C187   Cl217   1.773   .     S
C188   C192    1.397   .     A
C188   C198    1.404   .     A
C188   Cl218   1.773   .     S
C189   C193    1.400   .     A
C189   C198    1.408   .     A
C189   Cl219   1.773   .     S
C190   C197    1.408   .     A
C190   C194    1.400   .     A
C190   Cl220   1.773   .     S
C191   C195    1.411   .     A
C191   O221    1.383   .     S
C192   C196    1.411   .     A
C192   O223    1.383   .     S
C193   O225    1.383   .     S
C193   C196    1.406   .     A
C194   C195    1.406   .     A
C194   O227    1.383   .     S
C197   C720    1.489   1_554 S
C198   C719    1.489   .     S
N205   Zn215   2.008   .     S
N206   Zn216   2.008   .     S
O207   Zn215   1.983   .     S
O208   Zn216   1.983   .     S
O209   Zn215   1.983   .     S
O210   Zn216   1.983   .     S
O211   Zn215   2.002   .     S
O212   Zn216   2.002   .     S
O213   Zn215   1.973   .     S
O214   Zn216   1.973   .     S
O221   H222    0.990   .     S
O223   H224    0.990   .     S
O225   H226    0.990   .     S
O227   H228    0.990   .     S
C233   O268    1.277   .     A
C233   C258    1.405   .     S
C233   O265    1.277   .     A
C234   O267    1.277   .     A
C234   O266    1.277   .     A
C234   C257    1.405   .     S
C235   O272    1.294   .     A
C235   C253    1.449   .     S
C235   O269    1.283   .     A
C236   C254    1.449   .     S
C236   O271    1.294   .     A
C236   O270    1.283   .     A
C237   N264    1.366   .     A
C237   H259    1.082   .     S
C238   N263    1.366   .     A
C238   H260    1.082   .     S
C238   C413    1.416   .     S
C239   H261    1.082   .     S
C239   N264    1.366   .     A
C240   H262    1.082   .     S
C240   N263    1.366   .     A
C240   C411    1.416   .     S
C241   C258    1.400   .     A
C241   Cl287   1.772   .     S
C242   C257    1.400   .     A
C242   Cl288   1.772   .     S
C242   C302    1.381   .     S
C243   C257    1.400   .     A
C243   Cl289   1.771   .     S
C243   C299    1.381   .     S
C244   Cl290   1.771   .     S
C244   C258    1.400   .     A
C245   C249    1.397   .     A
C245   C255    1.404   .     A
C245   Cl275   1.773   .     S
C246   C250    1.397   .     A
C246   C256    1.404   .     A
C246   Cl276   1.773   .     S
C247   C251    1.400   .     A
C247   C256    1.408   .     A
C247   Cl277   1.773   .     S
C248   C255    1.408   .     A
C248   C252    1.400   .     A
C248   Cl278   1.773   .     S
C249   C253    1.411   .     A
C249   O279    1.383   .     S
C250   C254    1.411   .     A
C250   O281    1.383   .     S
C251   O283    1.383   .     S
C251   C254    1.406   .     A
C252   C253    1.406   .     A
C252   O285    1.383   .     S
C255   C778    1.489   1_554 S
C256   C777    1.489   .     S
N263   Zn273   2.008   .     S
N264   Zn274   2.008   .     S
O265   Zn273   1.983   .     S
O266   Zn274   1.983   .     S
O267   Zn273   1.983   .     S
O268   Zn274   1.983   .     S
O269   Zn273   2.002   .     S
O270   Zn274   2.002   .     S
O271   Zn273   1.973   .     S
O272   Zn274   1.973   .     S
O279   H280    0.990   .     S
O281   H282    0.990   .     S
O283   H284    0.990   .     S
O285   H286    0.990   .     S
C291   O326    1.277   .     A
C291   C316    1.405   .     S
C291   O323    1.277   .     A
C292   O325    1.277   .     A
C292   O324    1.277   .     A
C292   C315    1.405   .     S
C293   O330    1.294   .     A
C293   C311    1.449   .     S
C293   O327    1.283   .     A
C294   C312    1.449   .     S
C294   O329    1.294   .     A
C294   O328    1.283   .     A
C295   N322    1.366   .     A
C295   H317    1.082   .     S
C296   N321    1.366   .     A
C296   H318    1.082   .     S
C296   C471    1.416   .     S
C297   H319    1.082   .     S
C297   N322    1.366   .     A
C298   H320    1.082   .     S
C298   N321    1.366   .     A
C298   C469    1.416   .     S
C299   C316    1.400   .     A
C299   Cl345   1.772   .     S
C300   C315    1.400   .     A
C300   Cl346   1.772   .     S
C300   C186    1.381   1_655 S
C301   C315    1.400   .     A
C301   Cl347   1.771   .     S
C301   C183    1.381   1_655 S
C302   Cl348   1.771   .     S
C302   C316    1.400   .     A
C303   C307    1.397   .     A
C303   C313    1.404   .     A
C303   Cl333   1.773   .     S
C304   C308    1.397   .     A
C304   C314    1.404   .     A
C304   Cl334   1.773   .     S
C305   C309    1.400   .     A
C305   C314    1.408   .     A
C305   Cl335   1.773   .     S
C306   C313    1.408   .     A
C306   C310    1.400   .     A
C306   Cl336   1.773   .     S
C307   C311    1.411   .     A
C307   O337    1.383   .     S
C308   C312    1.411   .     A
C308   O339    1.383   .     S
C309   O341    1.383   .     S
C309   C312    1.406   .     A
C310   C311    1.406   .     A
C310   O343    1.383   .     S
C313   C836    1.489   1_554 S
C314   C835    1.489   .     S
N321   Zn331   2.008   .     S
N322   Zn332   2.008   .     S
O323   Zn331   1.983   .     S
O324   Zn332   1.983   .     S
O325   Zn331   1.983   .     S
O326   Zn332   1.983   .     S
O327   Zn331   2.002   .     S
O328   Zn332   2.002   .     S
O329   Zn331   1.973   .     S
O330   Zn332   1.973   .     S
O337   H338    0.990   .     S
O339   H340    0.990   .     S
O341   H342    0.990   .     S
O343   H344    0.990   .     S
C349   O384    1.277   .     A
C349   C374    1.405   .     S
C349   O381    1.277   .     A
C350   O383    1.277   .     A
C350   O382    1.277   .     A
C350   C373    1.405   .     S
C351   O388    1.294   .     A
C351   C369    1.449   .     S
C351   O385    1.283   .     A
C352   C370    1.449   .     S
C352   O387    1.294   .     A
C352   O386    1.283   .     A
C353   N380    1.366   .     A
C353   H375    1.082   .     S
C354   N379    1.366   .     A
C354   H376    1.082   .     S
C354   C7      1.416   1_565 S
C355   H377    1.082   .     S
C355   N380    1.366   .     A
C356   H378    1.082   .     S
C356   N379    1.366   .     A
C356   C5      1.416   1_565 S
C357   C374    1.400   .     A
C357   Cl403   1.772   .     S
C357   C475    1.381   1_455 S
C358   C373    1.400   .     A
C358   Cl404   1.772   .     S
C358   C418    1.381   .     S
C359   C373    1.400   .     A
C359   Cl405   1.771   .     S
C359   C415    1.381   .     S
C360   Cl406   1.771   .     S
C360   C374    1.400   .     A
C360   C474    1.381   1_455 S
C361   C365    1.397   .     A
C361   C371    1.404   .     A
C361   Cl391   1.773   .     S
C362   C366    1.397   .     A
C362   C372    1.404   .     A
C362   Cl392   1.773   .     S
C363   C367    1.400   .     A
C363   C372    1.408   .     A
C363   Cl393   1.773   .     S
C364   C371    1.408   .     A
C364   C368    1.400   .     A
C364   Cl394   1.773   .     S
C365   C369    1.411   .     A
C365   O395    1.383   .     S
C366   C370    1.411   .     A
C366   O397    1.383   .     S
C367   O399    1.383   .     S
C367   C370    1.406   .     A
C368   C369    1.406   .     A
C368   O401    1.383   .     S
C371   C894    1.489   1_554 S
C372   C893    1.489   .     S
N379   Zn389   2.008   .     S
N380   Zn390   2.008   .     S
O381   Zn389   1.983   .     S
O382   Zn390   1.983   .     S
O383   Zn389   1.983   .     S
O384   Zn390   1.983   .     S
O385   Zn389   2.002   .     S
O386   Zn390   2.002   .     S
O387   Zn389   1.973   .     S
O388   Zn390   1.973   .     S
O395   H396    0.990   .     S
O397   H398    0.990   .     S
O399   H400    0.990   .     S
O401   H402    0.990   .     S
C407   O442    1.277   .     A
C407   C432    1.405   .     S
C407   O439    1.277   .     A
C408   O441    1.277   .     A
C408   O440    1.277   .     A
C408   C431    1.405   .     S
C409   O446    1.294   .     A
C409   C427    1.449   .     S
C409   O443    1.283   .     A
C410   C428    1.449   .     S
C410   O445    1.294   .     A
C410   O444    1.283   .     A
C411   N438    1.366   .     A
C411   H433    1.082   .     S
C412   N437    1.366   .     A
C412   H434    1.082   .     S
C412   C65     1.416   1_565 S
C413   H435    1.082   .     S
C413   N438    1.366   .     A
C414   H436    1.082   .     S
C414   N437    1.366   .     A
C414   C63     1.416   1_565 S
C415   C432    1.400   .     A
C415   Cl461   1.772   .     S
C416   C431    1.400   .     A
C416   Cl462   1.772   .     S
C416   C476    1.381   .     S
C417   C431    1.400   .     A
C417   Cl463   1.771   .     S
C417   C473    1.381   .     S
C418   Cl464   1.771   .     S
C418   C432    1.400   .     A
C419   C423    1.397   .     A
C419   C429    1.404   .     A
C419   Cl449   1.773   .     S
C420   C424    1.397   .     A
C420   C430    1.404   .     A
C420   Cl450   1.773   .     S
C421   C425    1.400   .     A
C421   C430    1.408   .     A
C421   Cl451   1.773   .     S
C422   C429    1.408   .     A
C422   C426    1.400   .     A
C422   Cl452   1.773   .     S
C423   C427    1.411   .     A
C423   O453    1.383   .     S
C424   C428    1.411   .     A
C424   O455    1.383   .     S
C425   O457    1.383   .     S
C425   C428    1.406   .     A
C426   C427    1.406   .     A
C426   O459    1.383   .     S
C429   C952    1.489   1_554 S
C430   C951    1.489   .     S
N437   Zn447   2.008   .     S
N438   Zn448   2.008   .     S
O439   Zn447   1.983   .     S
O440   Zn448   1.983   .     S
O441   Zn447   1.983   .     S
O442   Zn448   1.983   .     S
O443   Zn447   2.002   .     S
O444   Zn448   2.002   .     S
O445   Zn447   1.973   .     S
O446   Zn448   1.973   .     S
O453   H454    0.990   .     S
O455   H456    0.990   .     S
O457   H458    0.990   .     S
O459   H460    0.990   .     S
C465   O500    1.277   .     A
C465   C490    1.405   .     S
C465   O497    1.277   .     A
C466   O499    1.277   .     A
C466   O498    1.277   .     A
C466   C489    1.405   .     S
C467   O504    1.294   .     A
C467   C485    1.449   .     S
C467   O501    1.283   .     A
C468   C486    1.449   .     S
C468   O503    1.294   .     A
C468   O502    1.283   .     A
C469   N496    1.366   .     A
C469   H491    1.082   .     S
C470   N495    1.366   .     A
C470   H492    1.082   .     S
C470   C123    1.416   1_565 S
C471   H493    1.082   .     S
C471   N496    1.366   .     A
C472   H494    1.082   .     S
C472   N495    1.366   .     A
C472   C121    1.416   1_565 S
C473   C490    1.400   .     A
C473   Cl519   1.772   .     S
C474   C489    1.400   .     A
C474   Cl520   1.772   .     S
C474   C360    1.381   1_655 S
C475   C489    1.400   .     A
C475   Cl521   1.771   .     S
C475   C357    1.381   1_655 S
C476   Cl522   1.771   .     S
C476   C490    1.400   .     A
C477   C481    1.397   .     A
C477   C487    1.404   .     A
C477   Cl507   1.773   .     S
C478   C482    1.397   .     A
C478   C488    1.404   .     A
C478   Cl508   1.773   .     S
C479   C483    1.400   .     A
C479   C488    1.408   .     A
C479   Cl509   1.773   .     S
C480   C487    1.408   .     A
C480   C484    1.400   .     A
C480   Cl510   1.773   .     S
C481   C485    1.411   .     A
C481   O511    1.383   .     S
C482   C486    1.411   .     A
C482   O513    1.383   .     S
C483   O515    1.383   .     S
C483   C486    1.406   .     A
C484   C485    1.406   .     A
C484   O517    1.383   .     S
C487   C1010   1.489   1_554 S
C488   C1009   1.489   .     S
N495   Zn505   2.008   .     S
N496   Zn506   2.008   .     S
O497   Zn505   1.983   .     S
O498   Zn506   1.983   .     S
O499   Zn505   1.983   .     S
O500   Zn506   1.983   .     S
O501   Zn505   2.002   .     S
O502   Zn506   2.002   .     S
O503   Zn505   1.973   .     S
O504   Zn506   1.973   .     S
O511   H512    0.990   .     S
O513   H514    0.990   .     S
O515   H516    0.990   .     S
O517   H518    0.990   .     S
C523   O558    1.277   .     A
C523   C548    1.405   .     S
C523   O555    1.277   .     A
C524   O557    1.277   .     A
C524   O556    1.277   .     A
C524   C547    1.405   .     S
C525   O562    1.294   .     A
C525   C543    1.449   .     S
C525   O559    1.283   .     A
C526   C544    1.449   .     S
C526   O561    1.294   .     A
C526   O560    1.283   .     A
C527   N554    1.366   .     A
C527   H549    1.082   .     S
C527   C878    1.416   1_545 S
C528   N553    1.366   .     A
C528   H550    1.082   .     S
C528   C703    1.416   .     S
C529   H551    1.082   .     S
C529   N554    1.366   .     A
C529   C876    1.416   1_545 S
C530   H552    1.082   .     S
C530   N553    1.366   .     A
C530   C701    1.416   .     S
C531   C548    1.400   .     A
C531   Cl577   1.772   .     S
C531   C649    1.381   1_455 S
C532   C547    1.400   .     A
C532   Cl578   1.772   .     S
C532   C592    1.381   .     S
C533   C547    1.400   .     A
C533   Cl579   1.771   .     S
C533   C589    1.381   .     S
C534   Cl580   1.771   .     S
C534   C548    1.400   .     A
C534   C648    1.381   1_455 S
C535   C539    1.397   .     A
C535   C545    1.404   .     A
C535   Cl565   1.773   .     S
C536   C540    1.397   .     A
C536   C546    1.404   .     A
C536   Cl566   1.773   .     S
C537   C541    1.400   .     A
C537   C546    1.408   .     A
C537   Cl567   1.773   .     S
C538   C545    1.408   .     A
C538   C542    1.400   .     A
C538   Cl568   1.773   .     S
C539   C543    1.411   .     A
C539   O569    1.383   .     S
C540   C544    1.411   .     A
C540   O571    1.383   .     S
C541   O573    1.383   .     S
C541   C544    1.406   .     A
C542   C543    1.406   .     A
C542   O575    1.383   .     S
C546   C23     1.489   1_556 S
N553   Zn563   2.008   .     S
N554   Zn564   2.008   .     S
O555   Zn563   1.983   .     S
O556   Zn564   1.983   .     S
O557   Zn563   1.983   .     S
O558   Zn564   1.983   .     S
O559   Zn563   2.002   .     S
O560   Zn564   2.002   .     S
O561   Zn563   1.973   .     S
O562   Zn564   1.973   .     S
O569   H570    0.990   .     S
O571   H572    0.990   .     S
O573   H574    0.990   .     S
O575   H576    0.990   .     S
C581   O616    1.277   .     A
C581   C606    1.405   .     S
C581   O613    1.277   .     A
C582   O615    1.277   .     A
C582   O614    1.277   .     A
C582   C605    1.405   .     S
C583   O620    1.294   .     A
C583   C601    1.449   .     S
C583   O617    1.283   .     A
C584   C602    1.449   .     S
C584   O619    1.294   .     A
C584   O618    1.283   .     A
C585   N612    1.366   .     A
C585   H607    1.082   .     S
C585   C936    1.416   1_545 S
C586   N611    1.366   .     A
C586   H608    1.082   .     S
C586   C761    1.416   .     S
C587   H609    1.082   .     S
C587   N612    1.366   .     A
C587   C934    1.416   1_545 S
C588   H610    1.082   .     S
C588   N611    1.366   .     A
C588   C759    1.416   .     S
C589   C606    1.400   .     A
C589   Cl635   1.772   .     S
C590   C605    1.400   .     A
C590   Cl636   1.772   .     S
C590   C650    1.381   .     S
C591   C605    1.400   .     A
C591   Cl637   1.771   .     S
C591   C647    1.381   .     S
C592   Cl638   1.771   .     S
C592   C606    1.400   .     A
C593   C597    1.397   .     A
C593   C603    1.404   .     A
C593   Cl623   1.773   .     S
C594   C598    1.397   .     A
C594   C604    1.404   .     A
C594   Cl624   1.773   .     S
C595   C599    1.400   .     A
C595   C604    1.408   .     A
C595   Cl625   1.773   .     S
C596   C603    1.408   .     A
C596   C600    1.400   .     A
C596   Cl626   1.773   .     S
C597   C601    1.411   .     A
C597   O627    1.383   .     S
C598   C602    1.411   .     A
C598   O629    1.383   .     S
C599   O631    1.383   .     S
C599   C602    1.406   .     A
C600   C601    1.406   .     A
C600   O633    1.383   .     S
C604   C81     1.489   1_556 S
N611   Zn621   2.008   .     S
N612   Zn622   2.008   .     S
O613   Zn621   1.983   .     S
O614   Zn622   1.983   .     S
O615   Zn621   1.983   .     S
O616   Zn622   1.983   .     S
O617   Zn621   2.002   .     S
O618   Zn622   2.002   .     S
O619   Zn621   1.973   .     S
O620   Zn622   1.973   .     S
O627   H628    0.990   .     S
O629   H630    0.990   .     S
O631   H632    0.990   .     S
O633   H634    0.990   .     S
C639   O674    1.277   .     A
C639   C664    1.405   .     S
C639   O671    1.277   .     A
C640   O673    1.277   .     A
C640   O672    1.277   .     A
C640   C663    1.405   .     S
C641   O678    1.294   .     A
C641   C659    1.449   .     S
C641   O675    1.283   .     A
C642   C660    1.449   .     S
C642   O677    1.294   .     A
C642   O676    1.283   .     A
C643   N670    1.366   .     A
C643   H665    1.082   .     S
C643   C994    1.416   1_545 S
C644   N669    1.366   .     A
C644   H666    1.082   .     S
C644   C819    1.416   .     S
C645   H667    1.082   .     S
C645   N670    1.366   .     A
C645   C992    1.416   1_545 S
C646   H668    1.082   .     S
C646   N669    1.366   .     A
C646   C817    1.416   .     S
C647   C664    1.400   .     A
C647   Cl693   1.772   .     S
C648   C663    1.400   .     A
C648   Cl694   1.772   .     S
C648   C534    1.381   1_655 S
C649   C663    1.400   .     A
C649   Cl695   1.771   .     S
C649   C531    1.381   1_655 S
C650   Cl696   1.771   .     S
C650   C664    1.400   .     A
C651   C655    1.397   .     A
C651   C661    1.404   .     A
C651   Cl681   1.773   .     S
C652   C656    1.397   .     A
C652   C662    1.404   .     A
C652   Cl682   1.773   .     S
C653   C657    1.400   .     A
C653   C662    1.408   .     A
C653   Cl683   1.773   .     S
C654   C661    1.408   .     A
C654   C658    1.400   .     A
C654   Cl684   1.773   .     S
C655   C659    1.411   .     A
C655   O685    1.383   .     S
C656   C660    1.411   .     A
C656   O687    1.383   .     S
C657   O689    1.383   .     S
C657   C660    1.406   .     A
C658   C659    1.406   .     A
C658   O691    1.383   .     S
C662   C139    1.489   1_556 S
N669   Zn679   2.008   .     S
N670   Zn680   2.008   .     S
O671   Zn679   1.983   .     S
O672   Zn680   1.983   .     S
O673   Zn679   1.983   .     S
O674   Zn680   1.983   .     S
O675   Zn679   2.002   .     S
O676   Zn680   2.002   .     S
O677   Zn679   1.973   .     S
O678   Zn680   1.973   .     S
O685   H686    0.990   .     S
O687   H688    0.990   .     S
O689   H690    0.990   .     S
O691   H692    0.990   .     S
C697   O732    1.277   .     A
C697   C722    1.405   .     S
C697   O729    1.277   .     A
C698   O731    1.277   .     A
C698   O730    1.277   .     A
C698   C721    1.405   .     S
C699   O736    1.294   .     A
C699   C717    1.449   .     S
C699   O733    1.283   .     A
C700   C718    1.449   .     S
C700   O735    1.294   .     A
C700   O734    1.283   .     A
C701   N728    1.366   .     A
C701   H723    1.082   .     S
C702   N727    1.366   .     A
C702   H724    1.082   .     S
C702   C877    1.416   .     S
C703   H725    1.082   .     S
C703   N728    1.366   .     A
C704   H726    1.082   .     S
C704   N727    1.366   .     A
C704   C875    1.416   .     S
C705   C722    1.400   .     A
C705   Cl751   1.772   .     S
C705   C823    1.381   1_455 S
C706   C721    1.400   .     A
C706   Cl752   1.772   .     S
C706   C766    1.381   .     S
C707   C721    1.400   .     A
C707   Cl753   1.771   .     S
C707   C763    1.381   .     S
C708   Cl754   1.771   .     S
C708   C722    1.400   .     A
C708   C822    1.381   1_455 S
C709   C713    1.397   .     A
C709   C719    1.404   .     A
C709   Cl739   1.773   .     S
C710   C714    1.397   .     A
C710   C720    1.404   .     A
C710   Cl740   1.773   .     S
C711   C715    1.400   .     A
C711   C720    1.408   .     A
C711   Cl741   1.773   .     S
C712   C719    1.408   .     A
C712   C716    1.400   .     A
C712   Cl742   1.773   .     S
C713   C717    1.411   .     A
C713   O743    1.383   .     S
C714   C718    1.411   .     A
C714   O745    1.383   .     S
C715   O747    1.383   .     S
C715   C718    1.406   .     A
C716   C717    1.406   .     A
C716   O749    1.383   .     S
C720   C197    1.489   1_556 S
N727   Zn737   2.008   .     S
N728   Zn738   2.008   .     S
O729   Zn737   1.983   .     S
O730   Zn738   1.983   .     S
O731   Zn737   1.983   .     S
O732   Zn738   1.983   .     S
O733   Zn737   2.002   .     S
O734   Zn738   2.002   .     S
O735   Zn737   1.973   .     S
O736   Zn738   1.973   .     S
O743   H744    0.990   .     S
O745   H746    0.990   .     S
O747   H748    0.990   .     S
O749   H750    0.990   .     S
C755   O790    1.277   .     A
C755   C780    1.405   .     S
C755   O787    1.277   .     A
C756   O789    1.277   .     A
C756   O788    1.277   .     A
C756   C779    1.405   .     S
C757   O794    1.294   .     A
C757   C775    1.449   .     S
C757   O791    1.283   .     A
C758   C776    1.449   .     S
C758   O793    1.294   .     A
C758   O792    1.283   .     A
C759   N786    1.366   .     A
C759   H781    1.082   .     S
C760   N785    1.366   .     A
C760   H782    1.082   .     S
C760   C935    1.416   .     S
C761   H783    1.082   .     S
C761   N786    1.366   .     A
C762   H784    1.082   .     S
C762   N785    1.366   .     A
C762   C933    1.416   .     S
C763   C780    1.400   .     A
C763   Cl809   1.772   .     S
C764   C779    1.400   .     A
C764   Cl810   1.772   .     S
C764   C824    1.381   .     S
C765   C779    1.400   .     A
C765   Cl811   1.771   .     S
C765   C821    1.381   .     S
C766   Cl812   1.771   .     S
C766   C780    1.400   .     A
C767   C771    1.397   .     A
C767   C777    1.404   .     A
C767   Cl797   1.773   .     S
C768   C772    1.397   .     A
C768   C778    1.404   .     A
C768   Cl798   1.773   .     S
C769   C773    1.400   .     A
C769   C778    1.408   .     A
C769   Cl799   1.773   .     S
C770   C777    1.408   .     A
C770   C774    1.400   .     A
C770   Cl800   1.773   .     S
C771   C775    1.411   .     A
C771   O801    1.383   .     S
C772   C776    1.411   .     A
C772   O803    1.383   .     S
C773   O805    1.383   .     S
C773   C776    1.406   .     A
C774   C775    1.406   .     A
C774   O807    1.383   .     S
C778   C255    1.489   1_556 S
N785   Zn795   2.008   .     S
N786   Zn796   2.008   .     S
O787   Zn795   1.983   .     S
O788   Zn796   1.983   .     S
O789   Zn795   1.983   .     S
O790   Zn796   1.983   .     S
O791   Zn795   2.002   .     S
O792   Zn796   2.002   .     S
O793   Zn795   1.973   .     S
O794   Zn796   1.973   .     S
O801   H802    0.990   .     S
O803   H804    0.990   .     S
O805   H806    0.990   .     S
O807   H808    0.990   .     S
C813   O848    1.277   .     A
C813   C838    1.405   .     S
C813   O845    1.277   .     A
C814   O847    1.277   .     A
C814   O846    1.277   .     A
C814   C837    1.405   .     S
C815   O852    1.294   .     A
C815   C833    1.449   .     S
C815   O849    1.283   .     A
C816   C834    1.449   .     S
C816   O851    1.294   .     A
C816   O850    1.283   .     A
C817   N844    1.366   .     A
C817   H839    1.082   .     S
C818   N843    1.366   .     A
C818   H840    1.082   .     S
C818   C993    1.416   .     S
C819   H841    1.082   .     S
C819   N844    1.366   .     A
C820   H842    1.082   .     S
C820   N843    1.366   .     A
C820   C991    1.416   .     S
C821   C838    1.400   .     A
C821   Cl867   1.772   .     S
C822   C837    1.400   .     A
C822   Cl868   1.772   .     S
C822   C708    1.381   1_655 S
C823   C837    1.400   .     A
C823   Cl869   1.771   .     S
C823   C705    1.381   1_655 S
C824   Cl870   1.771   .     S
C824   C838    1.400   .     A
C825   C829    1.397   .     A
C825   C835    1.404   .     A
C825   Cl855   1.773   .     S
C826   C830    1.397   .     A
C826   C836    1.404   .     A
C826   Cl856   1.773   .     S
C827   C831    1.400   .     A
C827   C836    1.408   .     A
C827   Cl857   1.773   .     S
C828   C835    1.408   .     A
C828   C832    1.400   .     A
C828   Cl858   1.773   .     S
C829   C833    1.411   .     A
C829   O859    1.383   .     S
C830   C834    1.411   .     A
C830   O861    1.383   .     S
C831   O863    1.383   .     S
C831   C834    1.406   .     A
C832   C833    1.406   .     A
C832   O865    1.383   .     S
C836   C313    1.489   1_556 S
N843   Zn853   2.008   .     S
N844   Zn854   2.008   .     S
O845   Zn853   1.983   .     S
O846   Zn854   1.983   .     S
O847   Zn853   1.983   .     S
O848   Zn854   1.983   .     S
O849   Zn853   2.002   .     S
O850   Zn854   2.002   .     S
O851   Zn853   1.973   .     S
O852   Zn854   1.973   .     S
O859   H860    0.990   .     S
O861   H862    0.990   .     S
O863   H864    0.990   .     S
O865   H866    0.990   .     S
C871   O906    1.277   .     A
C871   C896    1.405   .     S
C871   O903    1.277   .     A
C872   O905    1.277   .     A
C872   O904    1.277   .     A
C872   C895    1.405   .     S
C873   O910    1.294   .     A
C873   C891    1.449   .     S
C873   O907    1.283   .     A
C874   C892    1.449   .     S
C874   O909    1.294   .     A
C874   O908    1.283   .     A
C875   N902    1.366   .     A
C875   H897    1.082   .     S
C876   N901    1.366   .     A
C876   H898    1.082   .     S
C876   C529    1.416   1_565 S
C877   H899    1.082   .     S
C877   N902    1.366   .     A
C878   H900    1.082   .     S
C878   N901    1.366   .     A
C878   C527    1.416   1_565 S
C879   C896    1.400   .     A
C879   Cl925   1.772   .     S
C879   C997    1.381   1_455 S
C880   C895    1.400   .     A
C880   Cl926   1.772   .     S
C880   C940    1.381   .     S
C881   C895    1.400   .     A
C881   Cl927   1.771   .     S
C881   C937    1.381   .     S
C882   Cl928   1.771   .     S
C882   C896    1.400   .     A
C882   C996    1.381   1_455 S
C883   C887    1.397   .     A
C883   C893    1.404   .     A
C883   Cl913   1.773   .     S
C884   C888    1.397   .     A
C884   C894    1.404   .     A
C884   Cl914   1.773   .     S
C885   C889    1.400   .     A
C885   C894    1.408   .     A
C885   Cl915   1.773   .     S
C886   C893    1.408   .     A
C886   C890    1.400   .     A
C886   Cl916   1.773   .     S
C887   C891    1.411   .     A
C887   O917    1.383   .     S
C888   C892    1.411   .     A
C888   O919    1.383   .     S
C889   O921    1.383   .     S
C889   C892    1.406   .     A
C890   C891    1.406   .     A
C890   O923    1.383   .     S
C894   C371    1.489   1_556 S
N901   Zn911   2.008   .     S
N902   Zn912   2.008   .     S
O903   Zn911   1.983   .     S
O904   Zn912   1.983   .     S
O905   Zn911   1.983   .     S
O906   Zn912   1.983   .     S
O907   Zn911   2.002   .     S
O908   Zn912   2.002   .     S
O909   Zn911   1.973   .     S
O910   Zn912   1.973   .     S
O917   H918    0.990   .     S
O919   H920    0.990   .     S
O921   H922    0.990   .     S
O923   H924    0.990   .     S
C929   O964    1.277   .     A
C929   C954    1.405   .     S
C929   O961    1.277   .     A
C930   O963    1.277   .     A
C930   O962    1.277   .     A
C930   C953    1.405   .     S
C931   O968    1.294   .     A
C931   C949    1.449   .     S
C931   O965    1.283   .     A
C932   C950    1.449   .     S
C932   O967    1.294   .     A
C932   O966    1.283   .     A
C933   N960    1.366   .     A
C933   H955    1.082   .     S
C934   N959    1.366   .     A
C934   H956    1.082   .     S
C934   C587    1.416   1_565 S
C935   H957    1.082   .     S
C935   N960    1.366   .     A
C936   H958    1.082   .     S
C936   N959    1.366   .     A
C936   C585    1.416   1_565 S
C937   C954    1.400   .     A
C937   Cl983   1.772   .     S
C938   C953    1.400   .     A
C938   Cl984   1.772   .     S
C938   C998    1.381   .     S
C939   C953    1.400   .     A
C939   Cl985   1.771   .     S
C939   C995    1.381   .     S
C940   Cl986   1.771   .     S
C940   C954    1.400   .     A
C941   C945    1.397   .     A
C941   C951    1.404   .     A
C941   Cl971   1.773   .     S
C942   C946    1.397   .     A
C942   C952    1.404   .     A
C942   Cl972   1.773   .     S
C943   C947    1.400   .     A
C943   C952    1.408   .     A
C943   Cl973   1.773   .     S
C944   C951    1.408   .     A
C944   C948    1.400   .     A
C944   Cl974   1.773   .     S
C945   C949    1.411   .     A
C945   O975    1.383   .     S
C946   C950    1.411   .     A
C946   O977    1.383   .     S
C947   O979    1.383   .     S
C947   C950    1.406   .     A
C948   C949    1.406   .     A
C948   O981    1.383   .     S
C952   C429    1.489   1_556 S
N959   Zn969   2.008   .     S
N960   Zn970   2.008   .     S
O961   Zn969   1.983   .     S
O962   Zn970   1.983   .     S
O963   Zn969   1.983   .     S
O964   Zn970   1.983   .     S
O965   Zn969   2.002   .     S
O966   Zn970   2.002   .     S
O967   Zn969   1.973   .     S
O968   Zn970   1.973   .     S
O975   H976    0.990   .     S
O977   H978    0.990   .     S
O979   H980    0.990   .     S
O981   H982    0.990   .     S
C987   O1022   1.277   .     A
C987   C1012   1.405   .     S
C987   O1019   1.277   .     A
C988   O1021   1.277   .     A
C988   O1020   1.277   .     A
C988   C1011   1.405   .     S
C989   O1026   1.294   .     A
C989   C1007   1.449   .     S
C989   O1023   1.283   .     A
C990   C1008   1.449   .     S
C990   O1025   1.294   .     A
C990   O1024   1.283   .     A
C991   N1018   1.366   .     A
C991   H1013   1.082   .     S
C992   N1017   1.366   .     A
C992   H1014   1.082   .     S
C992   C645    1.416   1_565 S
C993   H1015   1.082   .     S
C993   N1018   1.366   .     A
C994   H1016   1.082   .     S
C994   N1017   1.366   .     A
C994   C643    1.416   1_565 S
C995   C1012   1.400   .     A
C995   Cl1041  1.772   .     S
C996   C1011   1.400   .     A
C996   Cl1042  1.772   .     S
C996   C882    1.381   1_655 S
C997   C1011   1.400   .     A
C997   Cl1043  1.771   .     S
C997   C879    1.381   1_655 S
C998   Cl1044  1.771   .     S
C998   C1012   1.400   .     A
C999   C1003   1.397   .     A
C999   C1009   1.404   .     A
C999   Cl1029  1.773   .     S
C1000  C1004   1.397   .     A
C1000  C1010   1.404   .     A
C1000  Cl1030  1.773   .     S
C1001  C1005   1.400   .     A
C1001  C1010   1.408   .     A
C1001  Cl1031  1.773   .     S
C1002  C1009   1.408   .     A
C1002  C1006   1.400   .     A
C1002  Cl1032  1.773   .     S
C1003  C1007   1.411   .     A
C1003  O1033   1.383   .     S
C1004  C1008   1.411   .     A
C1004  O1035   1.383   .     S
C1005  O1037   1.383   .     S
C1005  C1008   1.406   .     A
C1006  C1007   1.406   .     A
C1006  O1039   1.383   .     S
C1010  C487    1.489   1_556 S
N1017  Zn1027  2.008   .     S
N1018  Zn1028  2.008   .     S
O1019  Zn1027  1.983   .     S
O1020  Zn1028  1.983   .     S
O1021  Zn1027  1.983   .     S
O1022  Zn1028  1.983   .     S
O1023  Zn1027  2.002   .     S
O1024  Zn1028  2.002   .     S
O1025  Zn1027  1.973   .     S
O1026  Zn1028  1.973   .     S
O1033  H1034   0.990   .     S
O1035  H1036   0.990   .     S
O1037  H1038   0.990   .     S
O1039  H1040   0.990   .     S
