data_str_m3_o1_o16_pcu_sym.50
_audit_creation_date              2020-01-03
_audit_creation_method            'Materials Studio'
_symmetry_space_group_name_H-M    'P1'
_symmetry_Int_Tables_number       1
_symmetry_cell_setting            triclinic
loop_
_symmetry_equiv_pos_as_xyz
  x,y,z
_cell_length_a                    29.6815
_cell_length_b                    31.9617
_cell_length_c                    26.1337
_cell_angle_alpha                 90.9559
_cell_angle_beta                  69.8228
_cell_angle_gamma                 90.7672
loop_
_atom_site_label
_atom_site_type_symbol
_atom_site_fract_x
_atom_site_fract_y
_atom_site_fract_z
_atom_site_U_iso_or_equiv
_atom_site_adp_type
_atom_site_occupancy
C1     C     0.16633   0.24657   0.25206   0.00000  Uiso   1.00
C2     C     0.12180   0.15984   0.41147   0.00000  Uiso   1.00
C3     C     0.20700   0.31181   0.22280   0.00000  Uiso   1.00
C4     C     0.13981   0.16470   0.35222   0.00000  Uiso   1.00
C5     C     0.20689   0.02126   0.22115   0.00000  Uiso   1.00
C6     C     0.16555   0.04262   0.25173   0.00000  Uiso   1.00
C7     C     0.12455   0.02194   0.28543   0.00000  Uiso   1.00
C8     C     0.12481   0.31233   0.28888   0.00000  Uiso   1.00
C9     C     0.16599   0.29077   0.25558   0.00000  Uiso   1.00
C10    C     0.31927   0.14094   0.21498   0.00000  Uiso   1.00
C11    C     0.03424   0.14117   0.21503   0.00000  Uiso   1.00
C12    C     0.14337   0.15516   0.49229   0.00000  Uiso   1.00
C13    C     0.01411   0.19145   0.28535   0.00000  Uiso   1.00
C14    C     0.29990   0.19193   0.28558   0.00000  Uiso   1.00
C15    C     0.16636   0.08674   0.25010   0.00000  Uiso   1.00
C16    C     0.19346   0.16642   0.14763   0.00000  Uiso   1.00
C17    C     0.25783   0.12138   0.00857   0.00000  Uiso   1.00
C18    C     0.20996   0.16006   0.08873   0.00000  Uiso   1.00
C19    C     0.07666   0.17604   0.44285   0.00000  Uiso   1.00
C20    C     0.06351   0.17852   0.49920   0.00000  Uiso   1.00
C21    C     0.09678   0.16907   0.02385   0.00000  Uiso   1.00
C22    C     0.15227   0.14379   0.43763   0.00000  Uiso   1.00
C23    C     0.18062   0.15080   0.01374   0.00000  Uiso   1.00
C24    C     0.22219   0.12718   0.48479   0.00000  Uiso   1.00
C25    C     0.22696   0.10969   0.43337   0.00000  Uiso   1.00
C26    C     0.19037   0.11611   0.41117   0.00000  Uiso   1.00
C27    C     0.17849   0.17096   0.06243   0.00000  Uiso   1.00
C28    C     0.25072   0.13642   0.06112   0.00000  Uiso   1.00
F29    F     0.28267   0.12640   0.08550   0.00000  Uiso   1.00
F30    F     0.08545   0.04356   0.31708   0.00000  Uiso   1.00
F31    F     0.06755   0.11569   0.18038   0.00000  Uiso   1.00
F32    F     0.29823   0.09917   0.48286   0.00000  Uiso   1.00
F33    F     0.14690   0.20236   0.08445   0.00000  Uiso   1.00
F34    F     0.04568   0.19020   0.41921   0.00000  Uiso   1.00
H35    H     0.23857   0.03766   0.19528   0.00000  Uiso   1.00
H36    H     0.20600   0.06640   0.36424   0.00000  Uiso   1.00
H37    H     0.02433   0.21136   0.31352   0.00000  Uiso   1.00
H38    H     0.08478   0.17134   0.06778   0.00000  Uiso   1.00
H39    H     0.02820   0.18957   0.02370   0.00000  Uiso   1.00
H40    H     0.23857   0.29509   0.19746   0.00000  Uiso   1.00
H41    H     0.09480   0.26592   0.33612   0.00000  Uiso   1.00
H42    H     0.33282   0.09829   0.15783   0.00000  Uiso   1.00
H43    H     0.23996   0.22139   0.31427   0.00000  Uiso   1.00
H44    H     0.27413   0.09012   0.36540   0.00000  Uiso   1.00
N45    N     0.04760   0.16668   0.25002   0.00000  Uiso   1.00
N46    N     0.28573   0.16665   0.25000   0.00000  Uiso   1.00
O47    O     0.12846   0.22775   0.25001   0.00000  Uiso   1.00
O48    O     0.30509   0.11504   0.18056   0.00000  Uiso   1.00
O49    O     0.26913   0.21843   0.32314   0.00000  Uiso   1.00
O50    O     0.26780   0.08744   0.40501   0.00000  Uiso   1.00
O51    O     0.18839   0.09291   0.36684   0.00000  Uiso   1.00
O52    O     0.20490   0.22774   0.25000   0.00000  Uiso   1.00
O53    O     0.10947   0.16666   0.32681   0.00000  Uiso   1.00
O54    O     0.18591   0.16665   0.32681   0.00000  Uiso   1.00
O55    O     0.12843   0.10559   0.24999   0.00000  Uiso   1.00
O56    O     0.20488   0.10558   0.24999   0.00000  Uiso   1.00
O57    O     0.14742   0.16668   0.17319   0.00000  Uiso   1.00
O58    O     0.22387   0.16667   0.17319   0.00000  Uiso   1.00
O59    O     0.08506   0.29296   0.32540   0.00000  Uiso   1.00
Zn60   Zn    0.11562   0.16667   0.25000   0.00000  Uiso   1.00
Zn61   Zn    0.21771   0.16666   0.25000   0.00000  Uiso   1.00
C62    C     0.49966   0.24657   0.25206   0.00000  Uiso   1.00
C63    C     0.45514   0.15984   0.41147   0.00000  Uiso   1.00
C64    C     0.54034   0.31181   0.22280   0.00000  Uiso   1.00
C65    C     0.47314   0.16470   0.35222   0.00000  Uiso   1.00
C66    C     0.54023   0.02126   0.22115   0.00000  Uiso   1.00
C67    C     0.49888   0.04262   0.25173   0.00000  Uiso   1.00
C68    C     0.45789   0.02194   0.28543   0.00000  Uiso   1.00
C69    C     0.45814   0.31233   0.28888   0.00000  Uiso   1.00
C70    C     0.49932   0.29077   0.25558   0.00000  Uiso   1.00
C71    C     0.65260   0.14094   0.21498   0.00000  Uiso   1.00
C72    C     0.36757   0.14117   0.21503   0.00000  Uiso   1.00
C73    C     0.47670   0.15516   0.49229   0.00000  Uiso   1.00
C74    C     0.34744   0.19145   0.28535   0.00000  Uiso   1.00
C75    C     0.63323   0.19193   0.28558   0.00000  Uiso   1.00
C76    C     0.49970   0.08674   0.25010   0.00000  Uiso   1.00
C77    C     0.52680   0.16642   0.14763   0.00000  Uiso   1.00
C78    C     0.59117   0.12138   0.00857   0.00000  Uiso   1.00
C79    C     0.54329   0.16006   0.08873   0.00000  Uiso   1.00
C80    C     0.40999   0.17604   0.44285   0.00000  Uiso   1.00
C81    C     0.39685   0.17852   0.49920   0.00000  Uiso   1.00
C82    C     0.43011   0.16907   0.02385   0.00000  Uiso   1.00
C83    C     0.48560   0.14379   0.43763   0.00000  Uiso   1.00
C84    C     0.51395   0.15080   0.01374   0.00000  Uiso   1.00
C85    C     0.55553   0.12718   0.48479   0.00000  Uiso   1.00
C86    C     0.56029   0.10969   0.43337   0.00000  Uiso   1.00
C87    C     0.52371   0.11611   0.41117   0.00000  Uiso   1.00
C88    C     0.51183   0.17096   0.06243   0.00000  Uiso   1.00
C89    C     0.58406   0.13642   0.06112   0.00000  Uiso   1.00
F90    F     0.61600   0.12640   0.08550   0.00000  Uiso   1.00
F91    F     0.41878   0.04356   0.31708   0.00000  Uiso   1.00
F92    F     0.40088   0.11569   0.18038   0.00000  Uiso   1.00
F93    F     0.63156   0.09917   0.48286   0.00000  Uiso   1.00
F94    F     0.48023   0.20236   0.08445   0.00000  Uiso   1.00
F95    F     0.37902   0.19020   0.41921   0.00000  Uiso   1.00
H96    H     0.57190   0.03766   0.19528   0.00000  Uiso   1.00
H97    H     0.53933   0.06640   0.36424   0.00000  Uiso   1.00
H98    H     0.35766   0.21136   0.31352   0.00000  Uiso   1.00
H99    H     0.41811   0.17134   0.06778   0.00000  Uiso   1.00
H100   H     0.36154   0.18957   0.02370   0.00000  Uiso   1.00
H101   H     0.57191   0.29509   0.19746   0.00000  Uiso   1.00
H102   H     0.42813   0.26592   0.33612   0.00000  Uiso   1.00
H103   H     0.66616   0.09829   0.15783   0.00000  Uiso   1.00
H104   H     0.57329   0.22139   0.31427   0.00000  Uiso   1.00
H105   H     0.60746   0.09012   0.36540   0.00000  Uiso   1.00
N106   N     0.38093   0.16668   0.25002   0.00000  Uiso   1.00
N107   N     0.61906   0.16665   0.25000   0.00000  Uiso   1.00
O108   O     0.46179   0.22775   0.25001   0.00000  Uiso   1.00
O109   O     0.63843   0.11504   0.18056   0.00000  Uiso   1.00
O110   O     0.60247   0.21843   0.32314   0.00000  Uiso   1.00
O111   O     0.60113   0.08744   0.40501   0.00000  Uiso   1.00
O112   O     0.52173   0.09291   0.36684   0.00000  Uiso   1.00
O113   O     0.53823   0.22774   0.25000   0.00000  Uiso   1.00
O114   O     0.44280   0.16666   0.32681   0.00000  Uiso   1.00
O115   O     0.51924   0.16665   0.32681   0.00000  Uiso   1.00
O116   O     0.46177   0.10559   0.24999   0.00000  Uiso   1.00
O117   O     0.53821   0.10558   0.24999   0.00000  Uiso   1.00
O118   O     0.48076   0.16668   0.17319   0.00000  Uiso   1.00
O119   O     0.55720   0.16667   0.17319   0.00000  Uiso   1.00
O120   O     0.41840   0.29296   0.32540   0.00000  Uiso   1.00
Zn121  Zn    0.44896   0.16667   0.25000   0.00000  Uiso   1.00
Zn122  Zn    0.55104   0.16666   0.25000   0.00000  Uiso   1.00
C123   C     0.83299   0.24657   0.25206   0.00000  Uiso   1.00
C124   C     0.78847   0.15984   0.41147   0.00000  Uiso   1.00
C125   C     0.87367   0.31181   0.22280   0.00000  Uiso   1.00
C126   C     0.80647   0.16470   0.35222   0.00000  Uiso   1.00
C127   C     0.87356   0.02126   0.22115   0.00000  Uiso   1.00
C128   C     0.83221   0.04262   0.25173   0.00000  Uiso   1.00
C129   C     0.79122   0.02194   0.28543   0.00000  Uiso   1.00
C130   C     0.79147   0.31233   0.28888   0.00000  Uiso   1.00
C131   C     0.83265   0.29077   0.25558   0.00000  Uiso   1.00
C132   C     0.98594   0.14094   0.21498   0.00000  Uiso   1.00
C133   C     0.70091   0.14117   0.21503   0.00000  Uiso   1.00
C134   C     0.81004   0.15516   0.49229   0.00000  Uiso   1.00
C135   C     0.68078   0.19145   0.28535   0.00000  Uiso   1.00
C136   C     0.96657   0.19193   0.28558   0.00000  Uiso   1.00
C137   C     0.83303   0.08674   0.25010   0.00000  Uiso   1.00
C138   C     0.86013   0.16642   0.14763   0.00000  Uiso   1.00
C139   C     0.92450   0.12138   0.00857   0.00000  Uiso   1.00
C140   C     0.87663   0.16006   0.08873   0.00000  Uiso   1.00
C141   C     0.74333   0.17604   0.44285   0.00000  Uiso   1.00
C142   C     0.73018   0.17852   0.49920   0.00000  Uiso   1.00
C143   C     0.76344   0.16907   0.02385   0.00000  Uiso   1.00
C144   C     0.81893   0.14379   0.43763   0.00000  Uiso   1.00
C145   C     0.84728   0.15080   0.01374   0.00000  Uiso   1.00
C146   C     0.88886   0.12718   0.48479   0.00000  Uiso   1.00
C147   C     0.89363   0.10969   0.43337   0.00000  Uiso   1.00
C148   C     0.85704   0.11611   0.41117   0.00000  Uiso   1.00
C149   C     0.84516   0.17096   0.06243   0.00000  Uiso   1.00
C150   C     0.91739   0.13642   0.06112   0.00000  Uiso   1.00
F151   F     0.94934   0.12640   0.08550   0.00000  Uiso   1.00
F152   F     0.75211   0.04356   0.31708   0.00000  Uiso   1.00
F153   F     0.73422   0.11569   0.18038   0.00000  Uiso   1.00
F154   F     0.96489   0.09917   0.48286   0.00000  Uiso   1.00
F155   F     0.81357   0.20236   0.08445   0.00000  Uiso   1.00
F156   F     0.71235   0.19020   0.41921   0.00000  Uiso   1.00
H157   H     0.90523   0.03766   0.19528   0.00000  Uiso   1.00
H158   H     0.87266   0.06640   0.36424   0.00000  Uiso   1.00
H159   H     0.69099   0.21136   0.31352   0.00000  Uiso   1.00
H160   H     0.75145   0.17134   0.06778   0.00000  Uiso   1.00
H161   H     0.69487   0.18957   0.02370   0.00000  Uiso   1.00
H162   H     0.90524   0.29509   0.19746   0.00000  Uiso   1.00
H163   H     0.76146   0.26592   0.33612   0.00000  Uiso   1.00
H164   H     0.99949   0.09829   0.15783   0.00000  Uiso   1.00
H165   H     0.90663   0.22139   0.31427   0.00000  Uiso   1.00
H166   H     0.94079   0.09012   0.36540   0.00000  Uiso   1.00
N167   N     0.71426   0.16668   0.25002   0.00000  Uiso   1.00
N168   N     0.95239   0.16665   0.25000   0.00000  Uiso   1.00
O169   O     0.79512   0.22775   0.25001   0.00000  Uiso   1.00
O170   O     0.97176   0.11504   0.18056   0.00000  Uiso   1.00
O171   O     0.93580   0.21843   0.32314   0.00000  Uiso   1.00
O172   O     0.93446   0.08744   0.40501   0.00000  Uiso   1.00
O173   O     0.85506   0.09291   0.36684   0.00000  Uiso   1.00
O174   O     0.87157   0.22774   0.25000   0.00000  Uiso   1.00
O175   O     0.77613   0.16666   0.32681   0.00000  Uiso   1.00
O176   O     0.85258   0.16665   0.32681   0.00000  Uiso   1.00
O177   O     0.79510   0.10559   0.24999   0.00000  Uiso   1.00
O178   O     0.87154   0.10558   0.24999   0.00000  Uiso   1.00
O179   O     0.81409   0.16668   0.17319   0.00000  Uiso   1.00
O180   O     0.89053   0.16667   0.17319   0.00000  Uiso   1.00
O181   O     0.75173   0.29296   0.32540   0.00000  Uiso   1.00
Zn182  Zn    0.78229   0.16667   0.25000   0.00000  Uiso   1.00
Zn183  Zn    0.88438   0.16666   0.25000   0.00000  Uiso   1.00
C184   C     0.16633   0.57990   0.25206   0.00000  Uiso   1.00
C185   C     0.12180   0.49318   0.41147   0.00000  Uiso   1.00
C186   C     0.20700   0.64515   0.22280   0.00000  Uiso   1.00
C187   C     0.13981   0.49803   0.35222   0.00000  Uiso   1.00
C188   C     0.20689   0.35460   0.22115   0.00000  Uiso   1.00
C189   C     0.16555   0.37595   0.25173   0.00000  Uiso   1.00
C190   C     0.12455   0.35528   0.28543   0.00000  Uiso   1.00
C191   C     0.12481   0.64566   0.28888   0.00000  Uiso   1.00
C192   C     0.16599   0.62410   0.25558   0.00000  Uiso   1.00
C193   C     0.31927   0.47427   0.21498   0.00000  Uiso   1.00
C194   C     0.03424   0.47450   0.21503   0.00000  Uiso   1.00
C195   C     0.14337   0.48849   0.49229   0.00000  Uiso   1.00
C196   C     0.01411   0.52479   0.28535   0.00000  Uiso   1.00
C197   C     0.29990   0.52527   0.28558   0.00000  Uiso   1.00
C198   C     0.16636   0.42007   0.25010   0.00000  Uiso   1.00
C199   C     0.19346   0.49976   0.14763   0.00000  Uiso   1.00
C200   C     0.25783   0.45472   0.00857   0.00000  Uiso   1.00
C201   C     0.20996   0.49340   0.08873   0.00000  Uiso   1.00
C202   C     0.07666   0.50938   0.44285   0.00000  Uiso   1.00
C203   C     0.06351   0.51185   0.49920   0.00000  Uiso   1.00
C204   C     0.09678   0.50241   0.02385   0.00000  Uiso   1.00
C205   C     0.15227   0.47712   0.43763   0.00000  Uiso   1.00
C206   C     0.18062   0.48413   0.01374   0.00000  Uiso   1.00
C207   C     0.22219   0.46051   0.48479   0.00000  Uiso   1.00
C208   C     0.22696   0.44302   0.43337   0.00000  Uiso   1.00
C209   C     0.19037   0.44944   0.41117   0.00000  Uiso   1.00
C210   C     0.17849   0.50429   0.06243   0.00000  Uiso   1.00
C211   C     0.25072   0.46975   0.06112   0.00000  Uiso   1.00
F212   F     0.28267   0.45974   0.08550   0.00000  Uiso   1.00
F213   F     0.08545   0.37690   0.31708   0.00000  Uiso   1.00
F214   F     0.06755   0.44902   0.18038   0.00000  Uiso   1.00
F215   F     0.29823   0.43250   0.48286   0.00000  Uiso   1.00
F216   F     0.14690   0.53569   0.08445   0.00000  Uiso   1.00
F217   F     0.04568   0.52353   0.41921   0.00000  Uiso   1.00
H218   H     0.23857   0.37099   0.19528   0.00000  Uiso   1.00
H219   H     0.20600   0.39974   0.36424   0.00000  Uiso   1.00
H220   H     0.02433   0.54469   0.31352   0.00000  Uiso   1.00
H221   H     0.08478   0.50468   0.06778   0.00000  Uiso   1.00
H222   H     0.02820   0.52291   0.02370   0.00000  Uiso   1.00
H223   H     0.23857   0.62842   0.19746   0.00000  Uiso   1.00
H224   H     0.09480   0.59925   0.33612   0.00000  Uiso   1.00
H225   H     0.33282   0.43163   0.15783   0.00000  Uiso   1.00
H226   H     0.23996   0.55472   0.31427   0.00000  Uiso   1.00
H227   H     0.27413   0.42346   0.36540   0.00000  Uiso   1.00
N228   N     0.04760   0.50001   0.25002   0.00000  Uiso   1.00
N229   N     0.28573   0.49998   0.25000   0.00000  Uiso   1.00
O230   O     0.12846   0.56108   0.25001   0.00000  Uiso   1.00
O231   O     0.30509   0.44837   0.18056   0.00000  Uiso   1.00
O232   O     0.26913   0.55176   0.32314   0.00000  Uiso   1.00
O233   O     0.26780   0.42077   0.40501   0.00000  Uiso   1.00
O234   O     0.18839   0.42624   0.36684   0.00000  Uiso   1.00
O235   O     0.20490   0.56107   0.25000   0.00000  Uiso   1.00
O236   O     0.10947   0.50000   0.32681   0.00000  Uiso   1.00
O237   O     0.18591   0.49999   0.32681   0.00000  Uiso   1.00
O238   O     0.12843   0.43893   0.24999   0.00000  Uiso   1.00
O239   O     0.20488   0.43892   0.24999   0.00000  Uiso   1.00
O240   O     0.14742   0.50001   0.17319   0.00000  Uiso   1.00
O241   O     0.22387   0.50000   0.17319   0.00000  Uiso   1.00
O242   O     0.08506   0.62630   0.32540   0.00000  Uiso   1.00
Zn243  Zn    0.11562   0.50001   0.25000   0.00000  Uiso   1.00
Zn244  Zn    0.21771   0.49999   0.25000   0.00000  Uiso   1.00
C245   C     0.49966   0.57990   0.25206   0.00000  Uiso   1.00
C246   C     0.45514   0.49318   0.41147   0.00000  Uiso   1.00
C247   C     0.54034   0.64515   0.22280   0.00000  Uiso   1.00
C248   C     0.47314   0.49803   0.35222   0.00000  Uiso   1.00
C249   C     0.54023   0.35460   0.22115   0.00000  Uiso   1.00
C250   C     0.49888   0.37595   0.25173   0.00000  Uiso   1.00
C251   C     0.45789   0.35528   0.28543   0.00000  Uiso   1.00
C252   C     0.45814   0.64566   0.28888   0.00000  Uiso   1.00
C253   C     0.49932   0.62410   0.25558   0.00000  Uiso   1.00
C254   C     0.65260   0.47427   0.21498   0.00000  Uiso   1.00
C255   C     0.36757   0.47450   0.21503   0.00000  Uiso   1.00
C256   C     0.47670   0.48849   0.49229   0.00000  Uiso   1.00
C257   C     0.34744   0.52479   0.28535   0.00000  Uiso   1.00
C258   C     0.63323   0.52527   0.28558   0.00000  Uiso   1.00
C259   C     0.49970   0.42007   0.25010   0.00000  Uiso   1.00
C260   C     0.52680   0.49976   0.14763   0.00000  Uiso   1.00
C261   C     0.59117   0.45472   0.00857   0.00000  Uiso   1.00
C262   C     0.54329   0.49340   0.08873   0.00000  Uiso   1.00
C263   C     0.40999   0.50938   0.44285   0.00000  Uiso   1.00
C264   C     0.39685   0.51185   0.49920   0.00000  Uiso   1.00
C265   C     0.43011   0.50241   0.02385   0.00000  Uiso   1.00
C266   C     0.48560   0.47712   0.43763   0.00000  Uiso   1.00
C267   C     0.51395   0.48413   0.01374   0.00000  Uiso   1.00
C268   C     0.55553   0.46051   0.48479   0.00000  Uiso   1.00
C269   C     0.56029   0.44302   0.43337   0.00000  Uiso   1.00
C270   C     0.52371   0.44944   0.41117   0.00000  Uiso   1.00
C271   C     0.51183   0.50429   0.06243   0.00000  Uiso   1.00
C272   C     0.58406   0.46975   0.06112   0.00000  Uiso   1.00
F273   F     0.61600   0.45974   0.08550   0.00000  Uiso   1.00
F274   F     0.41878   0.37690   0.31708   0.00000  Uiso   1.00
F275   F     0.40088   0.44902   0.18038   0.00000  Uiso   1.00
F276   F     0.63156   0.43250   0.48286   0.00000  Uiso   1.00
F277   F     0.48023   0.53569   0.08445   0.00000  Uiso   1.00
F278   F     0.37902   0.52353   0.41921   0.00000  Uiso   1.00
H279   H     0.57190   0.37099   0.19528   0.00000  Uiso   1.00
H280   H     0.53933   0.39974   0.36424   0.00000  Uiso   1.00
H281   H     0.35766   0.54469   0.31352   0.00000  Uiso   1.00
H282   H     0.41811   0.50468   0.06778   0.00000  Uiso   1.00
H283   H     0.36154   0.52291   0.02370   0.00000  Uiso   1.00
H284   H     0.57191   0.62842   0.19746   0.00000  Uiso   1.00
H285   H     0.42813   0.59925   0.33612   0.00000  Uiso   1.00
H286   H     0.66616   0.43163   0.15783   0.00000  Uiso   1.00
H287   H     0.57329   0.55472   0.31427   0.00000  Uiso   1.00
H288   H     0.60746   0.42346   0.36540   0.00000  Uiso   1.00
N289   N     0.38093   0.50001   0.25002   0.00000  Uiso   1.00
N290   N     0.61906   0.49998   0.25000   0.00000  Uiso   1.00
O291   O     0.46179   0.56108   0.25001   0.00000  Uiso   1.00
O292   O     0.63843   0.44837   0.18056   0.00000  Uiso   1.00
O293   O     0.60247   0.55176   0.32314   0.00000  Uiso   1.00
O294   O     0.60113   0.42077   0.40501   0.00000  Uiso   1.00
O295   O     0.52173   0.42624   0.36684   0.00000  Uiso   1.00
O296   O     0.53823   0.56107   0.25000   0.00000  Uiso   1.00
O297   O     0.44280   0.50000   0.32681   0.00000  Uiso   1.00
O298   O     0.51924   0.49999   0.32681   0.00000  Uiso   1.00
O299   O     0.46177   0.43893   0.24999   0.00000  Uiso   1.00
O300   O     0.53821   0.43892   0.24999   0.00000  Uiso   1.00
O301   O     0.48076   0.50001   0.17319   0.00000  Uiso   1.00
O302   O     0.55720   0.50000   0.17319   0.00000  Uiso   1.00
O303   O     0.41840   0.62630   0.32540   0.00000  Uiso   1.00
Zn304  Zn    0.44896   0.50001   0.25000   0.00000  Uiso   1.00
Zn305  Zn    0.55104   0.49999   0.25000   0.00000  Uiso   1.00
C306   C     0.83299   0.57990   0.25206   0.00000  Uiso   1.00
C307   C     0.78847   0.49318   0.41147   0.00000  Uiso   1.00
C308   C     0.87367   0.64515   0.22280   0.00000  Uiso   1.00
C309   C     0.80647   0.49803   0.35222   0.00000  Uiso   1.00
C310   C     0.87356   0.35460   0.22115   0.00000  Uiso   1.00
C311   C     0.83221   0.37595   0.25173   0.00000  Uiso   1.00
C312   C     0.79122   0.35528   0.28543   0.00000  Uiso   1.00
C313   C     0.79147   0.64566   0.28888   0.00000  Uiso   1.00
C314   C     0.83265   0.62410   0.25558   0.00000  Uiso   1.00
C315   C     0.98594   0.47427   0.21498   0.00000  Uiso   1.00
C316   C     0.70091   0.47450   0.21503   0.00000  Uiso   1.00
C317   C     0.81004   0.48849   0.49229   0.00000  Uiso   1.00
C318   C     0.68078   0.52479   0.28535   0.00000  Uiso   1.00
C319   C     0.96657   0.52527   0.28558   0.00000  Uiso   1.00
C320   C     0.83303   0.42007   0.25010   0.00000  Uiso   1.00
C321   C     0.86013   0.49976   0.14763   0.00000  Uiso   1.00
C322   C     0.92450   0.45472   0.00857   0.00000  Uiso   1.00
C323   C     0.87663   0.49340   0.08873   0.00000  Uiso   1.00
C324   C     0.74333   0.50938   0.44285   0.00000  Uiso   1.00
C325   C     0.73018   0.51185   0.49920   0.00000  Uiso   1.00
C326   C     0.76344   0.50241   0.02385   0.00000  Uiso   1.00
C327   C     0.81893   0.47712   0.43763   0.00000  Uiso   1.00
C328   C     0.84728   0.48413   0.01374   0.00000  Uiso   1.00
C329   C     0.88886   0.46051   0.48479   0.00000  Uiso   1.00
C330   C     0.89363   0.44302   0.43337   0.00000  Uiso   1.00
C331   C     0.85704   0.44944   0.41117   0.00000  Uiso   1.00
C332   C     0.84516   0.50429   0.06243   0.00000  Uiso   1.00
C333   C     0.91739   0.46975   0.06112   0.00000  Uiso   1.00
F334   F     0.94934   0.45974   0.08550   0.00000  Uiso   1.00
F335   F     0.75211   0.37690   0.31708   0.00000  Uiso   1.00
F336   F     0.73422   0.44902   0.18038   0.00000  Uiso   1.00
F337   F     0.96489   0.43250   0.48286   0.00000  Uiso   1.00
F338   F     0.81357   0.53569   0.08445   0.00000  Uiso   1.00
F339   F     0.71235   0.52353   0.41921   0.00000  Uiso   1.00
H340   H     0.90523   0.37099   0.19528   0.00000  Uiso   1.00
H341   H     0.87266   0.39974   0.36424   0.00000  Uiso   1.00
H342   H     0.69099   0.54469   0.31352   0.00000  Uiso   1.00
H343   H     0.75145   0.50468   0.06778   0.00000  Uiso   1.00
H344   H     0.69487   0.52291   0.02370   0.00000  Uiso   1.00
H345   H     0.90524   0.62842   0.19746   0.00000  Uiso   1.00
H346   H     0.76146   0.59925   0.33612   0.00000  Uiso   1.00
H347   H     0.99949   0.43163   0.15783   0.00000  Uiso   1.00
H348   H     0.90663   0.55472   0.31427   0.00000  Uiso   1.00
H349   H     0.94079   0.42346   0.36540   0.00000  Uiso   1.00
N350   N     0.71426   0.50001   0.25002   0.00000  Uiso   1.00
N351   N     0.95239   0.49998   0.25000   0.00000  Uiso   1.00
O352   O     0.79512   0.56108   0.25001   0.00000  Uiso   1.00
O353   O     0.97176   0.44837   0.18056   0.00000  Uiso   1.00
O354   O     0.93580   0.55176   0.32314   0.00000  Uiso   1.00
O355   O     0.93446   0.42077   0.40501   0.00000  Uiso   1.00
O356   O     0.85506   0.42624   0.36684   0.00000  Uiso   1.00
O357   O     0.87157   0.56107   0.25000   0.00000  Uiso   1.00
O358   O     0.77613   0.50000   0.32681   0.00000  Uiso   1.00
O359   O     0.85258   0.49999   0.32681   0.00000  Uiso   1.00
O360   O     0.79510   0.43893   0.24999   0.00000  Uiso   1.00
O361   O     0.87154   0.43892   0.24999   0.00000  Uiso   1.00
O362   O     0.81409   0.50001   0.17319   0.00000  Uiso   1.00
O363   O     0.89053   0.50000   0.17319   0.00000  Uiso   1.00
O364   O     0.75173   0.62630   0.32540   0.00000  Uiso   1.00
Zn365  Zn    0.78229   0.50001   0.25000   0.00000  Uiso   1.00
Zn366  Zn    0.88438   0.49999   0.25000   0.00000  Uiso   1.00
C367   C     0.16633   0.91324   0.25206   0.00000  Uiso   1.00
C368   C     0.12180   0.82651   0.41147   0.00000  Uiso   1.00
C369   C     0.20700   0.97848   0.22280   0.00000  Uiso   1.00
C370   C     0.13981   0.83136   0.35222   0.00000  Uiso   1.00
C371   C     0.20689   0.68793   0.22115   0.00000  Uiso   1.00
C372   C     0.16555   0.70929   0.25173   0.00000  Uiso   1.00
C373   C     0.12455   0.68861   0.28543   0.00000  Uiso   1.00
C374   C     0.12481   0.97900   0.28888   0.00000  Uiso   1.00
C375   C     0.16599   0.95743   0.25558   0.00000  Uiso   1.00
C376   C     0.31927   0.80761   0.21498   0.00000  Uiso   1.00
C377   C     0.03424   0.80784   0.21503   0.00000  Uiso   1.00
C378   C     0.14337   0.82182   0.49229   0.00000  Uiso   1.00
C379   C     0.01411   0.85812   0.28535   0.00000  Uiso   1.00
C380   C     0.29990   0.85860   0.28558   0.00000  Uiso   1.00
C381   C     0.16636   0.75340   0.25010   0.00000  Uiso   1.00
C382   C     0.19346   0.83309   0.14763   0.00000  Uiso   1.00
C383   C     0.25783   0.78805   0.00857   0.00000  Uiso   1.00
C384   C     0.20996   0.82673   0.08873   0.00000  Uiso   1.00
C385   C     0.07666   0.84271   0.44285   0.00000  Uiso   1.00
C386   C     0.06351   0.84519   0.49920   0.00000  Uiso   1.00
C387   C     0.09678   0.83574   0.02385   0.00000  Uiso   1.00
C388   C     0.15227   0.81045   0.43763   0.00000  Uiso   1.00
C389   C     0.18062   0.81747   0.01374   0.00000  Uiso   1.00
C390   C     0.22219   0.79384   0.48479   0.00000  Uiso   1.00
C391   C     0.22696   0.77636   0.43337   0.00000  Uiso   1.00
C392   C     0.19037   0.78278   0.41117   0.00000  Uiso   1.00
C393   C     0.17849   0.83763   0.06243   0.00000  Uiso   1.00
C394   C     0.25072   0.80308   0.06112   0.00000  Uiso   1.00
F395   F     0.28267   0.79307   0.08550   0.00000  Uiso   1.00
F396   F     0.08545   0.71023   0.31708   0.00000  Uiso   1.00
F397   F     0.06755   0.78236   0.18038   0.00000  Uiso   1.00
F398   F     0.29823   0.76583   0.48286   0.00000  Uiso   1.00
F399   F     0.14690   0.86902   0.08445   0.00000  Uiso   1.00
F400   F     0.04568   0.85686   0.41921   0.00000  Uiso   1.00
H401   H     0.23857   0.70433   0.19528   0.00000  Uiso   1.00
H402   H     0.20600   0.73307   0.36424   0.00000  Uiso   1.00
H403   H     0.02433   0.87803   0.31352   0.00000  Uiso   1.00
H404   H     0.08478   0.83801   0.06778   0.00000  Uiso   1.00
H405   H     0.02820   0.85624   0.02370   0.00000  Uiso   1.00
H406   H     0.23857   0.96175   0.19746   0.00000  Uiso   1.00
H407   H     0.09480   0.93258   0.33612   0.00000  Uiso   1.00
H408   H     0.33282   0.76496   0.15783   0.00000  Uiso   1.00
H409   H     0.23996   0.88805   0.31427   0.00000  Uiso   1.00
H410   H     0.27413   0.75679   0.36540   0.00000  Uiso   1.00
N411   N     0.04760   0.83334   0.25002   0.00000  Uiso   1.00
N412   N     0.28573   0.83331   0.25000   0.00000  Uiso   1.00
O413   O     0.12846   0.89442   0.25001   0.00000  Uiso   1.00
O414   O     0.30509   0.78170   0.18056   0.00000  Uiso   1.00
O415   O     0.26913   0.88510   0.32314   0.00000  Uiso   1.00
O416   O     0.26780   0.75411   0.40501   0.00000  Uiso   1.00
O417   O     0.18839   0.75958   0.36684   0.00000  Uiso   1.00
O418   O     0.20490   0.89441   0.25000   0.00000  Uiso   1.00
O419   O     0.10947   0.83333   0.32681   0.00000  Uiso   1.00
O420   O     0.18591   0.83332   0.32681   0.00000  Uiso   1.00
O421   O     0.12843   0.77226   0.24999   0.00000  Uiso   1.00
O422   O     0.20488   0.77225   0.24999   0.00000  Uiso   1.00
O423   O     0.14742   0.83335   0.17319   0.00000  Uiso   1.00
O424   O     0.22387   0.83334   0.17319   0.00000  Uiso   1.00
O425   O     0.08506   0.95963   0.32540   0.00000  Uiso   1.00
Zn426  Zn    0.11562   0.83334   0.25000   0.00000  Uiso   1.00
Zn427  Zn    0.21771   0.83333   0.25000   0.00000  Uiso   1.00
C428   C     0.49966   0.91324   0.25206   0.00000  Uiso   1.00
C429   C     0.45514   0.82651   0.41147   0.00000  Uiso   1.00
C430   C     0.54034   0.97848   0.22280   0.00000  Uiso   1.00
C431   C     0.47314   0.83136   0.35222   0.00000  Uiso   1.00
C432   C     0.54023   0.68793   0.22115   0.00000  Uiso   1.00
C433   C     0.49888   0.70929   0.25173   0.00000  Uiso   1.00
C434   C     0.45789   0.68861   0.28543   0.00000  Uiso   1.00
C435   C     0.45814   0.97900   0.28888   0.00000  Uiso   1.00
C436   C     0.49932   0.95743   0.25558   0.00000  Uiso   1.00
C437   C     0.65260   0.80761   0.21498   0.00000  Uiso   1.00
C438   C     0.36757   0.80784   0.21503   0.00000  Uiso   1.00
C439   C     0.47670   0.82182   0.49229   0.00000  Uiso   1.00
C440   C     0.34744   0.85812   0.28535   0.00000  Uiso   1.00
C441   C     0.63323   0.85860   0.28558   0.00000  Uiso   1.00
C442   C     0.49970   0.75340   0.25010   0.00000  Uiso   1.00
C443   C     0.52680   0.83309   0.14763   0.00000  Uiso   1.00
C444   C     0.59117   0.78805   0.00857   0.00000  Uiso   1.00
C445   C     0.54329   0.82673   0.08873   0.00000  Uiso   1.00
C446   C     0.40999   0.84271   0.44285   0.00000  Uiso   1.00
C447   C     0.39685   0.84519   0.49920   0.00000  Uiso   1.00
C448   C     0.43011   0.83574   0.02385   0.00000  Uiso   1.00
C449   C     0.48560   0.81045   0.43763   0.00000  Uiso   1.00
C450   C     0.51395   0.81747   0.01374   0.00000  Uiso   1.00
C451   C     0.55553   0.79384   0.48479   0.00000  Uiso   1.00
C452   C     0.56029   0.77636   0.43337   0.00000  Uiso   1.00
C453   C     0.52371   0.78278   0.41117   0.00000  Uiso   1.00
C454   C     0.51183   0.83763   0.06243   0.00000  Uiso   1.00
C455   C     0.58406   0.80308   0.06112   0.00000  Uiso   1.00
F456   F     0.61600   0.79307   0.08550   0.00000  Uiso   1.00
F457   F     0.41878   0.71023   0.31708   0.00000  Uiso   1.00
F458   F     0.40088   0.78236   0.18038   0.00000  Uiso   1.00
F459   F     0.63156   0.76583   0.48286   0.00000  Uiso   1.00
F460   F     0.48023   0.86902   0.08445   0.00000  Uiso   1.00
F461   F     0.37902   0.85686   0.41921   0.00000  Uiso   1.00
H462   H     0.57190   0.70433   0.19528   0.00000  Uiso   1.00
H463   H     0.53933   0.73307   0.36424   0.00000  Uiso   1.00
H464   H     0.35766   0.87803   0.31352   0.00000  Uiso   1.00
H465   H     0.41811   0.83801   0.06778   0.00000  Uiso   1.00
H466   H     0.36154   0.85624   0.02370   0.00000  Uiso   1.00
H467   H     0.57191   0.96175   0.19746   0.00000  Uiso   1.00
H468   H     0.42813   0.93258   0.33612   0.00000  Uiso   1.00
H469   H     0.66616   0.76496   0.15783   0.00000  Uiso   1.00
H470   H     0.57329   0.88805   0.31427   0.00000  Uiso   1.00
H471   H     0.60746   0.75679   0.36540   0.00000  Uiso   1.00
N472   N     0.38093   0.83334   0.25002   0.00000  Uiso   1.00
N473   N     0.61906   0.83331   0.25000   0.00000  Uiso   1.00
O474   O     0.46179   0.89442   0.25001   0.00000  Uiso   1.00
O475   O     0.63843   0.78170   0.18056   0.00000  Uiso   1.00
O476   O     0.60247   0.88510   0.32314   0.00000  Uiso   1.00
O477   O     0.60113   0.75411   0.40501   0.00000  Uiso   1.00
O478   O     0.52173   0.75958   0.36684   0.00000  Uiso   1.00
O479   O     0.53823   0.89441   0.25000   0.00000  Uiso   1.00
O480   O     0.44280   0.83333   0.32681   0.00000  Uiso   1.00
O481   O     0.51924   0.83332   0.32681   0.00000  Uiso   1.00
O482   O     0.46177   0.77226   0.24999   0.00000  Uiso   1.00
O483   O     0.53821   0.77225   0.24999   0.00000  Uiso   1.00
O484   O     0.48076   0.83335   0.17319   0.00000  Uiso   1.00
O485   O     0.55720   0.83334   0.17319   0.00000  Uiso   1.00
O486   O     0.41840   0.95963   0.32540   0.00000  Uiso   1.00
Zn487  Zn    0.44896   0.83334   0.25000   0.00000  Uiso   1.00
Zn488  Zn    0.55104   0.83333   0.25000   0.00000  Uiso   1.00
C489   C     0.83299   0.91324   0.25206   0.00000  Uiso   1.00
C490   C     0.78847   0.82651   0.41147   0.00000  Uiso   1.00
C491   C     0.87367   0.97848   0.22280   0.00000  Uiso   1.00
C492   C     0.80647   0.83136   0.35222   0.00000  Uiso   1.00
C493   C     0.87356   0.68793   0.22115   0.00000  Uiso   1.00
C494   C     0.83221   0.70929   0.25173   0.00000  Uiso   1.00
C495   C     0.79122   0.68861   0.28543   0.00000  Uiso   1.00
C496   C     0.79147   0.97900   0.28888   0.00000  Uiso   1.00
C497   C     0.83265   0.95743   0.25558   0.00000  Uiso   1.00
C498   C     0.98594   0.80761   0.21498   0.00000  Uiso   1.00
C499   C     0.70091   0.80784   0.21503   0.00000  Uiso   1.00
C500   C     0.81004   0.82182   0.49229   0.00000  Uiso   1.00
C501   C     0.68078   0.85812   0.28535   0.00000  Uiso   1.00
C502   C     0.96657   0.85860   0.28558   0.00000  Uiso   1.00
C503   C     0.83303   0.75340   0.25010   0.00000  Uiso   1.00
C504   C     0.86013   0.83309   0.14763   0.00000  Uiso   1.00
C505   C     0.92450   0.78805   0.00857   0.00000  Uiso   1.00
C506   C     0.87663   0.82673   0.08873   0.00000  Uiso   1.00
C507   C     0.74333   0.84271   0.44285   0.00000  Uiso   1.00
C508   C     0.73018   0.84519   0.49920   0.00000  Uiso   1.00
C509   C     0.76344   0.83574   0.02385   0.00000  Uiso   1.00
C510   C     0.81893   0.81045   0.43763   0.00000  Uiso   1.00
C511   C     0.84728   0.81747   0.01374   0.00000  Uiso   1.00
C512   C     0.88886   0.79384   0.48479   0.00000  Uiso   1.00
C513   C     0.89363   0.77636   0.43337   0.00000  Uiso   1.00
C514   C     0.85704   0.78278   0.41117   0.00000  Uiso   1.00
C515   C     0.84516   0.83763   0.06243   0.00000  Uiso   1.00
C516   C     0.91739   0.80308   0.06112   0.00000  Uiso   1.00
F517   F     0.94934   0.79307   0.08550   0.00000  Uiso   1.00
F518   F     0.75211   0.71023   0.31708   0.00000  Uiso   1.00
F519   F     0.73422   0.78236   0.18038   0.00000  Uiso   1.00
F520   F     0.96489   0.76583   0.48286   0.00000  Uiso   1.00
F521   F     0.81357   0.86902   0.08445   0.00000  Uiso   1.00
F522   F     0.71235   0.85686   0.41921   0.00000  Uiso   1.00
H523   H     0.90523   0.70433   0.19528   0.00000  Uiso   1.00
H524   H     0.87266   0.73307   0.36424   0.00000  Uiso   1.00
H525   H     0.69099   0.87803   0.31352   0.00000  Uiso   1.00
H526   H     0.75145   0.83801   0.06778   0.00000  Uiso   1.00
H527   H     0.69487   0.85624   0.02370   0.00000  Uiso   1.00
H528   H     0.90524   0.96175   0.19746   0.00000  Uiso   1.00
H529   H     0.76146   0.93258   0.33612   0.00000  Uiso   1.00
H530   H     0.99949   0.76496   0.15783   0.00000  Uiso   1.00
H531   H     0.90663   0.88805   0.31427   0.00000  Uiso   1.00
H532   H     0.94079   0.75679   0.36540   0.00000  Uiso   1.00
N533   N     0.71426   0.83334   0.25002   0.00000  Uiso   1.00
N534   N     0.95239   0.83331   0.25000   0.00000  Uiso   1.00
O535   O     0.79512   0.89442   0.25001   0.00000  Uiso   1.00
O536   O     0.97176   0.78170   0.18056   0.00000  Uiso   1.00
O537   O     0.93580   0.88510   0.32314   0.00000  Uiso   1.00
O538   O     0.93446   0.75411   0.40501   0.00000  Uiso   1.00
O539   O     0.85506   0.75958   0.36684   0.00000  Uiso   1.00
O540   O     0.87157   0.89441   0.25000   0.00000  Uiso   1.00
O541   O     0.77613   0.83333   0.32681   0.00000  Uiso   1.00
O542   O     0.85258   0.83332   0.32681   0.00000  Uiso   1.00
O543   O     0.79510   0.77226   0.24999   0.00000  Uiso   1.00
O544   O     0.87154   0.77225   0.24999   0.00000  Uiso   1.00
O545   O     0.81409   0.83335   0.17319   0.00000  Uiso   1.00
O546   O     0.89053   0.83334   0.17319   0.00000  Uiso   1.00
O547   O     0.75173   0.95963   0.32540   0.00000  Uiso   1.00
Zn548  Zn    0.78229   0.83334   0.25000   0.00000  Uiso   1.00
Zn549  Zn    0.88438   0.83333   0.25000   0.00000  Uiso   1.00
C550   C     0.16633   0.24657   0.75206   0.00000  Uiso   1.00
C551   C     0.12180   0.15984   0.91147   0.00000  Uiso   1.00
C552   C     0.20700   0.31181   0.72280   0.00000  Uiso   1.00
C553   C     0.13981   0.16470   0.85222   0.00000  Uiso   1.00
C554   C     0.20689   0.02126   0.72115   0.00000  Uiso   1.00
C555   C     0.16555   0.04262   0.75173   0.00000  Uiso   1.00
C556   C     0.12455   0.02194   0.78543   0.00000  Uiso   1.00
C557   C     0.12481   0.31233   0.78888   0.00000  Uiso   1.00
C558   C     0.16599   0.29077   0.75558   0.00000  Uiso   1.00
C559   C     0.31927   0.14094   0.71498   0.00000  Uiso   1.00
C560   C     0.03424   0.14117   0.71503   0.00000  Uiso   1.00
C561   C     0.14337   0.15516   0.99229   0.00000  Uiso   1.00
C562   C     0.01411   0.19145   0.78535   0.00000  Uiso   1.00
C563   C     0.29990   0.19193   0.78558   0.00000  Uiso   1.00
C564   C     0.16636   0.08674   0.75010   0.00000  Uiso   1.00
C565   C     0.19346   0.16642   0.64763   0.00000  Uiso   1.00
C566   C     0.25783   0.12138   0.50857   0.00000  Uiso   1.00
C567   C     0.20996   0.16006   0.58873   0.00000  Uiso   1.00
C568   C     0.07666   0.17604   0.94285   0.00000  Uiso   1.00
C569   C     0.06351   0.17852   0.99920   0.00000  Uiso   1.00
C570   C     0.09678   0.16907   0.52385   0.00000  Uiso   1.00
C571   C     0.15227   0.14379   0.93763   0.00000  Uiso   1.00
C572   C     0.18062   0.15080   0.51374   0.00000  Uiso   1.00
C573   C     0.22219   0.12718   0.98479   0.00000  Uiso   1.00
C574   C     0.22696   0.10969   0.93337   0.00000  Uiso   1.00
C575   C     0.19037   0.11611   0.91117   0.00000  Uiso   1.00
C576   C     0.17849   0.17096   0.56243   0.00000  Uiso   1.00
C577   C     0.25072   0.13642   0.56112   0.00000  Uiso   1.00
F578   F     0.28267   0.12640   0.58550   0.00000  Uiso   1.00
F579   F     0.08545   0.04356   0.81708   0.00000  Uiso   1.00
F580   F     0.06755   0.11569   0.68038   0.00000  Uiso   1.00
F581   F     0.29823   0.09917   0.98286   0.00000  Uiso   1.00
F582   F     0.14690   0.20236   0.58445   0.00000  Uiso   1.00
F583   F     0.04568   0.19020   0.91921   0.00000  Uiso   1.00
H584   H     0.23857   0.03766   0.69528   0.00000  Uiso   1.00
H585   H     0.20600   0.06640   0.86424   0.00000  Uiso   1.00
H586   H     0.02433   0.21136   0.81352   0.00000  Uiso   1.00
H587   H     0.08478   0.17134   0.56778   0.00000  Uiso   1.00
H588   H     0.02820   0.18957   0.52370   0.00000  Uiso   1.00
H589   H     0.23857   0.29509   0.69746   0.00000  Uiso   1.00
H590   H     0.09480   0.26592   0.83612   0.00000  Uiso   1.00
H591   H     0.33282   0.09829   0.65783   0.00000  Uiso   1.00
H592   H     0.23996   0.22139   0.81427   0.00000  Uiso   1.00
H593   H     0.27413   0.09012   0.86540   0.00000  Uiso   1.00
N594   N     0.04760   0.16668   0.75002   0.00000  Uiso   1.00
N595   N     0.28573   0.16665   0.75000   0.00000  Uiso   1.00
O596   O     0.12846   0.22775   0.75001   0.00000  Uiso   1.00
O597   O     0.30509   0.11504   0.68056   0.00000  Uiso   1.00
O598   O     0.26913   0.21843   0.82314   0.00000  Uiso   1.00
O599   O     0.26780   0.08744   0.90501   0.00000  Uiso   1.00
O600   O     0.18839   0.09291   0.86684   0.00000  Uiso   1.00
O601   O     0.20490   0.22774   0.75000   0.00000  Uiso   1.00
O602   O     0.10947   0.16666   0.82681   0.00000  Uiso   1.00
O603   O     0.18591   0.16665   0.82681   0.00000  Uiso   1.00
O604   O     0.12843   0.10559   0.74999   0.00000  Uiso   1.00
O605   O     0.20488   0.10558   0.74999   0.00000  Uiso   1.00
O606   O     0.14742   0.16668   0.67319   0.00000  Uiso   1.00
O607   O     0.22387   0.16667   0.67319   0.00000  Uiso   1.00
O608   O     0.08506   0.29296   0.82540   0.00000  Uiso   1.00
Zn609  Zn    0.11562   0.16667   0.75000   0.00000  Uiso   1.00
Zn610  Zn    0.21771   0.16666   0.75000   0.00000  Uiso   1.00
C611   C     0.49966   0.24657   0.75206   0.00000  Uiso   1.00
C612   C     0.45514   0.15984   0.91147   0.00000  Uiso   1.00
C613   C     0.54034   0.31181   0.72280   0.00000  Uiso   1.00
C614   C     0.47314   0.16470   0.85222   0.00000  Uiso   1.00
C615   C     0.54023   0.02126   0.72115   0.00000  Uiso   1.00
C616   C     0.49888   0.04262   0.75173   0.00000  Uiso   1.00
C617   C     0.45789   0.02194   0.78543   0.00000  Uiso   1.00
C618   C     0.45814   0.31233   0.78888   0.00000  Uiso   1.00
C619   C     0.49932   0.29077   0.75558   0.00000  Uiso   1.00
C620   C     0.65260   0.14094   0.71498   0.00000  Uiso   1.00
C621   C     0.36757   0.14117   0.71503   0.00000  Uiso   1.00
C622   C     0.47670   0.15516   0.99229   0.00000  Uiso   1.00
C623   C     0.34744   0.19145   0.78535   0.00000  Uiso   1.00
C624   C     0.63323   0.19193   0.78558   0.00000  Uiso   1.00
C625   C     0.49970   0.08674   0.75010   0.00000  Uiso   1.00
C626   C     0.52680   0.16642   0.64763   0.00000  Uiso   1.00
C627   C     0.59117   0.12138   0.50857   0.00000  Uiso   1.00
C628   C     0.54329   0.16006   0.58873   0.00000  Uiso   1.00
C629   C     0.40999   0.17604   0.94285   0.00000  Uiso   1.00
C630   C     0.39685   0.17852   0.99920   0.00000  Uiso   1.00
C631   C     0.43011   0.16907   0.52385   0.00000  Uiso   1.00
C632   C     0.48560   0.14379   0.93763   0.00000  Uiso   1.00
C633   C     0.51395   0.15080   0.51374   0.00000  Uiso   1.00
C634   C     0.55553   0.12718   0.98479   0.00000  Uiso   1.00
C635   C     0.56029   0.10969   0.93337   0.00000  Uiso   1.00
C636   C     0.52371   0.11611   0.91117   0.00000  Uiso   1.00
C637   C     0.51183   0.17096   0.56243   0.00000  Uiso   1.00
C638   C     0.58406   0.13642   0.56112   0.00000  Uiso   1.00
F639   F     0.61600   0.12640   0.58550   0.00000  Uiso   1.00
F640   F     0.41878   0.04356   0.81708   0.00000  Uiso   1.00
F641   F     0.40088   0.11569   0.68038   0.00000  Uiso   1.00
F642   F     0.63156   0.09917   0.98286   0.00000  Uiso   1.00
F643   F     0.48023   0.20236   0.58445   0.00000  Uiso   1.00
F644   F     0.37902   0.19020   0.91921   0.00000  Uiso   1.00
H645   H     0.57190   0.03766   0.69528   0.00000  Uiso   1.00
H646   H     0.53933   0.06640   0.86424   0.00000  Uiso   1.00
H647   H     0.35766   0.21136   0.81352   0.00000  Uiso   1.00
H648   H     0.41811   0.17134   0.56778   0.00000  Uiso   1.00
H649   H     0.36154   0.18957   0.52370   0.00000  Uiso   1.00
H650   H     0.57191   0.29509   0.69746   0.00000  Uiso   1.00
H651   H     0.42813   0.26592   0.83612   0.00000  Uiso   1.00
H652   H     0.66616   0.09829   0.65783   0.00000  Uiso   1.00
H653   H     0.57329   0.22139   0.81427   0.00000  Uiso   1.00
H654   H     0.60746   0.09012   0.86540   0.00000  Uiso   1.00
N655   N     0.38093   0.16668   0.75002   0.00000  Uiso   1.00
N656   N     0.61906   0.16665   0.75000   0.00000  Uiso   1.00
O657   O     0.46179   0.22775   0.75001   0.00000  Uiso   1.00
O658   O     0.63843   0.11504   0.68056   0.00000  Uiso   1.00
O659   O     0.60247   0.21843   0.82314   0.00000  Uiso   1.00
O660   O     0.60113   0.08744   0.90501   0.00000  Uiso   1.00
O661   O     0.52173   0.09291   0.86684   0.00000  Uiso   1.00
O662   O     0.53823   0.22774   0.75000   0.00000  Uiso   1.00
O663   O     0.44280   0.16666   0.82681   0.00000  Uiso   1.00
O664   O     0.51924   0.16665   0.82681   0.00000  Uiso   1.00
O665   O     0.46177   0.10559   0.74999   0.00000  Uiso   1.00
O666   O     0.53821   0.10558   0.74999   0.00000  Uiso   1.00
O667   O     0.48076   0.16668   0.67319   0.00000  Uiso   1.00
O668   O     0.55720   0.16667   0.67319   0.00000  Uiso   1.00
O669   O     0.41840   0.29296   0.82540   0.00000  Uiso   1.00
Zn670  Zn    0.44896   0.16667   0.75000   0.00000  Uiso   1.00
Zn671  Zn    0.55104   0.16666   0.75000   0.00000  Uiso   1.00
C672   C     0.83299   0.24657   0.75206   0.00000  Uiso   1.00
C673   C     0.78847   0.15984   0.91147   0.00000  Uiso   1.00
C674   C     0.87367   0.31181   0.72280   0.00000  Uiso   1.00
C675   C     0.80647   0.16470   0.85222   0.00000  Uiso   1.00
C676   C     0.87356   0.02126   0.72115   0.00000  Uiso   1.00
C677   C     0.83221   0.04262   0.75173   0.00000  Uiso   1.00
C678   C     0.79122   0.02194   0.78543   0.00000  Uiso   1.00
C679   C     0.79147   0.31233   0.78888   0.00000  Uiso   1.00
C680   C     0.83265   0.29077   0.75558   0.00000  Uiso   1.00
C681   C     0.98594   0.14094   0.71498   0.00000  Uiso   1.00
C682   C     0.70091   0.14117   0.71503   0.00000  Uiso   1.00
C683   C     0.81004   0.15516   0.99229   0.00000  Uiso   1.00
C684   C     0.68078   0.19145   0.78535   0.00000  Uiso   1.00
C685   C     0.96657   0.19193   0.78558   0.00000  Uiso   1.00
C686   C     0.83303   0.08674   0.75010   0.00000  Uiso   1.00
C687   C     0.86013   0.16642   0.64763   0.00000  Uiso   1.00
C688   C     0.92450   0.12138   0.50857   0.00000  Uiso   1.00
C689   C     0.87663   0.16006   0.58873   0.00000  Uiso   1.00
C690   C     0.74333   0.17604   0.94285   0.00000  Uiso   1.00
C691   C     0.73018   0.17852   0.99920   0.00000  Uiso   1.00
C692   C     0.76344   0.16907   0.52385   0.00000  Uiso   1.00
C693   C     0.81893   0.14379   0.93763   0.00000  Uiso   1.00
C694   C     0.84728   0.15080   0.51374   0.00000  Uiso   1.00
C695   C     0.88886   0.12718   0.98479   0.00000  Uiso   1.00
C696   C     0.89363   0.10969   0.93337   0.00000  Uiso   1.00
C697   C     0.85704   0.11611   0.91117   0.00000  Uiso   1.00
C698   C     0.84516   0.17096   0.56243   0.00000  Uiso   1.00
C699   C     0.91739   0.13642   0.56112   0.00000  Uiso   1.00
F700   F     0.94934   0.12640   0.58550   0.00000  Uiso   1.00
F701   F     0.75211   0.04356   0.81708   0.00000  Uiso   1.00
F702   F     0.73422   0.11569   0.68038   0.00000  Uiso   1.00
F703   F     0.96489   0.09917   0.98286   0.00000  Uiso   1.00
F704   F     0.81357   0.20236   0.58445   0.00000  Uiso   1.00
F705   F     0.71235   0.19020   0.91921   0.00000  Uiso   1.00
H706   H     0.90523   0.03766   0.69528   0.00000  Uiso   1.00
H707   H     0.87266   0.06640   0.86424   0.00000  Uiso   1.00
H708   H     0.69099   0.21136   0.81352   0.00000  Uiso   1.00
H709   H     0.75145   0.17134   0.56778   0.00000  Uiso   1.00
H710   H     0.69487   0.18957   0.52370   0.00000  Uiso   1.00
H711   H     0.90524   0.29509   0.69746   0.00000  Uiso   1.00
H712   H     0.76146   0.26592   0.83612   0.00000  Uiso   1.00
H713   H     0.99949   0.09829   0.65783   0.00000  Uiso   1.00
H714   H     0.90663   0.22139   0.81427   0.00000  Uiso   1.00
H715   H     0.94079   0.09012   0.86540   0.00000  Uiso   1.00
N716   N     0.71426   0.16668   0.75002   0.00000  Uiso   1.00
N717   N     0.95239   0.16665   0.75000   0.00000  Uiso   1.00
O718   O     0.79512   0.22775   0.75001   0.00000  Uiso   1.00
O719   O     0.97176   0.11504   0.68056   0.00000  Uiso   1.00
O720   O     0.93580   0.21843   0.82314   0.00000  Uiso   1.00
O721   O     0.93446   0.08744   0.90501   0.00000  Uiso   1.00
O722   O     0.85506   0.09291   0.86684   0.00000  Uiso   1.00
O723   O     0.87157   0.22774   0.75000   0.00000  Uiso   1.00
O724   O     0.77613   0.16666   0.82681   0.00000  Uiso   1.00
O725   O     0.85258   0.16665   0.82681   0.00000  Uiso   1.00
O726   O     0.79510   0.10559   0.74999   0.00000  Uiso   1.00
O727   O     0.87154   0.10558   0.74999   0.00000  Uiso   1.00
O728   O     0.81409   0.16668   0.67319   0.00000  Uiso   1.00
O729   O     0.89053   0.16667   0.67319   0.00000  Uiso   1.00
O730   O     0.75173   0.29296   0.82540   0.00000  Uiso   1.00
Zn731  Zn    0.78229   0.16667   0.75000   0.00000  Uiso   1.00
Zn732  Zn    0.88438   0.16666   0.75000   0.00000  Uiso   1.00
C733   C     0.16633   0.57990   0.75206   0.00000  Uiso   1.00
C734   C     0.12180   0.49318   0.91147   0.00000  Uiso   1.00
C735   C     0.20700   0.64515   0.72280   0.00000  Uiso   1.00
C736   C     0.13981   0.49803   0.85222   0.00000  Uiso   1.00
C737   C     0.20689   0.35460   0.72115   0.00000  Uiso   1.00
C738   C     0.16555   0.37595   0.75173   0.00000  Uiso   1.00
C739   C     0.12455   0.35528   0.78543   0.00000  Uiso   1.00
C740   C     0.12481   0.64566   0.78888   0.00000  Uiso   1.00
C741   C     0.16599   0.62410   0.75558   0.00000  Uiso   1.00
C742   C     0.31927   0.47427   0.71498   0.00000  Uiso   1.00
C743   C     0.03424   0.47450   0.71503   0.00000  Uiso   1.00
C744   C     0.14337   0.48849   0.99229   0.00000  Uiso   1.00
C745   C     0.01411   0.52479   0.78535   0.00000  Uiso   1.00
C746   C     0.29990   0.52527   0.78558   0.00000  Uiso   1.00
C747   C     0.16636   0.42007   0.75010   0.00000  Uiso   1.00
C748   C     0.19346   0.49976   0.64763   0.00000  Uiso   1.00
C749   C     0.25783   0.45472   0.50857   0.00000  Uiso   1.00
C750   C     0.20996   0.49340   0.58873   0.00000  Uiso   1.00
C751   C     0.07666   0.50938   0.94285   0.00000  Uiso   1.00
C752   C     0.06351   0.51185   0.99920   0.00000  Uiso   1.00
C753   C     0.09678   0.50241   0.52385   0.00000  Uiso   1.00
C754   C     0.15227   0.47712   0.93763   0.00000  Uiso   1.00
C755   C     0.18062   0.48413   0.51374   0.00000  Uiso   1.00
C756   C     0.22219   0.46051   0.98479   0.00000  Uiso   1.00
C757   C     0.22696   0.44302   0.93337   0.00000  Uiso   1.00
C758   C     0.19037   0.44944   0.91117   0.00000  Uiso   1.00
C759   C     0.17849   0.50429   0.56243   0.00000  Uiso   1.00
C760   C     0.25072   0.46975   0.56112   0.00000  Uiso   1.00
F761   F     0.28267   0.45974   0.58550   0.00000  Uiso   1.00
F762   F     0.08545   0.37690   0.81708   0.00000  Uiso   1.00
F763   F     0.06755   0.44902   0.68038   0.00000  Uiso   1.00
F764   F     0.29823   0.43250   0.98286   0.00000  Uiso   1.00
F765   F     0.14690   0.53569   0.58445   0.00000  Uiso   1.00
F766   F     0.04568   0.52353   0.91921   0.00000  Uiso   1.00
H767   H     0.23857   0.37099   0.69528   0.00000  Uiso   1.00
H768   H     0.20600   0.39974   0.86424   0.00000  Uiso   1.00
H769   H     0.02433   0.54469   0.81352   0.00000  Uiso   1.00
H770   H     0.08478   0.50468   0.56778   0.00000  Uiso   1.00
H771   H     0.02820   0.52291   0.52370   0.00000  Uiso   1.00
H772   H     0.23857   0.62842   0.69746   0.00000  Uiso   1.00
H773   H     0.09480   0.59925   0.83612   0.00000  Uiso   1.00
H774   H     0.33282   0.43163   0.65783   0.00000  Uiso   1.00
H775   H     0.23996   0.55472   0.81427   0.00000  Uiso   1.00
H776   H     0.27413   0.42346   0.86540   0.00000  Uiso   1.00
N777   N     0.04760   0.50001   0.75002   0.00000  Uiso   1.00
N778   N     0.28573   0.49998   0.75000   0.00000  Uiso   1.00
O779   O     0.12846   0.56108   0.75001   0.00000  Uiso   1.00
O780   O     0.30509   0.44837   0.68056   0.00000  Uiso   1.00
O781   O     0.26913   0.55176   0.82314   0.00000  Uiso   1.00
O782   O     0.26780   0.42077   0.90501   0.00000  Uiso   1.00
O783   O     0.18839   0.42624   0.86684   0.00000  Uiso   1.00
O784   O     0.20490   0.56107   0.75000   0.00000  Uiso   1.00
O785   O     0.10947   0.50000   0.82681   0.00000  Uiso   1.00
O786   O     0.18591   0.49999   0.82681   0.00000  Uiso   1.00
O787   O     0.12843   0.43893   0.74999   0.00000  Uiso   1.00
O788   O     0.20488   0.43892   0.74999   0.00000  Uiso   1.00
O789   O     0.14742   0.50001   0.67319   0.00000  Uiso   1.00
O790   O     0.22387   0.50000   0.67319   0.00000  Uiso   1.00
O791   O     0.08506   0.62630   0.82540   0.00000  Uiso   1.00
Zn792  Zn    0.11562   0.50001   0.75000   0.00000  Uiso   1.00
Zn793  Zn    0.21771   0.49999   0.75000   0.00000  Uiso   1.00
C794   C     0.49966   0.57990   0.75206   0.00000  Uiso   1.00
C795   C     0.45514   0.49318   0.91147   0.00000  Uiso   1.00
C796   C     0.54034   0.64515   0.72280   0.00000  Uiso   1.00
C797   C     0.47314   0.49803   0.85222   0.00000  Uiso   1.00
C798   C     0.54023   0.35460   0.72115   0.00000  Uiso   1.00
C799   C     0.49888   0.37595   0.75173   0.00000  Uiso   1.00
C800   C     0.45789   0.35528   0.78543   0.00000  Uiso   1.00
C801   C     0.45814   0.64566   0.78888   0.00000  Uiso   1.00
C802   C     0.49932   0.62410   0.75558   0.00000  Uiso   1.00
C803   C     0.65260   0.47427   0.71498   0.00000  Uiso   1.00
C804   C     0.36757   0.47450   0.71503   0.00000  Uiso   1.00
C805   C     0.47670   0.48849   0.99229   0.00000  Uiso   1.00
C806   C     0.34744   0.52479   0.78535   0.00000  Uiso   1.00
C807   C     0.63323   0.52527   0.78558   0.00000  Uiso   1.00
C808   C     0.49970   0.42007   0.75010   0.00000  Uiso   1.00
C809   C     0.52680   0.49976   0.64763   0.00000  Uiso   1.00
C810   C     0.59117   0.45472   0.50857   0.00000  Uiso   1.00
C811   C     0.54329   0.49340   0.58873   0.00000  Uiso   1.00
C812   C     0.40999   0.50938   0.94285   0.00000  Uiso   1.00
C813   C     0.39685   0.51185   0.99920   0.00000  Uiso   1.00
C814   C     0.43011   0.50241   0.52385   0.00000  Uiso   1.00
C815   C     0.48560   0.47712   0.93763   0.00000  Uiso   1.00
C816   C     0.51395   0.48413   0.51374   0.00000  Uiso   1.00
C817   C     0.55553   0.46051   0.98479   0.00000  Uiso   1.00
C818   C     0.56029   0.44302   0.93337   0.00000  Uiso   1.00
C819   C     0.52371   0.44944   0.91117   0.00000  Uiso   1.00
C820   C     0.51183   0.50429   0.56243   0.00000  Uiso   1.00
C821   C     0.58406   0.46975   0.56112   0.00000  Uiso   1.00
F822   F     0.61600   0.45974   0.58550   0.00000  Uiso   1.00
F823   F     0.41878   0.37690   0.81708   0.00000  Uiso   1.00
F824   F     0.40088   0.44902   0.68038   0.00000  Uiso   1.00
F825   F     0.63156   0.43250   0.98286   0.00000  Uiso   1.00
F826   F     0.48023   0.53569   0.58445   0.00000  Uiso   1.00
F827   F     0.37902   0.52353   0.91921   0.00000  Uiso   1.00
H828   H     0.57190   0.37099   0.69528   0.00000  Uiso   1.00
H829   H     0.53933   0.39974   0.86424   0.00000  Uiso   1.00
H830   H     0.35766   0.54469   0.81352   0.00000  Uiso   1.00
H831   H     0.41811   0.50468   0.56778   0.00000  Uiso   1.00
H832   H     0.36154   0.52291   0.52370   0.00000  Uiso   1.00
H833   H     0.57191   0.62842   0.69746   0.00000  Uiso   1.00
H834   H     0.42813   0.59925   0.83612   0.00000  Uiso   1.00
H835   H     0.66616   0.43163   0.65783   0.00000  Uiso   1.00
H836   H     0.57329   0.55472   0.81427   0.00000  Uiso   1.00
H837   H     0.60746   0.42346   0.86540   0.00000  Uiso   1.00
N838   N     0.38093   0.50001   0.75002   0.00000  Uiso   1.00
N839   N     0.61906   0.49998   0.75000   0.00000  Uiso   1.00
O840   O     0.46179   0.56108   0.75001   0.00000  Uiso   1.00
O841   O     0.63843   0.44837   0.68056   0.00000  Uiso   1.00
O842   O     0.60247   0.55176   0.82314   0.00000  Uiso   1.00
O843   O     0.60113   0.42077   0.90501   0.00000  Uiso   1.00
O844   O     0.52173   0.42624   0.86684   0.00000  Uiso   1.00
O845   O     0.53823   0.56107   0.75000   0.00000  Uiso   1.00
O846   O     0.44280   0.50000   0.82681   0.00000  Uiso   1.00
O847   O     0.51924   0.49999   0.82681   0.00000  Uiso   1.00
O848   O     0.46177   0.43893   0.74999   0.00000  Uiso   1.00
O849   O     0.53821   0.43892   0.74999   0.00000  Uiso   1.00
O850   O     0.48076   0.50001   0.67319   0.00000  Uiso   1.00
O851   O     0.55720   0.50000   0.67319   0.00000  Uiso   1.00
O852   O     0.41840   0.62630   0.82540   0.00000  Uiso   1.00
Zn853  Zn    0.44896   0.50001   0.75000   0.00000  Uiso   1.00
Zn854  Zn    0.55104   0.49999   0.75000   0.00000  Uiso   1.00
C855   C     0.83299   0.57990   0.75206   0.00000  Uiso   1.00
C856   C     0.78847   0.49318   0.91147   0.00000  Uiso   1.00
C857   C     0.87367   0.64515   0.72280   0.00000  Uiso   1.00
C858   C     0.80647   0.49803   0.85222   0.00000  Uiso   1.00
C859   C     0.87356   0.35460   0.72115   0.00000  Uiso   1.00
C860   C     0.83221   0.37595   0.75173   0.00000  Uiso   1.00
C861   C     0.79122   0.35528   0.78543   0.00000  Uiso   1.00
C862   C     0.79147   0.64566   0.78888   0.00000  Uiso   1.00
C863   C     0.83265   0.62410   0.75558   0.00000  Uiso   1.00
C864   C     0.98594   0.47427   0.71498   0.00000  Uiso   1.00
C865   C     0.70091   0.47450   0.71503   0.00000  Uiso   1.00
C866   C     0.81004   0.48849   0.99229   0.00000  Uiso   1.00
C867   C     0.68078   0.52479   0.78535   0.00000  Uiso   1.00
C868   C     0.96657   0.52527   0.78558   0.00000  Uiso   1.00
C869   C     0.83303   0.42007   0.75010   0.00000  Uiso   1.00
C870   C     0.86013   0.49976   0.64763   0.00000  Uiso   1.00
C871   C     0.92450   0.45472   0.50857   0.00000  Uiso   1.00
C872   C     0.87663   0.49340   0.58873   0.00000  Uiso   1.00
C873   C     0.74333   0.50938   0.94285   0.00000  Uiso   1.00
C874   C     0.73018   0.51185   0.99920   0.00000  Uiso   1.00
C875   C     0.76344   0.50241   0.52385   0.00000  Uiso   1.00
C876   C     0.81893   0.47712   0.93763   0.00000  Uiso   1.00
C877   C     0.84728   0.48413   0.51374   0.00000  Uiso   1.00
C878   C     0.88886   0.46051   0.98479   0.00000  Uiso   1.00
C879   C     0.89363   0.44302   0.93337   0.00000  Uiso   1.00
C880   C     0.85704   0.44944   0.91117   0.00000  Uiso   1.00
C881   C     0.84516   0.50429   0.56243   0.00000  Uiso   1.00
C882   C     0.91739   0.46975   0.56112   0.00000  Uiso   1.00
F883   F     0.94934   0.45974   0.58550   0.00000  Uiso   1.00
F884   F     0.75211   0.37690   0.81708   0.00000  Uiso   1.00
F885   F     0.73422   0.44902   0.68038   0.00000  Uiso   1.00
F886   F     0.96489   0.43250   0.98286   0.00000  Uiso   1.00
F887   F     0.81357   0.53569   0.58445   0.00000  Uiso   1.00
F888   F     0.71235   0.52353   0.91921   0.00000  Uiso   1.00
H889   H     0.90523   0.37099   0.69528   0.00000  Uiso   1.00
H890   H     0.87266   0.39974   0.86424   0.00000  Uiso   1.00
H891   H     0.69099   0.54469   0.81352   0.00000  Uiso   1.00
H892   H     0.75145   0.50468   0.56778   0.00000  Uiso   1.00
H893   H     0.69487   0.52291   0.52370   0.00000  Uiso   1.00
H894   H     0.90524   0.62842   0.69746   0.00000  Uiso   1.00
H895   H     0.76146   0.59925   0.83612   0.00000  Uiso   1.00
H896   H     0.99949   0.43163   0.65783   0.00000  Uiso   1.00
H897   H     0.90663   0.55472   0.81427   0.00000  Uiso   1.00
H898   H     0.94079   0.42346   0.86540   0.00000  Uiso   1.00
N899   N     0.71426   0.50001   0.75002   0.00000  Uiso   1.00
N900   N     0.95239   0.49998   0.75000   0.00000  Uiso   1.00
O901   O     0.79512   0.56108   0.75001   0.00000  Uiso   1.00
O902   O     0.97176   0.44837   0.68056   0.00000  Uiso   1.00
O903   O     0.93580   0.55176   0.82314   0.00000  Uiso   1.00
O904   O     0.93446   0.42077   0.90501   0.00000  Uiso   1.00
O905   O     0.85506   0.42624   0.86684   0.00000  Uiso   1.00
O906   O     0.87157   0.56107   0.75000   0.00000  Uiso   1.00
O907   O     0.77613   0.50000   0.82681   0.00000  Uiso   1.00
O908   O     0.85258   0.49999   0.82681   0.00000  Uiso   1.00
O909   O     0.79510   0.43893   0.74999   0.00000  Uiso   1.00
O910   O     0.87154   0.43892   0.74999   0.00000  Uiso   1.00
O911   O     0.81409   0.50001   0.67319   0.00000  Uiso   1.00
O912   O     0.89053   0.50000   0.67319   0.00000  Uiso   1.00
O913   O     0.75173   0.62630   0.82540   0.00000  Uiso   1.00
Zn914  Zn    0.78229   0.50001   0.75000   0.00000  Uiso   1.00
Zn915  Zn    0.88438   0.49999   0.75000   0.00000  Uiso   1.00
C916   C     0.16633   0.91324   0.75206   0.00000  Uiso   1.00
C917   C     0.12180   0.82651   0.91147   0.00000  Uiso   1.00
C918   C     0.20700   0.97848   0.72280   0.00000  Uiso   1.00
C919   C     0.13981   0.83136   0.85222   0.00000  Uiso   1.00
C920   C     0.20689   0.68793   0.72115   0.00000  Uiso   1.00
C921   C     0.16555   0.70929   0.75173   0.00000  Uiso   1.00
C922   C     0.12455   0.68861   0.78543   0.00000  Uiso   1.00
C923   C     0.12481   0.97900   0.78888   0.00000  Uiso   1.00
C924   C     0.16599   0.95743   0.75558   0.00000  Uiso   1.00
C925   C     0.31927   0.80761   0.71498   0.00000  Uiso   1.00
C926   C     0.03424   0.80784   0.71503   0.00000  Uiso   1.00
C927   C     0.14337   0.82182   0.99229   0.00000  Uiso   1.00
C928   C     0.01411   0.85812   0.78535   0.00000  Uiso   1.00
C929   C     0.29990   0.85860   0.78558   0.00000  Uiso   1.00
C930   C     0.16636   0.75340   0.75010   0.00000  Uiso   1.00
C931   C     0.19346   0.83309   0.64763   0.00000  Uiso   1.00
C932   C     0.25783   0.78805   0.50857   0.00000  Uiso   1.00
C933   C     0.20996   0.82673   0.58873   0.00000  Uiso   1.00
C934   C     0.07666   0.84271   0.94285   0.00000  Uiso   1.00
C935   C     0.06351   0.84519   0.99920   0.00000  Uiso   1.00
C936   C     0.09678   0.83574   0.52385   0.00000  Uiso   1.00
C937   C     0.15227   0.81045   0.93763   0.00000  Uiso   1.00
C938   C     0.18062   0.81747   0.51374   0.00000  Uiso   1.00
C939   C     0.22219   0.79384   0.98479   0.00000  Uiso   1.00
C940   C     0.22696   0.77636   0.93337   0.00000  Uiso   1.00
C941   C     0.19037   0.78278   0.91117   0.00000  Uiso   1.00
C942   C     0.17849   0.83763   0.56243   0.00000  Uiso   1.00
C943   C     0.25072   0.80308   0.56112   0.00000  Uiso   1.00
F944   F     0.28267   0.79307   0.58550   0.00000  Uiso   1.00
F945   F     0.08545   0.71023   0.81708   0.00000  Uiso   1.00
F946   F     0.06755   0.78236   0.68038   0.00000  Uiso   1.00
F947   F     0.29823   0.76583   0.98286   0.00000  Uiso   1.00
F948   F     0.14690   0.86902   0.58445   0.00000  Uiso   1.00
F949   F     0.04568   0.85686   0.91921   0.00000  Uiso   1.00
H950   H     0.23857   0.70433   0.69528   0.00000  Uiso   1.00
H951   H     0.20600   0.73307   0.86424   0.00000  Uiso   1.00
H952   H     0.02433   0.87803   0.81352   0.00000  Uiso   1.00
H953   H     0.08478   0.83801   0.56778   0.00000  Uiso   1.00
H954   H     0.02820   0.85624   0.52370   0.00000  Uiso   1.00
H955   H     0.23857   0.96175   0.69746   0.00000  Uiso   1.00
H956   H     0.09480   0.93258   0.83612   0.00000  Uiso   1.00
H957   H     0.33282   0.76496   0.65783   0.00000  Uiso   1.00
H958   H     0.23996   0.88805   0.81427   0.00000  Uiso   1.00
H959   H     0.27413   0.75679   0.86540   0.00000  Uiso   1.00
N960   N     0.04760   0.83334   0.75002   0.00000  Uiso   1.00
N961   N     0.28573   0.83331   0.75000   0.00000  Uiso   1.00
O962   O     0.12846   0.89442   0.75001   0.00000  Uiso   1.00
O963   O     0.30509   0.78170   0.68056   0.00000  Uiso   1.00
O964   O     0.26913   0.88510   0.82314   0.00000  Uiso   1.00
O965   O     0.26780   0.75411   0.90501   0.00000  Uiso   1.00
O966   O     0.18839   0.75958   0.86684   0.00000  Uiso   1.00
O967   O     0.20490   0.89441   0.75000   0.00000  Uiso   1.00
O968   O     0.10947   0.83333   0.82681   0.00000  Uiso   1.00
O969   O     0.18591   0.83332   0.82681   0.00000  Uiso   1.00
O970   O     0.12843   0.77226   0.74999   0.00000  Uiso   1.00
O971   O     0.20488   0.77225   0.74999   0.00000  Uiso   1.00
O972   O     0.14742   0.83335   0.67319   0.00000  Uiso   1.00
O973   O     0.22387   0.83334   0.67319   0.00000  Uiso   1.00
O974   O     0.08506   0.95963   0.82540   0.00000  Uiso   1.00
Zn975  Zn    0.11562   0.83334   0.75000   0.00000  Uiso   1.00
Zn976  Zn    0.21771   0.83333   0.75000   0.00000  Uiso   1.00
C977   C     0.49966   0.91324   0.75206   0.00000  Uiso   1.00
C978   C     0.45514   0.82651   0.91147   0.00000  Uiso   1.00
C979   C     0.54034   0.97848   0.72280   0.00000  Uiso   1.00
C980   C     0.47314   0.83136   0.85222   0.00000  Uiso   1.00
C981   C     0.54023   0.68793   0.72115   0.00000  Uiso   1.00
C982   C     0.49888   0.70929   0.75173   0.00000  Uiso   1.00
C983   C     0.45789   0.68861   0.78543   0.00000  Uiso   1.00
C984   C     0.45814   0.97900   0.78888   0.00000  Uiso   1.00
C985   C     0.49932   0.95743   0.75558   0.00000  Uiso   1.00
C986   C     0.65260   0.80761   0.71498   0.00000  Uiso   1.00
C987   C     0.36757   0.80784   0.71503   0.00000  Uiso   1.00
C988   C     0.47670   0.82182   0.99229   0.00000  Uiso   1.00
C989   C     0.34744   0.85812   0.78535   0.00000  Uiso   1.00
C990   C     0.63323   0.85860   0.78558   0.00000  Uiso   1.00
C991   C     0.49970   0.75340   0.75010   0.00000  Uiso   1.00
C992   C     0.52680   0.83309   0.64763   0.00000  Uiso   1.00
C993   C     0.59117   0.78805   0.50857   0.00000  Uiso   1.00
C994   C     0.54329   0.82673   0.58873   0.00000  Uiso   1.00
C995   C     0.40999   0.84271   0.94285   0.00000  Uiso   1.00
C996   C     0.39685   0.84519   0.99920   0.00000  Uiso   1.00
C997   C     0.43011   0.83574   0.52385   0.00000  Uiso   1.00
C998   C     0.48560   0.81045   0.93763   0.00000  Uiso   1.00
C999   C     0.51395   0.81747   0.51374   0.00000  Uiso   1.00
C1000  C     0.55553   0.79384   0.98479   0.00000  Uiso   1.00
C1001  C     0.56029   0.77636   0.93337   0.00000  Uiso   1.00
C1002  C     0.52371   0.78278   0.91117   0.00000  Uiso   1.00
C1003  C     0.51183   0.83763   0.56243   0.00000  Uiso   1.00
C1004  C     0.58406   0.80308   0.56112   0.00000  Uiso   1.00
F1005  F     0.61600   0.79307   0.58550   0.00000  Uiso   1.00
F1006  F     0.41878   0.71023   0.81708   0.00000  Uiso   1.00
F1007  F     0.40088   0.78236   0.68038   0.00000  Uiso   1.00
F1008  F     0.63156   0.76583   0.98286   0.00000  Uiso   1.00
F1009  F     0.48023   0.86902   0.58445   0.00000  Uiso   1.00
F1010  F     0.37902   0.85686   0.91921   0.00000  Uiso   1.00
H1011  H     0.57190   0.70433   0.69528   0.00000  Uiso   1.00
H1012  H     0.53933   0.73307   0.86424   0.00000  Uiso   1.00
H1013  H     0.35766   0.87803   0.81352   0.00000  Uiso   1.00
H1014  H     0.41811   0.83801   0.56778   0.00000  Uiso   1.00
H1015  H     0.36154   0.85624   0.52370   0.00000  Uiso   1.00
H1016  H     0.57191   0.96175   0.69746   0.00000  Uiso   1.00
H1017  H     0.42813   0.93258   0.83612   0.00000  Uiso   1.00
H1018  H     0.66616   0.76496   0.65783   0.00000  Uiso   1.00
H1019  H     0.57329   0.88805   0.81427   0.00000  Uiso   1.00
H1020  H     0.60746   0.75679   0.86540   0.00000  Uiso   1.00
N1021  N     0.38093   0.83334   0.75002   0.00000  Uiso   1.00
N1022  N     0.61906   0.83331   0.75000   0.00000  Uiso   1.00
O1023  O     0.46179   0.89442   0.75001   0.00000  Uiso   1.00
O1024  O     0.63843   0.78170   0.68056   0.00000  Uiso   1.00
O1025  O     0.60247   0.88510   0.82314   0.00000  Uiso   1.00
O1026  O     0.60113   0.75411   0.90501   0.00000  Uiso   1.00
O1027  O     0.52173   0.75958   0.86684   0.00000  Uiso   1.00
O1028  O     0.53823   0.89441   0.75000   0.00000  Uiso   1.00
O1029  O     0.44280   0.83333   0.82681   0.00000  Uiso   1.00
O1030  O     0.51924   0.83332   0.82681   0.00000  Uiso   1.00
O1031  O     0.46177   0.77226   0.74999   0.00000  Uiso   1.00
O1032  O     0.53821   0.77225   0.74999   0.00000  Uiso   1.00
O1033  O     0.48076   0.83335   0.67319   0.00000  Uiso   1.00
O1034  O     0.55720   0.83334   0.67319   0.00000  Uiso   1.00
O1035  O     0.41840   0.95963   0.82540   0.00000  Uiso   1.00
Zn1036 Zn    0.44896   0.83334   0.75000   0.00000  Uiso   1.00
Zn1037 Zn    0.55104   0.83333   0.75000   0.00000  Uiso   1.00
C1038  C     0.83299   0.91324   0.75206   0.00000  Uiso   1.00
C1039  C     0.78847   0.82651   0.91147   0.00000  Uiso   1.00
C1040  C     0.87367   0.97848   0.72280   0.00000  Uiso   1.00
C1041  C     0.80647   0.83136   0.85222   0.00000  Uiso   1.00
C1042  C     0.87356   0.68793   0.72115   0.00000  Uiso   1.00
C1043  C     0.83221   0.70929   0.75173   0.00000  Uiso   1.00
C1044  C     0.79122   0.68861   0.78543   0.00000  Uiso   1.00
C1045  C     0.79147   0.97900   0.78888   0.00000  Uiso   1.00
C1046  C     0.83265   0.95743   0.75558   0.00000  Uiso   1.00
C1047  C     0.98594   0.80761   0.71498   0.00000  Uiso   1.00
C1048  C     0.70091   0.80784   0.71503   0.00000  Uiso   1.00
C1049  C     0.81004   0.82182   0.99229   0.00000  Uiso   1.00
C1050  C     0.68078   0.85812   0.78535   0.00000  Uiso   1.00
C1051  C     0.96657   0.85860   0.78558   0.00000  Uiso   1.00
C1052  C     0.83303   0.75340   0.75010   0.00000  Uiso   1.00
C1053  C     0.86013   0.83309   0.64763   0.00000  Uiso   1.00
C1054  C     0.92450   0.78805   0.50857   0.00000  Uiso   1.00
C1055  C     0.87663   0.82673   0.58873   0.00000  Uiso   1.00
C1056  C     0.74333   0.84271   0.94285   0.00000  Uiso   1.00
C1057  C     0.73018   0.84519   0.99920   0.00000  Uiso   1.00
C1058  C     0.76344   0.83574   0.52385   0.00000  Uiso   1.00
C1059  C     0.81893   0.81045   0.93763   0.00000  Uiso   1.00
C1060  C     0.84728   0.81747   0.51374   0.00000  Uiso   1.00
C1061  C     0.88886   0.79384   0.98479   0.00000  Uiso   1.00
C1062  C     0.89363   0.77636   0.93337   0.00000  Uiso   1.00
C1063  C     0.85704   0.78278   0.91117   0.00000  Uiso   1.00
C1064  C     0.84516   0.83763   0.56243   0.00000  Uiso   1.00
C1065  C     0.91739   0.80308   0.56112   0.00000  Uiso   1.00
F1066  F     0.94934   0.79307   0.58550   0.00000  Uiso   1.00
F1067  F     0.75211   0.71023   0.81708   0.00000  Uiso   1.00
F1068  F     0.73422   0.78236   0.68038   0.00000  Uiso   1.00
F1069  F     0.96489   0.76583   0.98286   0.00000  Uiso   1.00
F1070  F     0.81357   0.86902   0.58445   0.00000  Uiso   1.00
F1071  F     0.71235   0.85686   0.91921   0.00000  Uiso   1.00
H1072  H     0.90523   0.70433   0.69528   0.00000  Uiso   1.00
H1073  H     0.87266   0.73307   0.86424   0.00000  Uiso   1.00
H1074  H     0.69099   0.87803   0.81352   0.00000  Uiso   1.00
H1075  H     0.75145   0.83801   0.56778   0.00000  Uiso   1.00
H1076  H     0.69487   0.85624   0.52370   0.00000  Uiso   1.00
H1077  H     0.90524   0.96175   0.69746   0.00000  Uiso   1.00
H1078  H     0.76146   0.93258   0.83612   0.00000  Uiso   1.00
H1079  H     0.99949   0.76496   0.65783   0.00000  Uiso   1.00
H1080  H     0.90663   0.88805   0.81427   0.00000  Uiso   1.00
H1081  H     0.94079   0.75679   0.86540   0.00000  Uiso   1.00
N1082  N     0.71426   0.83334   0.75002   0.00000  Uiso   1.00
N1083  N     0.95239   0.83331   0.75000   0.00000  Uiso   1.00
O1084  O     0.79512   0.89442   0.75001   0.00000  Uiso   1.00
O1085  O     0.97176   0.78170   0.68056   0.00000  Uiso   1.00
O1086  O     0.93580   0.88510   0.82314   0.00000  Uiso   1.00
O1087  O     0.93446   0.75411   0.90501   0.00000  Uiso   1.00
O1088  O     0.85506   0.75958   0.86684   0.00000  Uiso   1.00
O1089  O     0.87157   0.89441   0.75000   0.00000  Uiso   1.00
O1090  O     0.77613   0.83333   0.82681   0.00000  Uiso   1.00
O1091  O     0.85258   0.83332   0.82681   0.00000  Uiso   1.00
O1092  O     0.79510   0.77226   0.74999   0.00000  Uiso   1.00
O1093  O     0.87154   0.77225   0.74999   0.00000  Uiso   1.00
O1094  O     0.81409   0.83335   0.67319   0.00000  Uiso   1.00
O1095  O     0.89053   0.83334   0.67319   0.00000  Uiso   1.00
O1096  O     0.75173   0.95963   0.82540   0.00000  Uiso   1.00
Zn1097 Zn    0.78229   0.83334   0.75000   0.00000  Uiso   1.00
Zn1098 Zn    0.88438   0.83333   0.75000   0.00000  Uiso   1.00
loop_
_geom_bond_atom_site_label_1
_geom_bond_atom_site_label_2
_geom_bond_distance
_geom_bond_site_symmetry_2
_ccdc_geom_bond_type
C1     O52     1.285   .     A
C1     C9      1.414   .     S
C1     O47     1.285   .     A
C2     C4      1.463   .     S
C2     C22     1.414   .     A
C2     C19     1.408   .     A
C3     C9      1.395   .     A
C3     H40     1.084   .     S
C3     C188    1.369   .     S
C4     O53     1.293   .     A
C4     O54     1.300   .     A
C5     H35     1.084   .     S
C5     C6      1.392   .     A
C5     C369    1.369   1_545 S
C6     C7      1.397   .     A
C6     C15     1.411   .     S
C7     F30     1.360   .     S
C7     C374    1.377   1_545 S
C8     O59     1.382   .     S
C8     C9      1.412   .     A
C8     C190    1.377   .     S
C10    N46     1.368   .     A
C10    O48     1.378   .     S
C10    C72     1.434   .     S
C11    F31     1.356   .     S
C11    N45     1.369   .     A
C11    C132    1.434   1_455 S
C12    C22     1.403   .     A
C12    C570    1.417   .     S
C12    C572    1.411   .     S
C13    H37     1.083   .     S
C13    N45     1.353   .     A
C13    C136    1.409   1_455 S
C14    N46     1.389   .     A
C14    O49     1.374   .     S
C14    C74     1.409   .     S
C15    O56     1.284   .     A
C15    O55     1.285   .     A
C16    O57     1.298   .     A
C16    O58     1.295   .     A
C16    C18     1.457   .     S
C17    C28     1.394   .     A
C17    C573    1.415   1_554 S
C17    F581    1.358   1_554 S
C18    C27     1.388   .     A
C18    C28     1.400   .     A
C19    C20     1.388   .     A
C19    F34     1.358   .     S
C20    C570    1.391   .     S
C20    H588    1.083   .     S
C21    H38     1.080   .     S
C21    C561    1.417   1_554 S
C21    C569    1.391   1_554 S
C22    C26     1.417   .     A
C23    C27     1.399   .     A
C23    C561    1.411   1_554 S
C23    C573    1.424   1_554 S
C24    C25     1.408   .     A
C24    C566    1.415   .     S
C24    C572    1.424   .     S
C25    C26     1.415   .     A
C25    O50     1.382   .     S
C26    O51     1.383   .     S
C27    F33     1.361   .     S
C28    F29     1.356   .     S
F32    C566    1.358   .     S
H36    O51     0.990   .     S
H39    C569    1.083   1_554 S
H41    O59     0.990   .     S
H42    O48     0.990   .     S
H43    O49     0.977   .     S
H44    O50     0.991   .     S
N45    Zn60    2.019   .     S
N46    Zn61    2.019   .     S
O47    Zn60    1.984   .     S
O52    Zn61    1.994   .     S
O53    Zn60    1.952   .     S
O54    Zn61    1.901   .     S
O55    Zn60    1.994   .     S
O56    Zn61    1.984   .     S
O57    Zn60    1.901   .     S
O58    Zn61    1.952   .     S
C62    O113    1.285   .     A
C62    C70     1.414   .     S
C62    O108    1.285   .     A
C63    C65     1.463   .     S
C63    C83     1.414   .     A
C63    C80     1.408   .     A
C64    C70     1.395   .     A
C64    H101    1.084   .     S
C64    C249    1.369   .     S
C65    O114    1.293   .     A
C65    O115    1.300   .     A
C66    H96     1.084   .     S
C66    C67     1.392   .     A
C66    C430    1.369   1_545 S
C67    C68     1.397   .     A
C67    C76     1.411   .     S
C68    F91     1.360   .     S
C68    C435    1.377   1_545 S
C69    O120    1.382   .     S
C69    C70     1.412   .     A
C69    C251    1.377   .     S
C71    N107    1.368   .     A
C71    O109    1.378   .     S
C71    C133    1.434   .     S
C72    F92     1.356   .     S
C72    N106    1.369   .     A
C73    C83     1.403   .     A
C73    C631    1.417   .     S
C73    C633    1.411   .     S
C74    H98     1.083   .     S
C74    N106    1.353   .     A
C75    N107    1.389   .     A
C75    O110    1.374   .     S
C75    C135    1.409   .     S
C76    O117    1.284   .     A
C76    O116    1.285   .     A
C77    O118    1.298   .     A
C77    O119    1.295   .     A
C77    C79     1.457   .     S
C78    C89     1.394   .     A
C78    C634    1.415   1_554 S
C78    F642    1.358   1_554 S
C79    C88     1.388   .     A
C79    C89     1.400   .     A
C80    C81     1.388   .     A
C80    F95     1.358   .     S
C81    C631    1.391   .     S
C81    H649    1.083   .     S
C82    H99     1.080   .     S
C82    C622    1.417   1_554 S
C82    C630    1.391   1_554 S
C83    C87     1.417   .     A
C84    C88     1.399   .     A
C84    C622    1.411   1_554 S
C84    C634    1.424   1_554 S
C85    C86     1.408   .     A
C85    C627    1.415   .     S
C85    C633    1.424   .     S
C86    C87     1.415   .     A
C86    O111    1.382   .     S
C87    O112    1.383   .     S
C88    F94     1.361   .     S
C89    F90     1.356   .     S
F93    C627    1.358   .     S
H97    O112    0.990   .     S
H100   C630    1.083   1_554 S
H102   O120    0.990   .     S
H103   O109    0.990   .     S
H104   O110    0.977   .     S
H105   O111    0.991   .     S
N106   Zn121   2.019   .     S
N107   Zn122   2.019   .     S
O108   Zn121   1.984   .     S
O113   Zn122   1.994   .     S
O114   Zn121   1.952   .     S
O115   Zn122   1.901   .     S
O116   Zn121   1.994   .     S
O117   Zn122   1.984   .     S
O118   Zn121   1.901   .     S
O119   Zn122   1.952   .     S
C123   O174    1.285   .     A
C123   C131    1.414   .     S
C123   O169    1.285   .     A
C124   C126    1.463   .     S
C124   C144    1.414   .     A
C124   C141    1.408   .     A
C125   C131    1.395   .     A
C125   H162    1.084   .     S
C125   C310    1.369   .     S
C126   O175    1.293   .     A
C126   O176    1.300   .     A
C127   H157    1.084   .     S
C127   C128    1.392   .     A
C127   C491    1.369   1_545 S
C128   C129    1.397   .     A
C128   C137    1.411   .     S
C129   F152    1.360   .     S
C129   C496    1.377   1_545 S
C130   O181    1.382   .     S
C130   C131    1.412   .     A
C130   C312    1.377   .     S
C132   N168    1.368   .     A
C132   O170    1.378   .     S
C132   C11     1.434   1_655 S
C133   F153    1.356   .     S
C133   N167    1.369   .     A
C134   C144    1.403   .     A
C134   C692    1.417   .     S
C134   C694    1.411   .     S
C135   H159    1.083   .     S
C135   N167    1.353   .     A
C136   N168    1.389   .     A
C136   O171    1.374   .     S
C136   C13     1.409   1_655 S
C137   O178    1.284   .     A
C137   O177    1.285   .     A
C138   O179    1.298   .     A
C138   O180    1.295   .     A
C138   C140    1.457   .     S
C139   C150    1.394   .     A
C139   C695    1.415   1_554 S
C139   F703    1.358   1_554 S
C140   C149    1.388   .     A
C140   C150    1.400   .     A
C141   C142    1.388   .     A
C141   F156    1.358   .     S
C142   C692    1.391   .     S
C142   H710    1.083   .     S
C143   H160    1.080   .     S
C143   C683    1.417   1_554 S
C143   C691    1.391   1_554 S
C144   C148    1.417   .     A
C145   C149    1.399   .     A
C145   C683    1.411   1_554 S
C145   C695    1.424   1_554 S
C146   C147    1.408   .     A
C146   C688    1.415   .     S
C146   C694    1.424   .     S
C147   C148    1.415   .     A
C147   O172    1.382   .     S
C148   O173    1.383   .     S
C149   F155    1.361   .     S
C150   F151    1.356   .     S
F154   C688    1.358   .     S
H158   O173    0.990   .     S
H161   C691    1.083   1_554 S
H163   O181    0.990   .     S
H164   O170    0.990   .     S
H165   O171    0.977   .     S
H166   O172    0.991   .     S
N167   Zn182   2.019   .     S
N168   Zn183   2.019   .     S
O169   Zn182   1.984   .     S
O174   Zn183   1.994   .     S
O175   Zn182   1.952   .     S
O176   Zn183   1.901   .     S
O177   Zn182   1.994   .     S
O178   Zn183   1.984   .     S
O179   Zn182   1.901   .     S
O180   Zn183   1.952   .     S
C184   O235    1.285   .     A
C184   C192    1.414   .     S
C184   O230    1.285   .     A
C185   C187    1.463   .     S
C185   C205    1.414   .     A
C185   C202    1.408   .     A
C186   C192    1.395   .     A
C186   H223    1.084   .     S
C186   C371    1.369   .     S
C187   O236    1.293   .     A
C187   O237    1.300   .     A
C188   H218    1.084   .     S
C188   C189    1.392   .     A
C189   C190    1.397   .     A
C189   C198    1.411   .     S
C190   F213    1.360   .     S
C191   O242    1.382   .     S
C191   C192    1.412   .     A
C191   C373    1.377   .     S
C193   N229    1.368   .     A
C193   O231    1.378   .     S
C193   C255    1.434   .     S
C194   F214    1.356   .     S
C194   N228    1.369   .     A
C194   C315    1.434   1_455 S
C195   C205    1.403   .     A
C195   C753    1.417   .     S
C195   C755    1.411   .     S
C196   H220    1.083   .     S
C196   N228    1.353   .     A
C196   C319    1.409   1_455 S
C197   N229    1.389   .     A
C197   O232    1.374   .     S
C197   C257    1.409   .     S
C198   O239    1.284   .     A
C198   O238    1.285   .     A
C199   O240    1.298   .     A
C199   O241    1.295   .     A
C199   C201    1.457   .     S
C200   C211    1.394   .     A
C200   C756    1.415   1_554 S
C200   F764    1.358   1_554 S
C201   C210    1.388   .     A
C201   C211    1.400   .     A
C202   C203    1.388   .     A
C202   F217    1.358   .     S
C203   C753    1.391   .     S
C203   H771    1.083   .     S
C204   H221    1.080   .     S
C204   C744    1.417   1_554 S
C204   C752    1.391   1_554 S
C205   C209    1.417   .     A
C206   C210    1.399   .     A
C206   C744    1.411   1_554 S
C206   C756    1.424   1_554 S
C207   C208    1.408   .     A
C207   C749    1.415   .     S
C207   C755    1.424   .     S
C208   C209    1.415   .     A
C208   O233    1.382   .     S
C209   O234    1.383   .     S
C210   F216    1.361   .     S
C211   F212    1.356   .     S
F215   C749    1.358   .     S
H219   O234    0.990   .     S
H222   C752    1.083   1_554 S
H224   O242    0.990   .     S
H225   O231    0.990   .     S
H226   O232    0.977   .     S
H227   O233    0.991   .     S
N228   Zn243   2.019   .     S
N229   Zn244   2.019   .     S
O230   Zn243   1.984   .     S
O235   Zn244   1.994   .     S
O236   Zn243   1.952   .     S
O237   Zn244   1.901   .     S
O238   Zn243   1.994   .     S
O239   Zn244   1.984   .     S
O240   Zn243   1.901   .     S
O241   Zn244   1.952   .     S
C245   O296    1.285   .     A
C245   C253    1.414   .     S
C245   O291    1.285   .     A
C246   C248    1.463   .     S
C246   C266    1.414   .     A
C246   C263    1.408   .     A
C247   C253    1.395   .     A
C247   H284    1.084   .     S
C247   C432    1.369   .     S
C248   O297    1.293   .     A
C248   O298    1.300   .     A
C249   H279    1.084   .     S
C249   C250    1.392   .     A
C250   C251    1.397   .     A
C250   C259    1.411   .     S
C251   F274    1.360   .     S
C252   O303    1.382   .     S
C252   C253    1.412   .     A
C252   C434    1.377   .     S
C254   N290    1.368   .     A
C254   O292    1.378   .     S
C254   C316    1.434   .     S
C255   F275    1.356   .     S
C255   N289    1.369   .     A
C256   C266    1.403   .     A
C256   C814    1.417   .     S
C256   C816    1.411   .     S
C257   H281    1.083   .     S
C257   N289    1.353   .     A
C258   N290    1.389   .     A
C258   O293    1.374   .     S
C258   C318    1.409   .     S
C259   O300    1.284   .     A
C259   O299    1.285   .     A
C260   O301    1.298   .     A
C260   O302    1.295   .     A
C260   C262    1.457   .     S
C261   C272    1.394   .     A
C261   C817    1.415   1_554 S
C261   F825    1.358   1_554 S
C262   C271    1.388   .     A
C262   C272    1.400   .     A
C263   C264    1.388   .     A
C263   F278    1.358   .     S
C264   C814    1.391   .     S
C264   H832    1.083   .     S
C265   H282    1.080   .     S
C265   C805    1.417   1_554 S
C265   C813    1.391   1_554 S
C266   C270    1.417   .     A
C267   C271    1.399   .     A
C267   C805    1.411   1_554 S
C267   C817    1.424   1_554 S
C268   C269    1.408   .     A
C268   C810    1.415   .     S
C268   C816    1.424   .     S
C269   C270    1.415   .     A
C269   O294    1.382   .     S
C270   O295    1.383   .     S
C271   F277    1.361   .     S
C272   F273    1.356   .     S
F276   C810    1.358   .     S
H280   O295    0.990   .     S
H283   C813    1.083   1_554 S
H285   O303    0.990   .     S
H286   O292    0.990   .     S
H287   O293    0.977   .     S
H288   O294    0.991   .     S
N289   Zn304   2.019   .     S
N290   Zn305   2.019   .     S
O291   Zn304   1.984   .     S
O296   Zn305   1.994   .     S
O297   Zn304   1.952   .     S
O298   Zn305   1.901   .     S
O299   Zn304   1.994   .     S
O300   Zn305   1.984   .     S
O301   Zn304   1.901   .     S
O302   Zn305   1.952   .     S
C306   O357    1.285   .     A
C306   C314    1.414   .     S
C306   O352    1.285   .     A
C307   C309    1.463   .     S
C307   C327    1.414   .     A
C307   C324    1.408   .     A
C308   C314    1.395   .     A
C308   H345    1.084   .     S
C308   C493    1.369   .     S
C309   O358    1.293   .     A
C309   O359    1.300   .     A
C310   H340    1.084   .     S
C310   C311    1.392   .     A
C311   C312    1.397   .     A
C311   C320    1.411   .     S
C312   F335    1.360   .     S
C313   O364    1.382   .     S
C313   C314    1.412   .     A
C313   C495    1.377   .     S
C315   N351    1.368   .     A
C315   O353    1.378   .     S
C315   C194    1.434   1_655 S
C316   F336    1.356   .     S
C316   N350    1.369   .     A
C317   C327    1.403   .     A
C317   C875    1.417   .     S
C317   C877    1.411   .     S
C318   H342    1.083   .     S
C318   N350    1.353   .     A
C319   N351    1.389   .     A
C319   O354    1.374   .     S
C319   C196    1.409   1_655 S
C320   O361    1.284   .     A
C320   O360    1.285   .     A
C321   O362    1.298   .     A
C321   O363    1.295   .     A
C321   C323    1.457   .     S
C322   C333    1.394   .     A
C322   C878    1.415   1_554 S
C322   F886    1.358   1_554 S
C323   C332    1.388   .     A
C323   C333    1.400   .     A
C324   C325    1.388   .     A
C324   F339    1.358   .     S
C325   C875    1.391   .     S
C325   H893    1.083   .     S
C326   H343    1.080   .     S
C326   C866    1.417   1_554 S
C326   C874    1.391   1_554 S
C327   C331    1.417   .     A
C328   C332    1.399   .     A
C328   C866    1.411   1_554 S
C328   C878    1.424   1_554 S
C329   C330    1.408   .     A
C329   C871    1.415   .     S
C329   C877    1.424   .     S
C330   C331    1.415   .     A
C330   O355    1.382   .     S
C331   O356    1.383   .     S
C332   F338    1.361   .     S
C333   F334    1.356   .     S
F337   C871    1.358   .     S
H341   O356    0.990   .     S
H344   C874    1.083   1_554 S
H346   O364    0.990   .     S
H347   O353    0.990   .     S
H348   O354    0.977   .     S
H349   O355    0.991   .     S
N350   Zn365   2.019   .     S
N351   Zn366   2.019   .     S
O352   Zn365   1.984   .     S
O357   Zn366   1.994   .     S
O358   Zn365   1.952   .     S
O359   Zn366   1.901   .     S
O360   Zn365   1.994   .     S
O361   Zn366   1.984   .     S
O362   Zn365   1.901   .     S
O363   Zn366   1.952   .     S
C367   O418    1.285   .     A
C367   C375    1.414   .     S
C367   O413    1.285   .     A
C368   C370    1.463   .     S
C368   C388    1.414   .     A
C368   C385    1.408   .     A
C369   C375    1.395   .     A
C369   H406    1.084   .     S
C369   C5      1.369   1_565 S
C370   O419    1.293   .     A
C370   O420    1.300   .     A
C371   H401    1.084   .     S
C371   C372    1.392   .     A
C372   C373    1.397   .     A
C372   C381    1.411   .     S
C373   F396    1.360   .     S
C374   O425    1.382   .     S
C374   C375    1.412   .     A
C374   C7      1.377   1_565 S
C376   N412    1.368   .     A
C376   O414    1.378   .     S
C376   C438    1.434   .     S
C377   F397    1.356   .     S
C377   N411    1.369   .     A
C377   C498    1.434   1_455 S
C378   C388    1.403   .     A
C378   C936    1.417   .     S
C378   C938    1.411   .     S
C379   H403    1.083   .     S
C379   N411    1.353   .     A
C379   C502    1.409   1_455 S
C380   N412    1.389   .     A
C380   O415    1.374   .     S
C380   C440    1.409   .     S
C381   O422    1.284   .     A
C381   O421    1.285   .     A
C382   O423    1.298   .     A
C382   O424    1.295   .     A
C382   C384    1.457   .     S
C383   C394    1.394   .     A
C383   C939    1.415   1_554 S
C383   F947    1.358   1_554 S
C384   C393    1.388   .     A
C384   C394    1.400   .     A
C385   C386    1.388   .     A
C385   F400    1.358   .     S
C386   C936    1.391   .     S
C386   H954    1.083   .     S
C387   H404    1.080   .     S
C387   C927    1.417   1_554 S
C387   C935    1.391   1_554 S
C388   C392    1.417   .     A
C389   C393    1.399   .     A
C389   C927    1.411   1_554 S
C389   C939    1.424   1_554 S
C390   C391    1.408   .     A
C390   C932    1.415   .     S
C390   C938    1.424   .     S
C391   C392    1.415   .     A
C391   O416    1.382   .     S
C392   O417    1.383   .     S
C393   F399    1.361   .     S
C394   F395    1.356   .     S
F398   C932    1.358   .     S
H402   O417    0.990   .     S
H405   C935    1.083   1_554 S
H407   O425    0.990   .     S
H408   O414    0.990   .     S
H409   O415    0.977   .     S
H410   O416    0.991   .     S
N411   Zn426   2.019   .     S
N412   Zn427   2.019   .     S
O413   Zn426   1.984   .     S
O418   Zn427   1.994   .     S
O419   Zn426   1.952   .     S
O420   Zn427   1.901   .     S
O421   Zn426   1.994   .     S
O422   Zn427   1.984   .     S
O423   Zn426   1.901   .     S
O424   Zn427   1.952   .     S
C428   O479    1.285   .     A
C428   C436    1.414   .     S
C428   O474    1.285   .     A
C429   C431    1.463   .     S
C429   C449    1.414   .     A
C429   C446    1.408   .     A
C430   C436    1.395   .     A
C430   H467    1.084   .     S
C430   C66     1.369   1_565 S
C431   O480    1.293   .     A
C431   O481    1.300   .     A
C432   H462    1.084   .     S
C432   C433    1.392   .     A
C433   C434    1.397   .     A
C433   C442    1.411   .     S
C434   F457    1.360   .     S
C435   O486    1.382   .     S
C435   C436    1.412   .     A
C435   C68     1.377   1_565 S
C437   N473    1.368   .     A
C437   O475    1.378   .     S
C437   C499    1.434   .     S
C438   F458    1.356   .     S
C438   N472    1.369   .     A
C439   C449    1.403   .     A
C439   C997    1.417   .     S
C439   C999    1.411   .     S
C440   H464    1.083   .     S
C440   N472    1.353   .     A
C441   N473    1.389   .     A
C441   O476    1.374   .     S
C441   C501    1.409   .     S
C442   O483    1.284   .     A
C442   O482    1.285   .     A
C443   O484    1.298   .     A
C443   O485    1.295   .     A
C443   C445    1.457   .     S
C444   C455    1.394   .     A
C444   C1000   1.415   1_554 S
C444   F1008   1.358   1_554 S
C445   C454    1.388   .     A
C445   C455    1.400   .     A
C446   C447    1.388   .     A
C446   F461    1.358   .     S
C447   C997    1.391   .     S
C447   H1015   1.083   .     S
C448   H465    1.080   .     S
C448   C988    1.417   1_554 S
C448   C996    1.391   1_554 S
C449   C453    1.417   .     A
C450   C454    1.399   .     A
C450   C988    1.411   1_554 S
C450   C1000   1.424   1_554 S
C451   C452    1.408   .     A
C451   C993    1.415   .     S
C451   C999    1.424   .     S
C452   C453    1.415   .     A
C452   O477    1.382   .     S
C453   O478    1.383   .     S
C454   F460    1.361   .     S
C455   F456    1.356   .     S
F459   C993    1.358   .     S
H463   O478    0.990   .     S
H466   C996    1.083   1_554 S
H468   O486    0.990   .     S
H469   O475    0.990   .     S
H470   O476    0.977   .     S
H471   O477    0.991   .     S
N472   Zn487   2.019   .     S
N473   Zn488   2.019   .     S
O474   Zn487   1.984   .     S
O479   Zn488   1.994   .     S
O480   Zn487   1.952   .     S
O481   Zn488   1.901   .     S
O482   Zn487   1.994   .     S
O483   Zn488   1.984   .     S
O484   Zn487   1.901   .     S
O485   Zn488   1.952   .     S
C489   O540    1.285   .     A
C489   C497    1.414   .     S
C489   O535    1.285   .     A
C490   C492    1.463   .     S
C490   C510    1.414   .     A
C490   C507    1.408   .     A
C491   C497    1.395   .     A
C491   H528    1.084   .     S
C491   C127    1.369   1_565 S
C492   O541    1.293   .     A
C492   O542    1.300   .     A
C493   H523    1.084   .     S
C493   C494    1.392   .     A
C494   C495    1.397   .     A
C494   C503    1.411   .     S
C495   F518    1.360   .     S
C496   O547    1.382   .     S
C496   C497    1.412   .     A
C496   C129    1.377   1_565 S
C498   N534    1.368   .     A
C498   O536    1.378   .     S
C498   C377    1.434   1_655 S
C499   F519    1.356   .     S
C499   N533    1.369   .     A
C500   C510    1.403   .     A
C500   C1058   1.417   .     S
C500   C1060   1.411   .     S
C501   H525    1.083   .     S
C501   N533    1.353   .     A
C502   N534    1.389   .     A
C502   O537    1.374   .     S
C502   C379    1.409   1_655 S
C503   O544    1.284   .     A
C503   O543    1.285   .     A
C504   O545    1.298   .     A
C504   O546    1.295   .     A
C504   C506    1.457   .     S
C505   C516    1.394   .     A
C505   C1061   1.415   1_554 S
C505   F1069   1.358   1_554 S
C506   C515    1.388   .     A
C506   C516    1.400   .     A
C507   C508    1.388   .     A
C507   F522    1.358   .     S
C508   C1058   1.391   .     S
C508   H1076   1.083   .     S
C509   H526    1.080   .     S
C509   C1049   1.417   1_554 S
C509   C1057   1.391   1_554 S
C510   C514    1.417   .     A
C511   C515    1.399   .     A
C511   C1049   1.411   1_554 S
C511   C1061   1.424   1_554 S
C512   C513    1.408   .     A
C512   C1054   1.415   .     S
C512   C1060   1.424   .     S
C513   C514    1.415   .     A
C513   O538    1.382   .     S
C514   O539    1.383   .     S
C515   F521    1.361   .     S
C516   F517    1.356   .     S
F520   C1054   1.358   .     S
H524   O539    0.990   .     S
H527   C1057   1.083   1_554 S
H529   O547    0.990   .     S
H530   O536    0.990   .     S
H531   O537    0.977   .     S
H532   O538    0.991   .     S
N533   Zn548   2.019   .     S
N534   Zn549   2.019   .     S
O535   Zn548   1.984   .     S
O540   Zn549   1.994   .     S
O541   Zn548   1.952   .     S
O542   Zn549   1.901   .     S
O543   Zn548   1.994   .     S
O544   Zn549   1.984   .     S
O545   Zn548   1.901   .     S
O546   Zn549   1.952   .     S
C550   O601    1.285   .     A
C550   C558    1.414   .     S
C550   O596    1.285   .     A
C551   C553    1.463   .     S
C551   C571    1.414   .     A
C551   C568    1.408   .     A
C552   C558    1.395   .     A
C552   H589    1.084   .     S
C552   C737    1.369   .     S
C553   O602    1.293   .     A
C553   O603    1.300   .     A
C554   H584    1.084   .     S
C554   C555    1.392   .     A
C554   C918    1.369   1_545 S
C555   C556    1.397   .     A
C555   C564    1.411   .     S
C556   F579    1.360   .     S
C556   C923    1.377   1_545 S
C557   O608    1.382   .     S
C557   C558    1.412   .     A
C557   C739    1.377   .     S
C559   N595    1.368   .     A
C559   O597    1.378   .     S
C559   C621    1.434   .     S
C560   F580    1.356   .     S
C560   N594    1.369   .     A
C560   C681    1.434   1_455 S
C561   C571    1.403   .     A
C561   C21     1.417   1_556 S
C561   C23     1.411   1_556 S
C562   H586    1.083   .     S
C562   N594    1.353   .     A
C562   C685    1.409   1_455 S
C563   N595    1.389   .     A
C563   O598    1.374   .     S
C563   C623    1.409   .     S
C564   O605    1.284   .     A
C564   O604    1.285   .     A
C565   O606    1.298   .     A
C565   O607    1.295   .     A
C565   C567    1.457   .     S
C566   C577    1.394   .     A
C567   C576    1.388   .     A
C567   C577    1.400   .     A
C568   C569    1.388   .     A
C568   F583    1.358   .     S
C569   C21     1.391   1_556 S
C569   H39     1.083   1_556 S
C570   H587    1.080   .     S
C571   C575    1.417   .     A
C572   C576    1.399   .     A
C573   C574    1.408   .     A
C573   C17     1.415   1_556 S
C573   C23     1.424   1_556 S
C574   C575    1.415   .     A
C574   O599    1.382   .     S
C575   O600    1.383   .     S
C576   F582    1.361   .     S
C577   F578    1.356   .     S
F581   C17     1.358   1_556 S
H585   O600    0.990   .     S
H590   O608    0.990   .     S
H591   O597    0.990   .     S
H592   O598    0.977   .     S
H593   O599    0.991   .     S
N594   Zn609   2.019   .     S
N595   Zn610   2.019   .     S
O596   Zn609   1.984   .     S
O601   Zn610   1.994   .     S
O602   Zn609   1.952   .     S
O603   Zn610   1.901   .     S
O604   Zn609   1.994   .     S
O605   Zn610   1.984   .     S
O606   Zn609   1.901   .     S
O607   Zn610   1.952   .     S
C611   O662    1.285   .     A
C611   C619    1.414   .     S
C611   O657    1.285   .     A
C612   C614    1.463   .     S
C612   C632    1.414   .     A
C612   C629    1.408   .     A
C613   C619    1.395   .     A
C613   H650    1.084   .     S
C613   C798    1.369   .     S
C614   O663    1.293   .     A
C614   O664    1.300   .     A
C615   H645    1.084   .     S
C615   C616    1.392   .     A
C615   C979    1.369   1_545 S
C616   C617    1.397   .     A
C616   C625    1.411   .     S
C617   F640    1.360   .     S
C617   C984    1.377   1_545 S
C618   O669    1.382   .     S
C618   C619    1.412   .     A
C618   C800    1.377   .     S
C620   N656    1.368   .     A
C620   O658    1.378   .     S
C620   C682    1.434   .     S
C621   F641    1.356   .     S
C621   N655    1.369   .     A
C622   C632    1.403   .     A
C622   C82     1.417   1_556 S
C622   C84     1.411   1_556 S
C623   H647    1.083   .     S
C623   N655    1.353   .     A
C624   N656    1.389   .     A
C624   O659    1.374   .     S
C624   C684    1.409   .     S
C625   O666    1.284   .     A
C625   O665    1.285   .     A
C626   O667    1.298   .     A
C626   O668    1.295   .     A
C626   C628    1.457   .     S
C627   C638    1.394   .     A
C628   C637    1.388   .     A
C628   C638    1.400   .     A
C629   C630    1.388   .     A
C629   F644    1.358   .     S
C630   C82     1.391   1_556 S
C630   H100    1.083   1_556 S
C631   H648    1.080   .     S
C632   C636    1.417   .     A
C633   C637    1.399   .     A
C634   C635    1.408   .     A
C634   C78     1.415   1_556 S
C634   C84     1.424   1_556 S
C635   C636    1.415   .     A
C635   O660    1.382   .     S
C636   O661    1.383   .     S
C637   F643    1.361   .     S
C638   F639    1.356   .     S
F642   C78     1.358   1_556 S
H646   O661    0.990   .     S
H651   O669    0.990   .     S
H652   O658    0.990   .     S
H653   O659    0.977   .     S
H654   O660    0.991   .     S
N655   Zn670   2.019   .     S
N656   Zn671   2.019   .     S
O657   Zn670   1.984   .     S
O662   Zn671   1.994   .     S
O663   Zn670   1.952   .     S
O664   Zn671   1.901   .     S
O665   Zn670   1.994   .     S
O666   Zn671   1.984   .     S
O667   Zn670   1.901   .     S
O668   Zn671   1.952   .     S
C672   O723    1.285   .     A
C672   C680    1.414   .     S
C672   O718    1.285   .     A
C673   C675    1.463   .     S
C673   C693    1.414   .     A
C673   C690    1.408   .     A
C674   C680    1.395   .     A
C674   H711    1.084   .     S
C674   C859    1.369   .     S
C675   O724    1.293   .     A
C675   O725    1.300   .     A
C676   H706    1.084   .     S
C676   C677    1.392   .     A
C676   C1040   1.369   1_545 S
C677   C678    1.397   .     A
C677   C686    1.411   .     S
C678   F701    1.360   .     S
C678   C1045   1.377   1_545 S
C679   O730    1.382   .     S
C679   C680    1.412   .     A
C679   C861    1.377   .     S
C681   N717    1.368   .     A
C681   O719    1.378   .     S
C681   C560    1.434   1_655 S
C682   F702    1.356   .     S
C682   N716    1.369   .     A
C683   C693    1.403   .     A
C683   C143    1.417   1_556 S
C683   C145    1.411   1_556 S
C684   H708    1.083   .     S
C684   N716    1.353   .     A
C685   N717    1.389   .     A
C685   O720    1.374   .     S
C685   C562    1.409   1_655 S
C686   O727    1.284   .     A
C686   O726    1.285   .     A
C687   O728    1.298   .     A
C687   O729    1.295   .     A
C687   C689    1.457   .     S
C688   C699    1.394   .     A
C689   C698    1.388   .     A
C689   C699    1.400   .     A
C690   C691    1.388   .     A
C690   F705    1.358   .     S
C691   C143    1.391   1_556 S
C691   H161    1.083   1_556 S
C692   H709    1.080   .     S
C693   C697    1.417   .     A
C694   C698    1.399   .     A
C695   C696    1.408   .     A
C695   C139    1.415   1_556 S
C695   C145    1.424   1_556 S
C696   C697    1.415   .     A
C696   O721    1.382   .     S
C697   O722    1.383   .     S
C698   F704    1.361   .     S
C699   F700    1.356   .     S
F703   C139    1.358   1_556 S
H707   O722    0.990   .     S
H712   O730    0.990   .     S
H713   O719    0.990   .     S
H714   O720    0.977   .     S
H715   O721    0.991   .     S
N716   Zn731   2.019   .     S
N717   Zn732   2.019   .     S
O718   Zn731   1.984   .     S
O723   Zn732   1.994   .     S
O724   Zn731   1.952   .     S
O725   Zn732   1.901   .     S
O726   Zn731   1.994   .     S
O727   Zn732   1.984   .     S
O728   Zn731   1.901   .     S
O729   Zn732   1.952   .     S
C733   O784    1.285   .     A
C733   C741    1.414   .     S
C733   O779    1.285   .     A
C734   C736    1.463   .     S
C734   C754    1.414   .     A
C734   C751    1.408   .     A
C735   C741    1.395   .     A
C735   H772    1.084   .     S
C735   C920    1.369   .     S
C736   O785    1.293   .     A
C736   O786    1.300   .     A
C737   H767    1.084   .     S
C737   C738    1.392   .     A
C738   C739    1.397   .     A
C738   C747    1.411   .     S
C739   F762    1.360   .     S
C740   O791    1.382   .     S
C740   C741    1.412   .     A
C740   C922    1.377   .     S
C742   N778    1.368   .     A
C742   O780    1.378   .     S
C742   C804    1.434   .     S
C743   F763    1.356   .     S
C743   N777    1.369   .     A
C743   C864    1.434   1_455 S
C744   C754    1.403   .     A
C744   C204    1.417   1_556 S
C744   C206    1.411   1_556 S
C745   H769    1.083   .     S
C745   N777    1.353   .     A
C745   C868    1.409   1_455 S
C746   N778    1.389   .     A
C746   O781    1.374   .     S
C746   C806    1.409   .     S
C747   O788    1.284   .     A
C747   O787    1.285   .     A
C748   O789    1.298   .     A
C748   O790    1.295   .     A
C748   C750    1.457   .     S
C749   C760    1.394   .     A
C750   C759    1.388   .     A
C750   C760    1.400   .     A
C751   C752    1.388   .     A
C751   F766    1.358   .     S
C752   C204    1.391   1_556 S
C752   H222    1.083   1_556 S
C753   H770    1.080   .     S
C754   C758    1.417   .     A
C755   C759    1.399   .     A
C756   C757    1.408   .     A
C756   C200    1.415   1_556 S
C756   C206    1.424   1_556 S
C757   C758    1.415   .     A
C757   O782    1.382   .     S
C758   O783    1.383   .     S
C759   F765    1.361   .     S
C760   F761    1.356   .     S
F764   C200    1.358   1_556 S
H768   O783    0.990   .     S
H773   O791    0.990   .     S
H774   O780    0.990   .     S
H775   O781    0.977   .     S
H776   O782    0.991   .     S
N777   Zn792   2.019   .     S
N778   Zn793   2.019   .     S
O779   Zn792   1.984   .     S
O784   Zn793   1.994   .     S
O785   Zn792   1.952   .     S
O786   Zn793   1.901   .     S
O787   Zn792   1.994   .     S
O788   Zn793   1.984   .     S
O789   Zn792   1.901   .     S
O790   Zn793   1.952   .     S
C794   O845    1.285   .     A
C794   C802    1.414   .     S
C794   O840    1.285   .     A
C795   C797    1.463   .     S
C795   C815    1.414   .     A
C795   C812    1.408   .     A
C796   C802    1.395   .     A
C796   H833    1.084   .     S
C796   C981    1.369   .     S
C797   O846    1.293   .     A
C797   O847    1.300   .     A
C798   H828    1.084   .     S
C798   C799    1.392   .     A
C799   C800    1.397   .     A
C799   C808    1.411   .     S
C800   F823    1.360   .     S
C801   O852    1.382   .     S
C801   C802    1.412   .     A
C801   C983    1.377   .     S
C803   N839    1.368   .     A
C803   O841    1.378   .     S
C803   C865    1.434   .     S
C804   F824    1.356   .     S
C804   N838    1.369   .     A
C805   C815    1.403   .     A
C805   C265    1.417   1_556 S
C805   C267    1.411   1_556 S
C806   H830    1.083   .     S
C806   N838    1.353   .     A
C807   N839    1.389   .     A
C807   O842    1.374   .     S
C807   C867    1.409   .     S
C808   O849    1.284   .     A
C808   O848    1.285   .     A
C809   O850    1.298   .     A
C809   O851    1.295   .     A
C809   C811    1.457   .     S
C810   C821    1.394   .     A
C811   C820    1.388   .     A
C811   C821    1.400   .     A
C812   C813    1.388   .     A
C812   F827    1.358   .     S
C813   C265    1.391   1_556 S
C813   H283    1.083   1_556 S
C814   H831    1.080   .     S
C815   C819    1.417   .     A
C816   C820    1.399   .     A
C817   C818    1.408   .     A
C817   C261    1.415   1_556 S
C817   C267    1.424   1_556 S
C818   C819    1.415   .     A
C818   O843    1.382   .     S
C819   O844    1.383   .     S
C820   F826    1.361   .     S
C821   F822    1.356   .     S
F825   C261    1.358   1_556 S
H829   O844    0.990   .     S
H834   O852    0.990   .     S
H835   O841    0.990   .     S
H836   O842    0.977   .     S
H837   O843    0.991   .     S
N838   Zn853   2.019   .     S
N839   Zn854   2.019   .     S
O840   Zn853   1.984   .     S
O845   Zn854   1.994   .     S
O846   Zn853   1.952   .     S
O847   Zn854   1.901   .     S
O848   Zn853   1.994   .     S
O849   Zn854   1.984   .     S
O850   Zn853   1.901   .     S
O851   Zn854   1.952   .     S
C855   O906    1.285   .     A
C855   C863    1.414   .     S
C855   O901    1.285   .     A
C856   C858    1.463   .     S
C856   C876    1.414   .     A
C856   C873    1.408   .     A
C857   C863    1.395   .     A
C857   H894    1.084   .     S
C857   C1042   1.369   .     S
C858   O907    1.293   .     A
C858   O908    1.300   .     A
C859   H889    1.084   .     S
C859   C860    1.392   .     A
C860   C861    1.397   .     A
C860   C869    1.411   .     S
C861   F884    1.360   .     S
C862   O913    1.382   .     S
C862   C863    1.412   .     A
C862   C1044   1.377   .     S
C864   N900    1.368   .     A
C864   O902    1.378   .     S
C864   C743    1.434   1_655 S
C865   F885    1.356   .     S
C865   N899    1.369   .     A
C866   C876    1.403   .     A
C866   C326    1.417   1_556 S
C866   C328    1.411   1_556 S
C867   H891    1.083   .     S
C867   N899    1.353   .     A
C868   N900    1.389   .     A
C868   O903    1.374   .     S
C868   C745    1.409   1_655 S
C869   O910    1.284   .     A
C869   O909    1.285   .     A
C870   O911    1.298   .     A
C870   O912    1.295   .     A
C870   C872    1.457   .     S
C871   C882    1.394   .     A
C872   C881    1.388   .     A
C872   C882    1.400   .     A
C873   C874    1.388   .     A
C873   F888    1.358   .     S
C874   C326    1.391   1_556 S
C874   H344    1.083   1_556 S
C875   H892    1.080   .     S
C876   C880    1.417   .     A
C877   C881    1.399   .     A
C878   C879    1.408   .     A
C878   C322    1.415   1_556 S
C878   C328    1.424   1_556 S
C879   C880    1.415   .     A
C879   O904    1.382   .     S
C880   O905    1.383   .     S
C881   F887    1.361   .     S
C882   F883    1.356   .     S
F886   C322    1.358   1_556 S
H890   O905    0.990   .     S
H895   O913    0.990   .     S
H896   O902    0.990   .     S
H897   O903    0.977   .     S
H898   O904    0.991   .     S
N899   Zn914   2.019   .     S
N900   Zn915   2.019   .     S
O901   Zn914   1.984   .     S
O906   Zn915   1.994   .     S
O907   Zn914   1.952   .     S
O908   Zn915   1.901   .     S
O909   Zn914   1.994   .     S
O910   Zn915   1.984   .     S
O911   Zn914   1.901   .     S
O912   Zn915   1.952   .     S
C916   O967    1.285   .     A
C916   C924    1.414   .     S
C916   O962    1.285   .     A
C917   C919    1.463   .     S
C917   C937    1.414   .     A
C917   C934    1.408   .     A
C918   C924    1.395   .     A
C918   H955    1.084   .     S
C918   C554    1.369   1_565 S
C919   O968    1.293   .     A
C919   O969    1.300   .     A
C920   H950    1.084   .     S
C920   C921    1.392   .     A
C921   C922    1.397   .     A
C921   C930    1.411   .     S
C922   F945    1.360   .     S
C923   O974    1.382   .     S
C923   C924    1.412   .     A
C923   C556    1.377   1_565 S
C925   N961    1.368   .     A
C925   O963    1.378   .     S
C925   C987    1.434   .     S
C926   F946    1.356   .     S
C926   N960    1.369   .     A
C926   C1047   1.434   1_455 S
C927   C937    1.403   .     A
C927   C387    1.417   1_556 S
C927   C389    1.411   1_556 S
C928   H952    1.083   .     S
C928   N960    1.353   .     A
C928   C1051   1.409   1_455 S
C929   N961    1.389   .     A
C929   O964    1.374   .     S
C929   C989    1.409   .     S
C930   O971    1.284   .     A
C930   O970    1.285   .     A
C931   O972    1.298   .     A
C931   O973    1.295   .     A
C931   C933    1.457   .     S
C932   C943    1.394   .     A
C933   C942    1.388   .     A
C933   C943    1.400   .     A
C934   C935    1.388   .     A
C934   F949    1.358   .     S
C935   C387    1.391   1_556 S
C935   H405    1.083   1_556 S
C936   H953    1.080   .     S
C937   C941    1.417   .     A
C938   C942    1.399   .     A
C939   C940    1.408   .     A
C939   C383    1.415   1_556 S
C939   C389    1.424   1_556 S
C940   C941    1.415   .     A
C940   O965    1.382   .     S
C941   O966    1.383   .     S
C942   F948    1.361   .     S
C943   F944    1.356   .     S
F947   C383    1.358   1_556 S
H951   O966    0.990   .     S
H956   O974    0.990   .     S
H957   O963    0.990   .     S
H958   O964    0.977   .     S
H959   O965    0.991   .     S
N960   Zn975   2.019   .     S
N961   Zn976   2.019   .     S
O962   Zn975   1.984   .     S
O967   Zn976   1.994   .     S
O968   Zn975   1.952   .     S
O969   Zn976   1.901   .     S
O970   Zn975   1.994   .     S
O971   Zn976   1.984   .     S
O972   Zn975   1.901   .     S
O973   Zn976   1.952   .     S
C977   O1028   1.285   .     A
C977   C985    1.414   .     S
C977   O1023   1.285   .     A
C978   C980    1.463   .     S
C978   C998    1.414   .     A
C978   C995    1.408   .     A
C979   C985    1.395   .     A
C979   H1016   1.084   .     S
C979   C615    1.369   1_565 S
C980   O1029   1.293   .     A
C980   O1030   1.300   .     A
C981   H1011   1.084   .     S
C981   C982    1.392   .     A
C982   C983    1.397   .     A
C982   C991    1.411   .     S
C983   F1006   1.360   .     S
C984   O1035   1.382   .     S
C984   C985    1.412   .     A
C984   C617    1.377   1_565 S
C986   N1022   1.368   .     A
C986   O1024   1.378   .     S
C986   C1048   1.434   .     S
C987   F1007   1.356   .     S
C987   N1021   1.369   .     A
C988   C998    1.403   .     A
C988   C448    1.417   1_556 S
C988   C450    1.411   1_556 S
C989   H1013   1.083   .     S
C989   N1021   1.353   .     A
C990   N1022   1.389   .     A
C990   O1025   1.374   .     S
C990   C1050   1.409   .     S
C991   O1032   1.284   .     A
C991   O1031   1.285   .     A
C992   O1033   1.298   .     A
C992   O1034   1.295   .     A
C992   C994    1.457   .     S
C993   C1004   1.394   .     A
C994   C1003   1.388   .     A
C994   C1004   1.400   .     A
C995   C996    1.388   .     A
C995   F1010   1.358   .     S
C996   C448    1.391   1_556 S
C996   H466    1.083   1_556 S
C997   H1014   1.080   .     S
C998   C1002   1.417   .     A
C999   C1003   1.399   .     A
C1000  C1001   1.408   .     A
C1000  C444    1.415   1_556 S
C1000  C450    1.424   1_556 S
C1001  C1002   1.415   .     A
C1001  O1026   1.382   .     S
C1002  O1027   1.383   .     S
C1003  F1009   1.361   .     S
C1004  F1005   1.356   .     S
F1008  C444    1.358   1_556 S
H1012  O1027   0.990   .     S
H1017  O1035   0.990   .     S
H1018  O1024   0.990   .     S
H1019  O1025   0.977   .     S
H1020  O1026   0.991   .     S
N1021  Zn1036  2.019   .     S
N1022  Zn1037  2.019   .     S
O1023  Zn1036  1.984   .     S
O1028  Zn1037  1.994   .     S
O1029  Zn1036  1.952   .     S
O1030  Zn1037  1.901   .     S
O1031  Zn1036  1.994   .     S
O1032  Zn1037  1.984   .     S
O1033  Zn1036  1.901   .     S
O1034  Zn1037  1.952   .     S
C1038  O1089   1.285   .     A
C1038  C1046   1.414   .     S
C1038  O1084   1.285   .     A
C1039  C1041   1.463   .     S
C1039  C1059   1.414   .     A
C1039  C1056   1.408   .     A
C1040  C1046   1.395   .     A
C1040  H1077   1.084   .     S
C1040  C676    1.369   1_565 S
C1041  O1090   1.293   .     A
C1041  O1091   1.300   .     A
C1042  H1072   1.084   .     S
C1042  C1043   1.392   .     A
C1043  C1044   1.397   .     A
C1043  C1052   1.411   .     S
C1044  F1067   1.360   .     S
C1045  O1096   1.382   .     S
C1045  C1046   1.412   .     A
C1045  C678    1.377   1_565 S
C1047  N1083   1.368   .     A
C1047  O1085   1.378   .     S
C1047  C926    1.434   1_655 S
C1048  F1068   1.356   .     S
C1048  N1082   1.369   .     A
C1049  C1059   1.403   .     A
C1049  C509    1.417   1_556 S
C1049  C511    1.411   1_556 S
C1050  H1074   1.083   .     S
C1050  N1082   1.353   .     A
C1051  N1083   1.389   .     A
C1051  O1086   1.374   .     S
C1051  C928    1.409   1_655 S
C1052  O1093   1.284   .     A
C1052  O1092   1.285   .     A
C1053  O1094   1.298   .     A
C1053  O1095   1.295   .     A
C1053  C1055   1.457   .     S
C1054  C1065   1.394   .     A
C1055  C1064   1.388   .     A
C1055  C1065   1.400   .     A
C1056  C1057   1.388   .     A
C1056  F1071   1.358   .     S
C1057  C509    1.391   1_556 S
C1057  H527    1.083   1_556 S
C1058  H1075   1.080   .     S
C1059  C1063   1.417   .     A
C1060  C1064   1.399   .     A
C1061  C1062   1.408   .     A
C1061  C505    1.415   1_556 S
C1061  C511    1.424   1_556 S
C1062  C1063   1.415   .     A
C1062  O1087   1.382   .     S
C1063  O1088   1.383   .     S
C1064  F1070   1.361   .     S
C1065  F1066   1.356   .     S
F1069  C505    1.358   1_556 S
H1073  O1088   0.990   .     S
H1078  O1096   0.990   .     S
H1079  O1085   0.990   .     S
H1080  O1086   0.977   .     S
H1081  O1087   0.991   .     S
N1082  Zn1097  2.019   .     S
N1083  Zn1098  2.019   .     S
O1084  Zn1097  1.984   .     S
O1089  Zn1098  1.994   .     S
O1090  Zn1097  1.952   .     S
O1091  Zn1098  1.901   .     S
O1092  Zn1097  1.994   .     S
O1093  Zn1098  1.984   .     S
O1094  Zn1097  1.901   .     S
O1095  Zn1098  1.952   .     S
