data_str_m3_o2_o5_pcu_sym.128
_audit_creation_date              2020-01-03
_audit_creation_method            'Materials Studio'
_symmetry_space_group_name_H-M    'P1'
_symmetry_Int_Tables_number       1
_symmetry_cell_setting            triclinic
loop_
_symmetry_equiv_pos_as_xyz
  x,y,z
_cell_length_a                    30.0333
_cell_length_b                    28.6692
_cell_length_c                    26.6810
_cell_angle_alpha                 90.0000
_cell_angle_beta                  91.8192
_cell_angle_gamma                 90.0000
loop_
_atom_site_label
_atom_site_type_symbol
_atom_site_fract_x
_atom_site_fract_y
_atom_site_fract_z
_atom_site_U_iso_or_equiv
_atom_site_adp_type
_atom_site_occupancy
C1     C     0.16402   0.25003   0.16677   0.00000  Uiso   1.00
C2     C     0.33599   0.25003   0.16656   0.00000  Uiso   1.00
C3     C     0.22489   0.10163   0.13169   0.00000  Uiso   1.00
C4     C     0.27958   0.39825   0.19694   0.00000  Uiso   1.00
C5     C     0.27511   0.10163   0.20164   0.00000  Uiso   1.00
C6     C     0.22043   0.39825   0.13639   0.00000  Uiso   1.00
C7     C     0.22544   0.05260   0.13061   0.00000  Uiso   1.00
C8     C     0.28056   0.44728   0.19644   0.00000  Uiso   1.00
C9     C     0.27456   0.05260   0.20272   0.00000  Uiso   1.00
C10    C     0.21944   0.44728   0.13689   0.00000  Uiso   1.00
C11    C     0.24998   0.25000   0.07298   0.00000  Uiso   1.00
C12    C     0.25003   0.25000   0.26035   0.00000  Uiso   1.00
C13    C     0.25000   0.02656   0.16667   0.00000  Uiso   1.00
C14    C     0.25000   0.47331   0.16667   0.00000  Uiso   1.00
C15    C     0.24999   0.25001   0.02183   0.00000  Uiso   1.00
C16    C     0.25001   0.25001   0.31151   0.00000  Uiso   1.00
C17    C     0.04773   0.29015   0.18345   0.00000  Uiso   1.00
C18    C     0.45351   0.21124   0.18341   0.00000  Uiso   1.00
C19    C     0.45227   0.29015   0.14988   0.00000  Uiso   1.00
C20    C     0.04649   0.21124   0.14992   0.00000  Uiso   1.00
C21    C     0.09371   0.28999   0.18327   0.00000  Uiso   1.00
C22    C     0.40757   0.21077   0.18271   0.00000  Uiso   1.00
C23    C     0.40629   0.28999   0.15006   0.00000  Uiso   1.00
C24    C     0.09243   0.21077   0.15062   0.00000  Uiso   1.00
C25    C     0.11609   0.25023   0.16695   0.00000  Uiso   1.00
C26    C     0.38391   0.25023   0.16638   0.00000  Uiso   1.00
C27    C     0.02407   0.25082   0.16660   0.00000  Uiso   1.00
C28    C     0.47593   0.25082   0.16673   0.00000  Uiso   1.00
H29    H     0.03070   0.32068   0.19719   0.00000  Uiso   1.00
H30    H     0.47151   0.18087   0.19725   0.00000  Uiso   1.00
H31    H     0.46930   0.32068   0.13615   0.00000  Uiso   1.00
H32    H     0.02849   0.18087   0.13608   0.00000  Uiso   1.00
H33    H     0.11170   0.32060   0.19648   0.00000  Uiso   1.00
H34    H     0.39072   0.17985   0.19548   0.00000  Uiso   1.00
H35    H     0.38830   0.32060   0.13686   0.00000  Uiso   1.00
H36    H     0.10928   0.17985   0.13785   0.00000  Uiso   1.00
H37    H     0.20637   0.03573   0.10091   0.00000  Uiso   1.00
H38    H     0.30579   0.46411   0.21966   0.00000  Uiso   1.00
H39    H     0.29363   0.03573   0.23242   0.00000  Uiso   1.00
H40    H     0.19421   0.46411   0.11368   0.00000  Uiso   1.00
N41    N     0.25000   0.12624   0.16667   0.00000  Uiso   1.00
N42    N     0.25000   0.37377   0.16667   0.00000  Uiso   1.00
O43    O     0.18453   0.28974   0.16667   0.00000  Uiso   1.00
O44    O     0.31547   0.21026   0.16666   0.00000  Uiso   1.00
O45    O     0.31547   0.28974   0.16666   0.00000  Uiso   1.00
O46    O     0.18453   0.21026   0.16667   0.00000  Uiso   1.00
O47    O     0.25000   0.28973   0.09511   0.00000  Uiso   1.00
O48    O     0.25000   0.21027   0.23822   0.00000  Uiso   1.00
O49    O     0.25000   0.28973   0.23822   0.00000  Uiso   1.00
O50    O     0.25000   0.21027   0.09511   0.00000  Uiso   1.00
Zn51   Zn    0.25000   0.30307   0.16667   0.00000  Uiso   1.00
Zn52   Zn    0.25000   0.19693   0.16667   0.00000  Uiso   1.00
I53    I     0.18242   0.13341   0.07681   0.00000  Uiso   1.00
I54    I     0.32561   0.36588   0.24768   0.00000  Uiso   1.00
I55    I     0.31758   0.13341   0.25652   0.00000  Uiso   1.00
I56    I     0.17439   0.36588   0.08565   0.00000  Uiso   1.00
C57    C     0.66402   0.25003   0.16677   0.00000  Uiso   1.00
C58    C     0.83599   0.25003   0.16656   0.00000  Uiso   1.00
C59    C     0.72489   0.10163   0.13169   0.00000  Uiso   1.00
C60    C     0.77958   0.39825   0.19694   0.00000  Uiso   1.00
C61    C     0.77511   0.10163   0.20164   0.00000  Uiso   1.00
C62    C     0.72043   0.39825   0.13639   0.00000  Uiso   1.00
C63    C     0.72544   0.05260   0.13061   0.00000  Uiso   1.00
C64    C     0.78056   0.44728   0.19644   0.00000  Uiso   1.00
C65    C     0.77456   0.05260   0.20272   0.00000  Uiso   1.00
C66    C     0.71944   0.44728   0.13689   0.00000  Uiso   1.00
C67    C     0.74998   0.25000   0.07298   0.00000  Uiso   1.00
C68    C     0.75003   0.25000   0.26035   0.00000  Uiso   1.00
C69    C     0.75000   0.02656   0.16667   0.00000  Uiso   1.00
C70    C     0.75000   0.47331   0.16667   0.00000  Uiso   1.00
C71    C     0.74999   0.25001   0.02183   0.00000  Uiso   1.00
C72    C     0.75001   0.25001   0.31151   0.00000  Uiso   1.00
C73    C     0.54773   0.29015   0.18345   0.00000  Uiso   1.00
C74    C     0.95351   0.21124   0.18341   0.00000  Uiso   1.00
C75    C     0.95227   0.29015   0.14988   0.00000  Uiso   1.00
C76    C     0.54649   0.21124   0.14992   0.00000  Uiso   1.00
C77    C     0.59371   0.28999   0.18327   0.00000  Uiso   1.00
C78    C     0.90757   0.21077   0.18271   0.00000  Uiso   1.00
C79    C     0.90629   0.28999   0.15006   0.00000  Uiso   1.00
C80    C     0.59243   0.21077   0.15062   0.00000  Uiso   1.00
C81    C     0.61609   0.25023   0.16695   0.00000  Uiso   1.00
C82    C     0.88391   0.25023   0.16638   0.00000  Uiso   1.00
C83    C     0.52407   0.25082   0.16660   0.00000  Uiso   1.00
C84    C     0.97593   0.25082   0.16673   0.00000  Uiso   1.00
H85    H     0.53070   0.32068   0.19719   0.00000  Uiso   1.00
H86    H     0.97151   0.18087   0.19725   0.00000  Uiso   1.00
H87    H     0.96930   0.32068   0.13615   0.00000  Uiso   1.00
H88    H     0.52849   0.18087   0.13608   0.00000  Uiso   1.00
H89    H     0.61170   0.32060   0.19648   0.00000  Uiso   1.00
H90    H     0.89072   0.17985   0.19548   0.00000  Uiso   1.00
H91    H     0.88830   0.32060   0.13686   0.00000  Uiso   1.00
H92    H     0.60928   0.17985   0.13785   0.00000  Uiso   1.00
H93    H     0.70637   0.03573   0.10091   0.00000  Uiso   1.00
H94    H     0.80579   0.46411   0.21966   0.00000  Uiso   1.00
H95    H     0.79363   0.03573   0.23242   0.00000  Uiso   1.00
H96    H     0.69421   0.46411   0.11368   0.00000  Uiso   1.00
N97    N     0.75000   0.12624   0.16667   0.00000  Uiso   1.00
N98    N     0.75000   0.37377   0.16667   0.00000  Uiso   1.00
O99    O     0.68453   0.28974   0.16667   0.00000  Uiso   1.00
O100   O     0.81547   0.21026   0.16666   0.00000  Uiso   1.00
O101   O     0.81547   0.28974   0.16666   0.00000  Uiso   1.00
O102   O     0.68453   0.21026   0.16667   0.00000  Uiso   1.00
O103   O     0.75000   0.28973   0.09511   0.00000  Uiso   1.00
O104   O     0.75000   0.21027   0.23822   0.00000  Uiso   1.00
O105   O     0.75000   0.28973   0.23822   0.00000  Uiso   1.00
O106   O     0.75000   0.21027   0.09511   0.00000  Uiso   1.00
Zn107  Zn    0.75000   0.30307   0.16667   0.00000  Uiso   1.00
Zn108  Zn    0.75000   0.19693   0.16667   0.00000  Uiso   1.00
I109   I     0.68242   0.13341   0.07681   0.00000  Uiso   1.00
I110   I     0.82561   0.36588   0.24768   0.00000  Uiso   1.00
I111   I     0.81758   0.13341   0.25652   0.00000  Uiso   1.00
I112   I     0.67439   0.36588   0.08565   0.00000  Uiso   1.00
C113   C     0.16402   0.75003   0.16677   0.00000  Uiso   1.00
C114   C     0.33599   0.75003   0.16656   0.00000  Uiso   1.00
C115   C     0.22489   0.60163   0.13169   0.00000  Uiso   1.00
C116   C     0.27958   0.89825   0.19694   0.00000  Uiso   1.00
C117   C     0.27511   0.60163   0.20164   0.00000  Uiso   1.00
C118   C     0.22043   0.89825   0.13639   0.00000  Uiso   1.00
C119   C     0.22544   0.55260   0.13061   0.00000  Uiso   1.00
C120   C     0.28056   0.94728   0.19644   0.00000  Uiso   1.00
C121   C     0.27456   0.55260   0.20272   0.00000  Uiso   1.00
C122   C     0.21944   0.94728   0.13689   0.00000  Uiso   1.00
C123   C     0.24998   0.75000   0.07298   0.00000  Uiso   1.00
C124   C     0.25003   0.75000   0.26035   0.00000  Uiso   1.00
C125   C     0.25000   0.52656   0.16667   0.00000  Uiso   1.00
C126   C     0.25000   0.97331   0.16667   0.00000  Uiso   1.00
C127   C     0.24999   0.75001   0.02183   0.00000  Uiso   1.00
C128   C     0.25001   0.75001   0.31151   0.00000  Uiso   1.00
C129   C     0.04773   0.79015   0.18345   0.00000  Uiso   1.00
C130   C     0.45351   0.71124   0.18341   0.00000  Uiso   1.00
C131   C     0.45227   0.79015   0.14988   0.00000  Uiso   1.00
C132   C     0.04649   0.71124   0.14992   0.00000  Uiso   1.00
C133   C     0.09371   0.78999   0.18327   0.00000  Uiso   1.00
C134   C     0.40757   0.71077   0.18271   0.00000  Uiso   1.00
C135   C     0.40629   0.78999   0.15006   0.00000  Uiso   1.00
C136   C     0.09243   0.71077   0.15062   0.00000  Uiso   1.00
C137   C     0.11609   0.75023   0.16695   0.00000  Uiso   1.00
C138   C     0.38391   0.75023   0.16638   0.00000  Uiso   1.00
C139   C     0.02407   0.75082   0.16660   0.00000  Uiso   1.00
C140   C     0.47593   0.75082   0.16673   0.00000  Uiso   1.00
H141   H     0.03070   0.82068   0.19719   0.00000  Uiso   1.00
H142   H     0.47151   0.68087   0.19725   0.00000  Uiso   1.00
H143   H     0.46930   0.82068   0.13615   0.00000  Uiso   1.00
H144   H     0.02849   0.68087   0.13608   0.00000  Uiso   1.00
H145   H     0.11170   0.82060   0.19648   0.00000  Uiso   1.00
H146   H     0.39072   0.67985   0.19548   0.00000  Uiso   1.00
H147   H     0.38830   0.82060   0.13686   0.00000  Uiso   1.00
H148   H     0.10928   0.67985   0.13785   0.00000  Uiso   1.00
H149   H     0.20637   0.53573   0.10091   0.00000  Uiso   1.00
H150   H     0.30579   0.96411   0.21966   0.00000  Uiso   1.00
H151   H     0.29363   0.53573   0.23242   0.00000  Uiso   1.00
H152   H     0.19421   0.96411   0.11368   0.00000  Uiso   1.00
N153   N     0.25000   0.62624   0.16667   0.00000  Uiso   1.00
N154   N     0.25000   0.87377   0.16667   0.00000  Uiso   1.00
O155   O     0.18453   0.78974   0.16667   0.00000  Uiso   1.00
O156   O     0.31547   0.71026   0.16666   0.00000  Uiso   1.00
O157   O     0.31547   0.78974   0.16666   0.00000  Uiso   1.00
O158   O     0.18453   0.71026   0.16667   0.00000  Uiso   1.00
O159   O     0.25000   0.78973   0.09511   0.00000  Uiso   1.00
O160   O     0.25000   0.71027   0.23822   0.00000  Uiso   1.00
O161   O     0.25000   0.78973   0.23822   0.00000  Uiso   1.00
O162   O     0.25000   0.71027   0.09511   0.00000  Uiso   1.00
Zn163  Zn    0.25000   0.80307   0.16667   0.00000  Uiso   1.00
Zn164  Zn    0.25000   0.69693   0.16667   0.00000  Uiso   1.00
I165   I     0.18242   0.63341   0.07681   0.00000  Uiso   1.00
I166   I     0.32561   0.86588   0.24768   0.00000  Uiso   1.00
I167   I     0.31758   0.63341   0.25652   0.00000  Uiso   1.00
I168   I     0.17439   0.86588   0.08565   0.00000  Uiso   1.00
C169   C     0.66402   0.75003   0.16677   0.00000  Uiso   1.00
C170   C     0.83599   0.75003   0.16656   0.00000  Uiso   1.00
C171   C     0.72489   0.60163   0.13169   0.00000  Uiso   1.00
C172   C     0.77958   0.89825   0.19694   0.00000  Uiso   1.00
C173   C     0.77511   0.60163   0.20164   0.00000  Uiso   1.00
C174   C     0.72043   0.89825   0.13639   0.00000  Uiso   1.00
C175   C     0.72544   0.55260   0.13061   0.00000  Uiso   1.00
C176   C     0.78056   0.94728   0.19644   0.00000  Uiso   1.00
C177   C     0.77456   0.55260   0.20272   0.00000  Uiso   1.00
C178   C     0.71944   0.94728   0.13689   0.00000  Uiso   1.00
C179   C     0.74998   0.75000   0.07298   0.00000  Uiso   1.00
C180   C     0.75003   0.75000   0.26035   0.00000  Uiso   1.00
C181   C     0.75000   0.52656   0.16667   0.00000  Uiso   1.00
C182   C     0.75000   0.97331   0.16667   0.00000  Uiso   1.00
C183   C     0.74999   0.75001   0.02183   0.00000  Uiso   1.00
C184   C     0.75001   0.75001   0.31151   0.00000  Uiso   1.00
C185   C     0.54773   0.79015   0.18345   0.00000  Uiso   1.00
C186   C     0.95351   0.71124   0.18341   0.00000  Uiso   1.00
C187   C     0.95227   0.79015   0.14988   0.00000  Uiso   1.00
C188   C     0.54649   0.71124   0.14992   0.00000  Uiso   1.00
C189   C     0.59371   0.78999   0.18327   0.00000  Uiso   1.00
C190   C     0.90757   0.71077   0.18271   0.00000  Uiso   1.00
C191   C     0.90629   0.78999   0.15006   0.00000  Uiso   1.00
C192   C     0.59243   0.71077   0.15062   0.00000  Uiso   1.00
C193   C     0.61609   0.75023   0.16695   0.00000  Uiso   1.00
C194   C     0.88391   0.75023   0.16638   0.00000  Uiso   1.00
C195   C     0.52407   0.75082   0.16660   0.00000  Uiso   1.00
C196   C     0.97593   0.75082   0.16673   0.00000  Uiso   1.00
H197   H     0.53070   0.82068   0.19719   0.00000  Uiso   1.00
H198   H     0.97151   0.68087   0.19725   0.00000  Uiso   1.00
H199   H     0.96930   0.82068   0.13615   0.00000  Uiso   1.00
H200   H     0.52849   0.68087   0.13608   0.00000  Uiso   1.00
H201   H     0.61170   0.82060   0.19648   0.00000  Uiso   1.00
H202   H     0.89072   0.67985   0.19548   0.00000  Uiso   1.00
H203   H     0.88830   0.82060   0.13686   0.00000  Uiso   1.00
H204   H     0.60928   0.67985   0.13785   0.00000  Uiso   1.00
H205   H     0.70637   0.53573   0.10091   0.00000  Uiso   1.00
H206   H     0.80579   0.96411   0.21966   0.00000  Uiso   1.00
H207   H     0.79363   0.53573   0.23242   0.00000  Uiso   1.00
H208   H     0.69421   0.96411   0.11368   0.00000  Uiso   1.00
N209   N     0.75000   0.62624   0.16667   0.00000  Uiso   1.00
N210   N     0.75000   0.87377   0.16667   0.00000  Uiso   1.00
O211   O     0.68453   0.78974   0.16667   0.00000  Uiso   1.00
O212   O     0.81547   0.71026   0.16666   0.00000  Uiso   1.00
O213   O     0.81547   0.78974   0.16666   0.00000  Uiso   1.00
O214   O     0.68453   0.71026   0.16667   0.00000  Uiso   1.00
O215   O     0.75000   0.78973   0.09511   0.00000  Uiso   1.00
O216   O     0.75000   0.71027   0.23822   0.00000  Uiso   1.00
O217   O     0.75000   0.78973   0.23822   0.00000  Uiso   1.00
O218   O     0.75000   0.71027   0.09511   0.00000  Uiso   1.00
Zn219  Zn    0.75000   0.80307   0.16667   0.00000  Uiso   1.00
Zn220  Zn    0.75000   0.69693   0.16667   0.00000  Uiso   1.00
I221   I     0.68242   0.63341   0.07681   0.00000  Uiso   1.00
I222   I     0.82561   0.86588   0.24768   0.00000  Uiso   1.00
I223   I     0.81758   0.63341   0.25652   0.00000  Uiso   1.00
I224   I     0.67439   0.86588   0.08565   0.00000  Uiso   1.00
C225   C     0.16402   0.25003   0.50010   0.00000  Uiso   1.00
C226   C     0.33599   0.25003   0.49990   0.00000  Uiso   1.00
C227   C     0.22489   0.10163   0.46502   0.00000  Uiso   1.00
C228   C     0.27958   0.39825   0.53027   0.00000  Uiso   1.00
C229   C     0.27511   0.10163   0.53498   0.00000  Uiso   1.00
C230   C     0.22043   0.39825   0.46973   0.00000  Uiso   1.00
C231   C     0.22544   0.05260   0.46395   0.00000  Uiso   1.00
C232   C     0.28056   0.44728   0.52977   0.00000  Uiso   1.00
C233   C     0.27456   0.05260   0.53605   0.00000  Uiso   1.00
C234   C     0.21944   0.44728   0.47023   0.00000  Uiso   1.00
C235   C     0.24998   0.25000   0.40632   0.00000  Uiso   1.00
C236   C     0.25003   0.25000   0.59368   0.00000  Uiso   1.00
C237   C     0.25000   0.02656   0.50000   0.00000  Uiso   1.00
C238   C     0.25000   0.47331   0.50000   0.00000  Uiso   1.00
C239   C     0.24999   0.25001   0.35516   0.00000  Uiso   1.00
C240   C     0.25001   0.25001   0.64484   0.00000  Uiso   1.00
C241   C     0.04773   0.29015   0.51678   0.00000  Uiso   1.00
C242   C     0.45351   0.21124   0.51674   0.00000  Uiso   1.00
C243   C     0.45227   0.29015   0.48322   0.00000  Uiso   1.00
C244   C     0.04649   0.21124   0.48326   0.00000  Uiso   1.00
C245   C     0.09371   0.28999   0.51660   0.00000  Uiso   1.00
C246   C     0.40757   0.21077   0.51604   0.00000  Uiso   1.00
C247   C     0.40629   0.28999   0.48340   0.00000  Uiso   1.00
C248   C     0.09243   0.21077   0.48396   0.00000  Uiso   1.00
C249   C     0.11609   0.25023   0.50029   0.00000  Uiso   1.00
C250   C     0.38391   0.25023   0.49971   0.00000  Uiso   1.00
C251   C     0.02407   0.25082   0.49994   0.00000  Uiso   1.00
C252   C     0.47593   0.25082   0.50006   0.00000  Uiso   1.00
H253   H     0.03070   0.32068   0.53052   0.00000  Uiso   1.00
H254   H     0.47151   0.18087   0.53059   0.00000  Uiso   1.00
H255   H     0.46930   0.32068   0.46948   0.00000  Uiso   1.00
H256   H     0.02849   0.18087   0.46941   0.00000  Uiso   1.00
H257   H     0.11170   0.32060   0.52981   0.00000  Uiso   1.00
H258   H     0.39072   0.17985   0.52882   0.00000  Uiso   1.00
H259   H     0.38830   0.32060   0.47019   0.00000  Uiso   1.00
H260   H     0.10928   0.17985   0.47118   0.00000  Uiso   1.00
H261   H     0.20637   0.03573   0.43424   0.00000  Uiso   1.00
H262   H     0.30579   0.46411   0.55299   0.00000  Uiso   1.00
H263   H     0.29363   0.03573   0.56576   0.00000  Uiso   1.00
H264   H     0.19421   0.46411   0.44701   0.00000  Uiso   1.00
N265   N     0.25000   0.12624   0.50000   0.00000  Uiso   1.00
N266   N     0.25000   0.37377   0.50000   0.00000  Uiso   1.00
O267   O     0.18453   0.28974   0.50000   0.00000  Uiso   1.00
O268   O     0.31547   0.21026   0.50000   0.00000  Uiso   1.00
O269   O     0.31547   0.28974   0.50000   0.00000  Uiso   1.00
O270   O     0.18453   0.21026   0.50000   0.00000  Uiso   1.00
O271   O     0.25000   0.28973   0.42845   0.00000  Uiso   1.00
O272   O     0.25000   0.21027   0.57155   0.00000  Uiso   1.00
O273   O     0.25000   0.28973   0.57155   0.00000  Uiso   1.00
O274   O     0.25000   0.21027   0.42845   0.00000  Uiso   1.00
Zn275  Zn    0.25000   0.30307   0.50000   0.00000  Uiso   1.00
Zn276  Zn    0.25000   0.19693   0.50000   0.00000  Uiso   1.00
I277   I     0.18242   0.13341   0.41014   0.00000  Uiso   1.00
I278   I     0.32561   0.36588   0.58101   0.00000  Uiso   1.00
I279   I     0.31758   0.13341   0.58985   0.00000  Uiso   1.00
I280   I     0.17439   0.36588   0.41899   0.00000  Uiso   1.00
C281   C     0.66402   0.25003   0.50010   0.00000  Uiso   1.00
C282   C     0.83599   0.25003   0.49990   0.00000  Uiso   1.00
C283   C     0.72489   0.10163   0.46502   0.00000  Uiso   1.00
C284   C     0.77958   0.39825   0.53027   0.00000  Uiso   1.00
C285   C     0.77511   0.10163   0.53498   0.00000  Uiso   1.00
C286   C     0.72043   0.39825   0.46973   0.00000  Uiso   1.00
C287   C     0.72544   0.05260   0.46395   0.00000  Uiso   1.00
C288   C     0.78056   0.44728   0.52977   0.00000  Uiso   1.00
C289   C     0.77456   0.05260   0.53605   0.00000  Uiso   1.00
C290   C     0.71944   0.44728   0.47023   0.00000  Uiso   1.00
C291   C     0.74998   0.25000   0.40632   0.00000  Uiso   1.00
C292   C     0.75003   0.25000   0.59368   0.00000  Uiso   1.00
C293   C     0.75000   0.02656   0.50000   0.00000  Uiso   1.00
C294   C     0.75000   0.47331   0.50000   0.00000  Uiso   1.00
C295   C     0.74999   0.25001   0.35516   0.00000  Uiso   1.00
C296   C     0.75001   0.25001   0.64484   0.00000  Uiso   1.00
C297   C     0.54773   0.29015   0.51678   0.00000  Uiso   1.00
C298   C     0.95351   0.21124   0.51674   0.00000  Uiso   1.00
C299   C     0.95227   0.29015   0.48322   0.00000  Uiso   1.00
C300   C     0.54649   0.21124   0.48326   0.00000  Uiso   1.00
C301   C     0.59371   0.28999   0.51660   0.00000  Uiso   1.00
C302   C     0.90757   0.21077   0.51604   0.00000  Uiso   1.00
C303   C     0.90629   0.28999   0.48340   0.00000  Uiso   1.00
C304   C     0.59243   0.21077   0.48396   0.00000  Uiso   1.00
C305   C     0.61609   0.25023   0.50029   0.00000  Uiso   1.00
C306   C     0.88391   0.25023   0.49971   0.00000  Uiso   1.00
C307   C     0.52407   0.25082   0.49994   0.00000  Uiso   1.00
C308   C     0.97593   0.25082   0.50006   0.00000  Uiso   1.00
H309   H     0.53070   0.32068   0.53052   0.00000  Uiso   1.00
H310   H     0.97151   0.18087   0.53059   0.00000  Uiso   1.00
H311   H     0.96930   0.32068   0.46948   0.00000  Uiso   1.00
H312   H     0.52849   0.18087   0.46941   0.00000  Uiso   1.00
H313   H     0.61170   0.32060   0.52981   0.00000  Uiso   1.00
H314   H     0.89072   0.17985   0.52882   0.00000  Uiso   1.00
H315   H     0.88830   0.32060   0.47019   0.00000  Uiso   1.00
H316   H     0.60928   0.17985   0.47118   0.00000  Uiso   1.00
H317   H     0.70637   0.03573   0.43424   0.00000  Uiso   1.00
H318   H     0.80579   0.46411   0.55299   0.00000  Uiso   1.00
H319   H     0.79363   0.03573   0.56576   0.00000  Uiso   1.00
H320   H     0.69421   0.46411   0.44701   0.00000  Uiso   1.00
N321   N     0.75000   0.12624   0.50000   0.00000  Uiso   1.00
N322   N     0.75000   0.37377   0.50000   0.00000  Uiso   1.00
O323   O     0.68453   0.28974   0.50000   0.00000  Uiso   1.00
O324   O     0.81547   0.21026   0.50000   0.00000  Uiso   1.00
O325   O     0.81547   0.28974   0.50000   0.00000  Uiso   1.00
O326   O     0.68453   0.21026   0.50000   0.00000  Uiso   1.00
O327   O     0.75000   0.28973   0.42845   0.00000  Uiso   1.00
O328   O     0.75000   0.21027   0.57155   0.00000  Uiso   1.00
O329   O     0.75000   0.28973   0.57155   0.00000  Uiso   1.00
O330   O     0.75000   0.21027   0.42845   0.00000  Uiso   1.00
Zn331  Zn    0.75000   0.30307   0.50000   0.00000  Uiso   1.00
Zn332  Zn    0.75000   0.19693   0.50000   0.00000  Uiso   1.00
I333   I     0.68242   0.13341   0.41014   0.00000  Uiso   1.00
I334   I     0.82561   0.36588   0.58101   0.00000  Uiso   1.00
I335   I     0.81758   0.13341   0.58985   0.00000  Uiso   1.00
I336   I     0.67439   0.36588   0.41899   0.00000  Uiso   1.00
C337   C     0.16402   0.75003   0.50010   0.00000  Uiso   1.00
C338   C     0.33599   0.75003   0.49990   0.00000  Uiso   1.00
C339   C     0.22489   0.60163   0.46502   0.00000  Uiso   1.00
C340   C     0.27958   0.89825   0.53027   0.00000  Uiso   1.00
C341   C     0.27511   0.60163   0.53498   0.00000  Uiso   1.00
C342   C     0.22043   0.89825   0.46973   0.00000  Uiso   1.00
C343   C     0.22544   0.55260   0.46395   0.00000  Uiso   1.00
C344   C     0.28056   0.94728   0.52977   0.00000  Uiso   1.00
C345   C     0.27456   0.55260   0.53605   0.00000  Uiso   1.00
C346   C     0.21944   0.94728   0.47023   0.00000  Uiso   1.00
C347   C     0.24998   0.75000   0.40632   0.00000  Uiso   1.00
C348   C     0.25003   0.75000   0.59368   0.00000  Uiso   1.00
C349   C     0.25000   0.52656   0.50000   0.00000  Uiso   1.00
C350   C     0.25000   0.97331   0.50000   0.00000  Uiso   1.00
C351   C     0.24999   0.75001   0.35516   0.00000  Uiso   1.00
C352   C     0.25001   0.75001   0.64484   0.00000  Uiso   1.00
C353   C     0.04773   0.79015   0.51678   0.00000  Uiso   1.00
C354   C     0.45351   0.71124   0.51674   0.00000  Uiso   1.00
C355   C     0.45227   0.79015   0.48322   0.00000  Uiso   1.00
C356   C     0.04649   0.71124   0.48326   0.00000  Uiso   1.00
C357   C     0.09371   0.78999   0.51660   0.00000  Uiso   1.00
C358   C     0.40757   0.71077   0.51604   0.00000  Uiso   1.00
C359   C     0.40629   0.78999   0.48340   0.00000  Uiso   1.00
C360   C     0.09243   0.71077   0.48396   0.00000  Uiso   1.00
C361   C     0.11609   0.75023   0.50029   0.00000  Uiso   1.00
C362   C     0.38391   0.75023   0.49971   0.00000  Uiso   1.00
C363   C     0.02407   0.75082   0.49994   0.00000  Uiso   1.00
C364   C     0.47593   0.75082   0.50006   0.00000  Uiso   1.00
H365   H     0.03070   0.82068   0.53052   0.00000  Uiso   1.00
H366   H     0.47151   0.68087   0.53059   0.00000  Uiso   1.00
H367   H     0.46930   0.82068   0.46948   0.00000  Uiso   1.00
H368   H     0.02849   0.68087   0.46941   0.00000  Uiso   1.00
H369   H     0.11170   0.82060   0.52981   0.00000  Uiso   1.00
H370   H     0.39072   0.67985   0.52882   0.00000  Uiso   1.00
H371   H     0.38830   0.82060   0.47019   0.00000  Uiso   1.00
H372   H     0.10928   0.67985   0.47118   0.00000  Uiso   1.00
H373   H     0.20637   0.53573   0.43424   0.00000  Uiso   1.00
H374   H     0.30579   0.96411   0.55299   0.00000  Uiso   1.00
H375   H     0.29363   0.53573   0.56576   0.00000  Uiso   1.00
H376   H     0.19421   0.96411   0.44701   0.00000  Uiso   1.00
N377   N     0.25000   0.62624   0.50000   0.00000  Uiso   1.00
N378   N     0.25000   0.87377   0.50000   0.00000  Uiso   1.00
O379   O     0.18453   0.78974   0.50000   0.00000  Uiso   1.00
O380   O     0.31547   0.71026   0.50000   0.00000  Uiso   1.00
O381   O     0.31547   0.78974   0.50000   0.00000  Uiso   1.00
O382   O     0.18453   0.71026   0.50000   0.00000  Uiso   1.00
O383   O     0.25000   0.78973   0.42845   0.00000  Uiso   1.00
O384   O     0.25000   0.71027   0.57155   0.00000  Uiso   1.00
O385   O     0.25000   0.78973   0.57155   0.00000  Uiso   1.00
O386   O     0.25000   0.71027   0.42845   0.00000  Uiso   1.00
Zn387  Zn    0.25000   0.80307   0.50000   0.00000  Uiso   1.00
Zn388  Zn    0.25000   0.69693   0.50000   0.00000  Uiso   1.00
I389   I     0.18242   0.63341   0.41014   0.00000  Uiso   1.00
I390   I     0.32561   0.86588   0.58101   0.00000  Uiso   1.00
I391   I     0.31758   0.63341   0.58985   0.00000  Uiso   1.00
I392   I     0.17439   0.86588   0.41899   0.00000  Uiso   1.00
C393   C     0.66402   0.75003   0.50010   0.00000  Uiso   1.00
C394   C     0.83599   0.75003   0.49990   0.00000  Uiso   1.00
C395   C     0.72489   0.60163   0.46502   0.00000  Uiso   1.00
C396   C     0.77958   0.89825   0.53027   0.00000  Uiso   1.00
C397   C     0.77511   0.60163   0.53498   0.00000  Uiso   1.00
C398   C     0.72043   0.89825   0.46973   0.00000  Uiso   1.00
C399   C     0.72544   0.55260   0.46395   0.00000  Uiso   1.00
C400   C     0.78056   0.94728   0.52977   0.00000  Uiso   1.00
C401   C     0.77456   0.55260   0.53605   0.00000  Uiso   1.00
C402   C     0.71944   0.94728   0.47023   0.00000  Uiso   1.00
C403   C     0.74998   0.75000   0.40632   0.00000  Uiso   1.00
C404   C     0.75003   0.75000   0.59368   0.00000  Uiso   1.00
C405   C     0.75000   0.52656   0.50000   0.00000  Uiso   1.00
C406   C     0.75000   0.97331   0.50000   0.00000  Uiso   1.00
C407   C     0.74999   0.75001   0.35516   0.00000  Uiso   1.00
C408   C     0.75001   0.75001   0.64484   0.00000  Uiso   1.00
C409   C     0.54773   0.79015   0.51678   0.00000  Uiso   1.00
C410   C     0.95351   0.71124   0.51674   0.00000  Uiso   1.00
C411   C     0.95227   0.79015   0.48322   0.00000  Uiso   1.00
C412   C     0.54649   0.71124   0.48326   0.00000  Uiso   1.00
C413   C     0.59371   0.78999   0.51660   0.00000  Uiso   1.00
C414   C     0.90757   0.71077   0.51604   0.00000  Uiso   1.00
C415   C     0.90629   0.78999   0.48340   0.00000  Uiso   1.00
C416   C     0.59243   0.71077   0.48396   0.00000  Uiso   1.00
C417   C     0.61609   0.75023   0.50029   0.00000  Uiso   1.00
C418   C     0.88391   0.75023   0.49971   0.00000  Uiso   1.00
C419   C     0.52407   0.75082   0.49994   0.00000  Uiso   1.00
C420   C     0.97593   0.75082   0.50006   0.00000  Uiso   1.00
H421   H     0.53070   0.82068   0.53052   0.00000  Uiso   1.00
H422   H     0.97151   0.68087   0.53059   0.00000  Uiso   1.00
H423   H     0.96930   0.82068   0.46948   0.00000  Uiso   1.00
H424   H     0.52849   0.68087   0.46941   0.00000  Uiso   1.00
H425   H     0.61170   0.82060   0.52981   0.00000  Uiso   1.00
H426   H     0.89072   0.67985   0.52882   0.00000  Uiso   1.00
H427   H     0.88830   0.82060   0.47019   0.00000  Uiso   1.00
H428   H     0.60928   0.67985   0.47118   0.00000  Uiso   1.00
H429   H     0.70637   0.53573   0.43424   0.00000  Uiso   1.00
H430   H     0.80579   0.96411   0.55299   0.00000  Uiso   1.00
H431   H     0.79363   0.53573   0.56576   0.00000  Uiso   1.00
H432   H     0.69421   0.96411   0.44701   0.00000  Uiso   1.00
N433   N     0.75000   0.62624   0.50000   0.00000  Uiso   1.00
N434   N     0.75000   0.87377   0.50000   0.00000  Uiso   1.00
O435   O     0.68453   0.78974   0.50000   0.00000  Uiso   1.00
O436   O     0.81547   0.71026   0.50000   0.00000  Uiso   1.00
O437   O     0.81547   0.78974   0.50000   0.00000  Uiso   1.00
O438   O     0.68453   0.71026   0.50000   0.00000  Uiso   1.00
O439   O     0.75000   0.78973   0.42845   0.00000  Uiso   1.00
O440   O     0.75000   0.71027   0.57155   0.00000  Uiso   1.00
O441   O     0.75000   0.78973   0.57155   0.00000  Uiso   1.00
O442   O     0.75000   0.71027   0.42845   0.00000  Uiso   1.00
Zn443  Zn    0.75000   0.80307   0.50000   0.00000  Uiso   1.00
Zn444  Zn    0.75000   0.69693   0.50000   0.00000  Uiso   1.00
I445   I     0.68242   0.63341   0.41014   0.00000  Uiso   1.00
I446   I     0.82561   0.86588   0.58101   0.00000  Uiso   1.00
I447   I     0.81758   0.63341   0.58985   0.00000  Uiso   1.00
I448   I     0.67439   0.86588   0.41899   0.00000  Uiso   1.00
C449   C     0.16402   0.25003   0.83343   0.00000  Uiso   1.00
C450   C     0.33599   0.25003   0.83323   0.00000  Uiso   1.00
C451   C     0.22489   0.10163   0.79836   0.00000  Uiso   1.00
C452   C     0.27958   0.39825   0.86361   0.00000  Uiso   1.00
C453   C     0.27511   0.10163   0.86831   0.00000  Uiso   1.00
C454   C     0.22043   0.39825   0.80306   0.00000  Uiso   1.00
C455   C     0.22544   0.05260   0.79728   0.00000  Uiso   1.00
C456   C     0.28056   0.44728   0.86311   0.00000  Uiso   1.00
C457   C     0.27456   0.05260   0.86939   0.00000  Uiso   1.00
C458   C     0.21944   0.44728   0.80356   0.00000  Uiso   1.00
C459   C     0.24998   0.25000   0.73965   0.00000  Uiso   1.00
C460   C     0.25003   0.25000   0.92702   0.00000  Uiso   1.00
C461   C     0.25000   0.02656   0.83333   0.00000  Uiso   1.00
C462   C     0.25000   0.47331   0.83333   0.00000  Uiso   1.00
C463   C     0.24999   0.25001   0.68849   0.00000  Uiso   1.00
C464   C     0.25001   0.25001   0.97817   0.00000  Uiso   1.00
C465   C     0.04773   0.29015   0.85012   0.00000  Uiso   1.00
C466   C     0.45351   0.21124   0.85008   0.00000  Uiso   1.00
C467   C     0.45227   0.29015   0.81655   0.00000  Uiso   1.00
C468   C     0.04649   0.21124   0.81659   0.00000  Uiso   1.00
C469   C     0.09371   0.28999   0.84994   0.00000  Uiso   1.00
C470   C     0.40757   0.21077   0.84938   0.00000  Uiso   1.00
C471   C     0.40629   0.28999   0.81673   0.00000  Uiso   1.00
C472   C     0.09243   0.21077   0.81729   0.00000  Uiso   1.00
C473   C     0.11609   0.25023   0.83362   0.00000  Uiso   1.00
C474   C     0.38391   0.25023   0.83305   0.00000  Uiso   1.00
C475   C     0.02407   0.25082   0.83327   0.00000  Uiso   1.00
C476   C     0.47593   0.25082   0.83340   0.00000  Uiso   1.00
H477   H     0.03070   0.32068   0.86385   0.00000  Uiso   1.00
H478   H     0.47151   0.18087   0.86392   0.00000  Uiso   1.00
H479   H     0.46930   0.32068   0.80281   0.00000  Uiso   1.00
H480   H     0.02849   0.18087   0.80275   0.00000  Uiso   1.00
H481   H     0.11170   0.32060   0.86314   0.00000  Uiso   1.00
H482   H     0.39072   0.17985   0.86215   0.00000  Uiso   1.00
H483   H     0.38830   0.32060   0.80352   0.00000  Uiso   1.00
H484   H     0.10928   0.17985   0.80452   0.00000  Uiso   1.00
H485   H     0.20637   0.03573   0.76758   0.00000  Uiso   1.00
H486   H     0.30579   0.46411   0.88632   0.00000  Uiso   1.00
H487   H     0.29363   0.03573   0.89909   0.00000  Uiso   1.00
H488   H     0.19421   0.46411   0.78034   0.00000  Uiso   1.00
N489   N     0.25000   0.12624   0.83333   0.00000  Uiso   1.00
N490   N     0.25000   0.37377   0.83333   0.00000  Uiso   1.00
O491   O     0.18453   0.28974   0.83334   0.00000  Uiso   1.00
O492   O     0.31547   0.21026   0.83333   0.00000  Uiso   1.00
O493   O     0.31547   0.28974   0.83333   0.00000  Uiso   1.00
O494   O     0.18453   0.21026   0.83334   0.00000  Uiso   1.00
O495   O     0.25000   0.28973   0.76178   0.00000  Uiso   1.00
O496   O     0.25000   0.21027   0.90489   0.00000  Uiso   1.00
O497   O     0.25000   0.28973   0.90489   0.00000  Uiso   1.00
O498   O     0.25000   0.21027   0.76178   0.00000  Uiso   1.00
Zn499  Zn    0.25000   0.30307   0.83333   0.00000  Uiso   1.00
Zn500  Zn    0.25000   0.19693   0.83333   0.00000  Uiso   1.00
I501   I     0.18242   0.13341   0.74348   0.00000  Uiso   1.00
I502   I     0.32561   0.36588   0.91435   0.00000  Uiso   1.00
I503   I     0.31758   0.13341   0.92319   0.00000  Uiso   1.00
I504   I     0.17439   0.36588   0.75232   0.00000  Uiso   1.00
C505   C     0.66402   0.25003   0.83343   0.00000  Uiso   1.00
C506   C     0.83599   0.25003   0.83323   0.00000  Uiso   1.00
C507   C     0.72489   0.10163   0.79836   0.00000  Uiso   1.00
C508   C     0.77958   0.39825   0.86361   0.00000  Uiso   1.00
C509   C     0.77511   0.10163   0.86831   0.00000  Uiso   1.00
C510   C     0.72043   0.39825   0.80306   0.00000  Uiso   1.00
C511   C     0.72544   0.05260   0.79728   0.00000  Uiso   1.00
C512   C     0.78056   0.44728   0.86311   0.00000  Uiso   1.00
C513   C     0.77456   0.05260   0.86939   0.00000  Uiso   1.00
C514   C     0.71944   0.44728   0.80356   0.00000  Uiso   1.00
C515   C     0.74998   0.25000   0.73965   0.00000  Uiso   1.00
C516   C     0.75003   0.25000   0.92702   0.00000  Uiso   1.00
C517   C     0.75000   0.02656   0.83333   0.00000  Uiso   1.00
C518   C     0.75000   0.47331   0.83333   0.00000  Uiso   1.00
C519   C     0.74999   0.25001   0.68849   0.00000  Uiso   1.00
C520   C     0.75001   0.25001   0.97817   0.00000  Uiso   1.00
C521   C     0.54773   0.29015   0.85012   0.00000  Uiso   1.00
C522   C     0.95351   0.21124   0.85008   0.00000  Uiso   1.00
C523   C     0.95227   0.29015   0.81655   0.00000  Uiso   1.00
C524   C     0.54649   0.21124   0.81659   0.00000  Uiso   1.00
C525   C     0.59371   0.28999   0.84994   0.00000  Uiso   1.00
C526   C     0.90757   0.21077   0.84938   0.00000  Uiso   1.00
C527   C     0.90629   0.28999   0.81673   0.00000  Uiso   1.00
C528   C     0.59243   0.21077   0.81729   0.00000  Uiso   1.00
C529   C     0.61609   0.25023   0.83362   0.00000  Uiso   1.00
C530   C     0.88391   0.25023   0.83305   0.00000  Uiso   1.00
C531   C     0.52407   0.25082   0.83327   0.00000  Uiso   1.00
C532   C     0.97593   0.25082   0.83340   0.00000  Uiso   1.00
H533   H     0.53070   0.32068   0.86385   0.00000  Uiso   1.00
H534   H     0.97151   0.18087   0.86392   0.00000  Uiso   1.00
H535   H     0.96930   0.32068   0.80281   0.00000  Uiso   1.00
H536   H     0.52849   0.18087   0.80275   0.00000  Uiso   1.00
H537   H     0.61170   0.32060   0.86314   0.00000  Uiso   1.00
H538   H     0.89072   0.17985   0.86215   0.00000  Uiso   1.00
H539   H     0.88830   0.32060   0.80352   0.00000  Uiso   1.00
H540   H     0.60928   0.17985   0.80452   0.00000  Uiso   1.00
H541   H     0.70637   0.03573   0.76758   0.00000  Uiso   1.00
H542   H     0.80579   0.46411   0.88632   0.00000  Uiso   1.00
H543   H     0.79363   0.03573   0.89909   0.00000  Uiso   1.00
H544   H     0.69421   0.46411   0.78034   0.00000  Uiso   1.00
N545   N     0.75000   0.12624   0.83333   0.00000  Uiso   1.00
N546   N     0.75000   0.37377   0.83333   0.00000  Uiso   1.00
O547   O     0.68453   0.28974   0.83334   0.00000  Uiso   1.00
O548   O     0.81547   0.21026   0.83333   0.00000  Uiso   1.00
O549   O     0.81547   0.28974   0.83333   0.00000  Uiso   1.00
O550   O     0.68453   0.21026   0.83334   0.00000  Uiso   1.00
O551   O     0.75000   0.28973   0.76178   0.00000  Uiso   1.00
O552   O     0.75000   0.21027   0.90489   0.00000  Uiso   1.00
O553   O     0.75000   0.28973   0.90489   0.00000  Uiso   1.00
O554   O     0.75000   0.21027   0.76178   0.00000  Uiso   1.00
Zn555  Zn    0.75000   0.30307   0.83333   0.00000  Uiso   1.00
Zn556  Zn    0.75000   0.19693   0.83333   0.00000  Uiso   1.00
I557   I     0.68242   0.13341   0.74348   0.00000  Uiso   1.00
I558   I     0.82561   0.36588   0.91435   0.00000  Uiso   1.00
I559   I     0.81758   0.13341   0.92319   0.00000  Uiso   1.00
I560   I     0.67439   0.36588   0.75232   0.00000  Uiso   1.00
C561   C     0.16402   0.75003   0.83343   0.00000  Uiso   1.00
C562   C     0.33599   0.75003   0.83323   0.00000  Uiso   1.00
C563   C     0.22489   0.60163   0.79836   0.00000  Uiso   1.00
C564   C     0.27958   0.89825   0.86361   0.00000  Uiso   1.00
C565   C     0.27511   0.60163   0.86831   0.00000  Uiso   1.00
C566   C     0.22043   0.89825   0.80306   0.00000  Uiso   1.00
C567   C     0.22544   0.55260   0.79728   0.00000  Uiso   1.00
C568   C     0.28056   0.94728   0.86311   0.00000  Uiso   1.00
C569   C     0.27456   0.55260   0.86939   0.00000  Uiso   1.00
C570   C     0.21944   0.94728   0.80356   0.00000  Uiso   1.00
C571   C     0.24998   0.75000   0.73965   0.00000  Uiso   1.00
C572   C     0.25003   0.75000   0.92702   0.00000  Uiso   1.00
C573   C     0.25000   0.52656   0.83333   0.00000  Uiso   1.00
C574   C     0.25000   0.97331   0.83333   0.00000  Uiso   1.00
C575   C     0.24999   0.75001   0.68849   0.00000  Uiso   1.00
C576   C     0.25001   0.75001   0.97817   0.00000  Uiso   1.00
C577   C     0.04773   0.79015   0.85012   0.00000  Uiso   1.00
C578   C     0.45351   0.71124   0.85008   0.00000  Uiso   1.00
C579   C     0.45227   0.79015   0.81655   0.00000  Uiso   1.00
C580   C     0.04649   0.71124   0.81659   0.00000  Uiso   1.00
C581   C     0.09371   0.78999   0.84994   0.00000  Uiso   1.00
C582   C     0.40757   0.71077   0.84938   0.00000  Uiso   1.00
C583   C     0.40629   0.78999   0.81673   0.00000  Uiso   1.00
C584   C     0.09243   0.71077   0.81729   0.00000  Uiso   1.00
C585   C     0.11609   0.75023   0.83362   0.00000  Uiso   1.00
C586   C     0.38391   0.75023   0.83305   0.00000  Uiso   1.00
C587   C     0.02407   0.75082   0.83327   0.00000  Uiso   1.00
C588   C     0.47593   0.75082   0.83340   0.00000  Uiso   1.00
H589   H     0.03070   0.82068   0.86385   0.00000  Uiso   1.00
H590   H     0.47151   0.68087   0.86392   0.00000  Uiso   1.00
H591   H     0.46930   0.82068   0.80281   0.00000  Uiso   1.00
H592   H     0.02849   0.68087   0.80275   0.00000  Uiso   1.00
H593   H     0.11170   0.82060   0.86314   0.00000  Uiso   1.00
H594   H     0.39072   0.67985   0.86215   0.00000  Uiso   1.00
H595   H     0.38830   0.82060   0.80352   0.00000  Uiso   1.00
H596   H     0.10928   0.67985   0.80452   0.00000  Uiso   1.00
H597   H     0.20637   0.53573   0.76758   0.00000  Uiso   1.00
H598   H     0.30579   0.96411   0.88632   0.00000  Uiso   1.00
H599   H     0.29363   0.53573   0.89909   0.00000  Uiso   1.00
H600   H     0.19421   0.96411   0.78034   0.00000  Uiso   1.00
N601   N     0.25000   0.62624   0.83333   0.00000  Uiso   1.00
N602   N     0.25000   0.87377   0.83333   0.00000  Uiso   1.00
O603   O     0.18453   0.78974   0.83334   0.00000  Uiso   1.00
O604   O     0.31547   0.71026   0.83333   0.00000  Uiso   1.00
O605   O     0.31547   0.78974   0.83333   0.00000  Uiso   1.00
O606   O     0.18453   0.71026   0.83334   0.00000  Uiso   1.00
O607   O     0.25000   0.78973   0.76178   0.00000  Uiso   1.00
O608   O     0.25000   0.71027   0.90489   0.00000  Uiso   1.00
O609   O     0.25000   0.78973   0.90489   0.00000  Uiso   1.00
O610   O     0.25000   0.71027   0.76178   0.00000  Uiso   1.00
Zn611  Zn    0.25000   0.80307   0.83333   0.00000  Uiso   1.00
Zn612  Zn    0.25000   0.69693   0.83333   0.00000  Uiso   1.00
I613   I     0.18242   0.63341   0.74348   0.00000  Uiso   1.00
I614   I     0.32561   0.86588   0.91435   0.00000  Uiso   1.00
I615   I     0.31758   0.63341   0.92319   0.00000  Uiso   1.00
I616   I     0.17439   0.86588   0.75232   0.00000  Uiso   1.00
C617   C     0.66402   0.75003   0.83343   0.00000  Uiso   1.00
C618   C     0.83599   0.75003   0.83323   0.00000  Uiso   1.00
C619   C     0.72489   0.60163   0.79836   0.00000  Uiso   1.00
C620   C     0.77958   0.89825   0.86361   0.00000  Uiso   1.00
C621   C     0.77511   0.60163   0.86831   0.00000  Uiso   1.00
C622   C     0.72043   0.89825   0.80306   0.00000  Uiso   1.00
C623   C     0.72544   0.55260   0.79728   0.00000  Uiso   1.00
C624   C     0.78056   0.94728   0.86311   0.00000  Uiso   1.00
C625   C     0.77456   0.55260   0.86939   0.00000  Uiso   1.00
C626   C     0.71944   0.94728   0.80356   0.00000  Uiso   1.00
C627   C     0.74998   0.75000   0.73965   0.00000  Uiso   1.00
C628   C     0.75003   0.75000   0.92702   0.00000  Uiso   1.00
C629   C     0.75000   0.52656   0.83333   0.00000  Uiso   1.00
C630   C     0.75000   0.97331   0.83333   0.00000  Uiso   1.00
C631   C     0.74999   0.75001   0.68849   0.00000  Uiso   1.00
C632   C     0.75001   0.75001   0.97817   0.00000  Uiso   1.00
C633   C     0.54773   0.79015   0.85012   0.00000  Uiso   1.00
C634   C     0.95351   0.71124   0.85008   0.00000  Uiso   1.00
C635   C     0.95227   0.79015   0.81655   0.00000  Uiso   1.00
C636   C     0.54649   0.71124   0.81659   0.00000  Uiso   1.00
C637   C     0.59371   0.78999   0.84994   0.00000  Uiso   1.00
C638   C     0.90757   0.71077   0.84938   0.00000  Uiso   1.00
C639   C     0.90629   0.78999   0.81673   0.00000  Uiso   1.00
C640   C     0.59243   0.71077   0.81729   0.00000  Uiso   1.00
C641   C     0.61609   0.75023   0.83362   0.00000  Uiso   1.00
C642   C     0.88391   0.75023   0.83305   0.00000  Uiso   1.00
C643   C     0.52407   0.75082   0.83327   0.00000  Uiso   1.00
C644   C     0.97593   0.75082   0.83340   0.00000  Uiso   1.00
H645   H     0.53070   0.82068   0.86385   0.00000  Uiso   1.00
H646   H     0.97151   0.68087   0.86392   0.00000  Uiso   1.00
H647   H     0.96930   0.82068   0.80281   0.00000  Uiso   1.00
H648   H     0.52849   0.68087   0.80275   0.00000  Uiso   1.00
H649   H     0.61170   0.82060   0.86314   0.00000  Uiso   1.00
H650   H     0.89072   0.67985   0.86215   0.00000  Uiso   1.00
H651   H     0.88830   0.82060   0.80352   0.00000  Uiso   1.00
H652   H     0.60928   0.67985   0.80452   0.00000  Uiso   1.00
H653   H     0.70637   0.53573   0.76758   0.00000  Uiso   1.00
H654   H     0.80579   0.96411   0.88632   0.00000  Uiso   1.00
H655   H     0.79363   0.53573   0.89909   0.00000  Uiso   1.00
H656   H     0.69421   0.96411   0.78034   0.00000  Uiso   1.00
N657   N     0.75000   0.62624   0.83333   0.00000  Uiso   1.00
N658   N     0.75000   0.87377   0.83333   0.00000  Uiso   1.00
O659   O     0.68453   0.78974   0.83334   0.00000  Uiso   1.00
O660   O     0.81547   0.71026   0.83333   0.00000  Uiso   1.00
O661   O     0.81547   0.78974   0.83333   0.00000  Uiso   1.00
O662   O     0.68453   0.71026   0.83334   0.00000  Uiso   1.00
O663   O     0.75000   0.78973   0.76178   0.00000  Uiso   1.00
O664   O     0.75000   0.71027   0.90489   0.00000  Uiso   1.00
O665   O     0.75000   0.78973   0.90489   0.00000  Uiso   1.00
O666   O     0.75000   0.71027   0.76178   0.00000  Uiso   1.00
Zn667  Zn    0.75000   0.80307   0.83333   0.00000  Uiso   1.00
Zn668  Zn    0.75000   0.69693   0.83333   0.00000  Uiso   1.00
I669   I     0.68242   0.63341   0.74348   0.00000  Uiso   1.00
I670   I     0.82561   0.86588   0.91435   0.00000  Uiso   1.00
I671   I     0.81758   0.63341   0.92319   0.00000  Uiso   1.00
I672   I     0.67439   0.86588   0.75232   0.00000  Uiso   1.00
loop_
_geom_bond_atom_site_label_1
_geom_bond_atom_site_label_2
_geom_bond_distance
_geom_bond_site_symmetry_2
_ccdc_geom_bond_type
C1     C25     1.440   .     S
C1     O46     1.296   .     A
C1     O43     1.295   .     A
C2     C26     1.440   .     S
C2     O45     1.295   .     A
C2     O44     1.296   .     A
C3     C7      1.406   .     A
C3     I53     2.117   .     S
C3     N41     1.376   .     A
C4     C8      1.406   .     A
C4     N42     1.374   .     A
C4     I54     2.118   .     S
C5     C9      1.406   .     A
C5     I55     2.117   .     S
C5     N41     1.376   .     A
C6     C10     1.406   .     A
C6     N42     1.374   .     A
C6     I56     2.118   .     S
C7     H37     1.078   .     S
C7     C13     1.408   .     A
C8     H38     1.078   .     S
C8     C14     1.409   .     A
C9     C13     1.408   .     A
C9     H39     1.078   .     S
C10    H40     1.078   .     S
C10    C14     1.409   .     A
C11    O47     1.283   .     A
C11    O50     1.283   .     A
C11    C15     1.365   .     S
C12    O48     1.283   .     A
C12    O49     1.283   .     A
C12    C16     1.365   .     S
C13    C126    1.527   1_545 S
C14    C125    1.527   .     S
C15    C464    1.165   1_554 S
C16    C239    1.165   .     S
C17    H29     1.083   .     S
C17    C27     1.399   .     A
C17    C21     1.381   .     A
C18    H30     1.083   .     S
C18    C28     1.399   .     A
C18    C22     1.379   .     A
C19    H31     1.083   .     S
C19    C28     1.399   .     A
C19    C23     1.381   .     A
C20    C27     1.399   .     A
C20    H32     1.083   .     S
C20    C24     1.379   .     A
C21    H33     1.083   .     S
C21    C25     1.400   .     A
C22    C26     1.398   .     A
C22    H34     1.081   .     S
C23    H35     1.083   .     S
C23    C26     1.400   .     A
C24    H36     1.081   .     S
C24    C25     1.398   .     A
C27    C84     1.446   1_455 S
C28    C83     1.446   .     S
N41    Zn52    2.027   .     S
N42    Zn51    2.027   .     S
O43    Zn51    2.003   .     S
O44    Zn52    2.003   .     S
O45    Zn51    2.003   .     S
O46    Zn52    2.003   .     S
O47    Zn51    1.947   .     S
O48    Zn52    1.947   .     S
O49    Zn51    1.947   .     S
O50    Zn52    1.947   .     S
C57    C81     1.440   .     S
C57    O102    1.296   .     A
C57    O99     1.295   .     A
C58    C82     1.440   .     S
C58    O101    1.295   .     A
C58    O100    1.296   .     A
C59    C63     1.406   .     A
C59    I109    2.117   .     S
C59    N97     1.376   .     A
C60    C64     1.406   .     A
C60    N98     1.374   .     A
C60    I110    2.118   .     S
C61    C65     1.406   .     A
C61    I111    2.117   .     S
C61    N97     1.376   .     A
C62    C66     1.406   .     A
C62    N98     1.374   .     A
C62    I112    2.118   .     S
C63    H93     1.078   .     S
C63    C69     1.408   .     A
C64    H94     1.078   .     S
C64    C70     1.409   .     A
C65    C69     1.408   .     A
C65    H95     1.078   .     S
C66    H96     1.078   .     S
C66    C70     1.409   .     A
C67    O103    1.283   .     A
C67    O106    1.283   .     A
C67    C71     1.365   .     S
C68    O104    1.283   .     A
C68    O105    1.283   .     A
C68    C72     1.365   .     S
C69    C182    1.527   1_545 S
C70    C181    1.527   .     S
C71    C520    1.165   1_554 S
C72    C295    1.165   .     S
C73    H85     1.083   .     S
C73    C83     1.399   .     A
C73    C77     1.381   .     A
C74    H86     1.083   .     S
C74    C84     1.399   .     A
C74    C78     1.379   .     A
C75    H87     1.083   .     S
C75    C84     1.399   .     A
C75    C79     1.381   .     A
C76    C83     1.399   .     A
C76    H88     1.083   .     S
C76    C80     1.379   .     A
C77    H89     1.083   .     S
C77    C81     1.400   .     A
C78    C82     1.398   .     A
C78    H90     1.081   .     S
C79    H91     1.083   .     S
C79    C82     1.400   .     A
C80    H92     1.081   .     S
C80    C81     1.398   .     A
C84    C27     1.446   1_655 S
N97    Zn108   2.027   .     S
N98    Zn107   2.027   .     S
O99    Zn107   2.003   .     S
O100   Zn108   2.003   .     S
O101   Zn107   2.003   .     S
O102   Zn108   2.003   .     S
O103   Zn107   1.947   .     S
O104   Zn108   1.947   .     S
O105   Zn107   1.947   .     S
O106   Zn108   1.947   .     S
C113   C137    1.440   .     S
C113   O158    1.296   .     A
C113   O155    1.295   .     A
C114   C138    1.440   .     S
C114   O157    1.295   .     A
C114   O156    1.296   .     A
C115   C119    1.406   .     A
C115   I165    2.117   .     S
C115   N153    1.376   .     A
C116   C120    1.406   .     A
C116   N154    1.374   .     A
C116   I166    2.118   .     S
C117   C121    1.406   .     A
C117   I167    2.117   .     S
C117   N153    1.376   .     A
C118   C122    1.406   .     A
C118   N154    1.374   .     A
C118   I168    2.118   .     S
C119   H149    1.078   .     S
C119   C125    1.408   .     A
C120   H150    1.078   .     S
C120   C126    1.409   .     A
C121   C125    1.408   .     A
C121   H151    1.078   .     S
C122   H152    1.078   .     S
C122   C126    1.409   .     A
C123   O159    1.283   .     A
C123   O162    1.283   .     A
C123   C127    1.365   .     S
C124   O160    1.283   .     A
C124   O161    1.283   .     A
C124   C128    1.365   .     S
C126   C13     1.527   1_565 S
C127   C576    1.165   1_554 S
C128   C351    1.165   .     S
C129   H141    1.083   .     S
C129   C139    1.399   .     A
C129   C133    1.381   .     A
C130   H142    1.083   .     S
C130   C140    1.399   .     A
C130   C134    1.379   .     A
C131   H143    1.083   .     S
C131   C140    1.399   .     A
C131   C135    1.381   .     A
C132   C139    1.399   .     A
C132   H144    1.083   .     S
C132   C136    1.379   .     A
C133   H145    1.083   .     S
C133   C137    1.400   .     A
C134   C138    1.398   .     A
C134   H146    1.081   .     S
C135   H147    1.083   .     S
C135   C138    1.400   .     A
C136   H148    1.081   .     S
C136   C137    1.398   .     A
C139   C196    1.446   1_455 S
C140   C195    1.446   .     S
N153   Zn164   2.027   .     S
N154   Zn163   2.027   .     S
O155   Zn163   2.003   .     S
O156   Zn164   2.003   .     S
O157   Zn163   2.003   .     S
O158   Zn164   2.003   .     S
O159   Zn163   1.947   .     S
O160   Zn164   1.947   .     S
O161   Zn163   1.947   .     S
O162   Zn164   1.947   .     S
C169   C193    1.440   .     S
C169   O214    1.296   .     A
C169   O211    1.295   .     A
C170   C194    1.440   .     S
C170   O213    1.295   .     A
C170   O212    1.296   .     A
C171   C175    1.406   .     A
C171   I221    2.117   .     S
C171   N209    1.376   .     A
C172   C176    1.406   .     A
C172   N210    1.374   .     A
C172   I222    2.118   .     S
C173   C177    1.406   .     A
C173   I223    2.117   .     S
C173   N209    1.376   .     A
C174   C178    1.406   .     A
C174   N210    1.374   .     A
C174   I224    2.118   .     S
C175   H205    1.078   .     S
C175   C181    1.408   .     A
C176   H206    1.078   .     S
C176   C182    1.409   .     A
C177   C181    1.408   .     A
C177   H207    1.078   .     S
C178   H208    1.078   .     S
C178   C182    1.409   .     A
C179   O215    1.283   .     A
C179   O218    1.283   .     A
C179   C183    1.365   .     S
C180   O216    1.283   .     A
C180   O217    1.283   .     A
C180   C184    1.365   .     S
C182   C69     1.527   1_565 S
C183   C632    1.165   1_554 S
C184   C407    1.165   .     S
C185   H197    1.083   .     S
C185   C195    1.399   .     A
C185   C189    1.381   .     A
C186   H198    1.083   .     S
C186   C196    1.399   .     A
C186   C190    1.379   .     A
C187   H199    1.083   .     S
C187   C196    1.399   .     A
C187   C191    1.381   .     A
C188   C195    1.399   .     A
C188   H200    1.083   .     S
C188   C192    1.379   .     A
C189   H201    1.083   .     S
C189   C193    1.400   .     A
C190   C194    1.398   .     A
C190   H202    1.081   .     S
C191   H203    1.083   .     S
C191   C194    1.400   .     A
C192   H204    1.081   .     S
C192   C193    1.398   .     A
C196   C139    1.446   1_655 S
N209   Zn220   2.027   .     S
N210   Zn219   2.027   .     S
O211   Zn219   2.003   .     S
O212   Zn220   2.003   .     S
O213   Zn219   2.003   .     S
O214   Zn220   2.003   .     S
O215   Zn219   1.947   .     S
O216   Zn220   1.947   .     S
O217   Zn219   1.947   .     S
O218   Zn220   1.947   .     S
C225   C249    1.440   .     S
C225   O270    1.296   .     A
C225   O267    1.295   .     A
C226   C250    1.440   .     S
C226   O269    1.295   .     A
C226   O268    1.296   .     A
C227   C231    1.406   .     A
C227   I277    2.117   .     S
C227   N265    1.376   .     A
C228   C232    1.406   .     A
C228   N266    1.374   .     A
C228   I278    2.118   .     S
C229   C233    1.406   .     A
C229   I279    2.117   .     S
C229   N265    1.376   .     A
C230   C234    1.406   .     A
C230   N266    1.374   .     A
C230   I280    2.118   .     S
C231   H261    1.078   .     S
C231   C237    1.408   .     A
C232   H262    1.078   .     S
C232   C238    1.409   .     A
C233   C237    1.408   .     A
C233   H263    1.078   .     S
C234   H264    1.078   .     S
C234   C238    1.409   .     A
C235   O271    1.283   .     A
C235   O274    1.283   .     A
C235   C239    1.365   .     S
C236   O272    1.283   .     A
C236   O273    1.283   .     A
C236   C240    1.365   .     S
C237   C350    1.527   1_545 S
C238   C349    1.527   .     S
C240   C463    1.165   .     S
C241   H253    1.083   .     S
C241   C251    1.399   .     A
C241   C245    1.381   .     A
C242   H254    1.083   .     S
C242   C252    1.399   .     A
C242   C246    1.379   .     A
C243   H255    1.083   .     S
C243   C252    1.399   .     A
C243   C247    1.381   .     A
C244   C251    1.399   .     A
C244   H256    1.083   .     S
C244   C248    1.379   .     A
C245   H257    1.083   .     S
C245   C249    1.400   .     A
C246   C250    1.398   .     A
C246   H258    1.081   .     S
C247   H259    1.083   .     S
C247   C250    1.400   .     A
C248   H260    1.081   .     S
C248   C249    1.398   .     A
C251   C308    1.446   1_455 S
C252   C307    1.446   .     S
N265   Zn276   2.027   .     S
N266   Zn275   2.027   .     S
O267   Zn275   2.003   .     S
O268   Zn276   2.003   .     S
O269   Zn275   2.003   .     S
O270   Zn276   2.003   .     S
O271   Zn275   1.947   .     S
O272   Zn276   1.947   .     S
O273   Zn275   1.947   .     S
O274   Zn276   1.947   .     S
C281   C305    1.440   .     S
C281   O326    1.296   .     A
C281   O323    1.295   .     A
C282   C306    1.440   .     S
C282   O325    1.295   .     A
C282   O324    1.296   .     A
C283   C287    1.406   .     A
C283   I333    2.117   .     S
C283   N321    1.376   .     A
C284   C288    1.406   .     A
C284   N322    1.374   .     A
C284   I334    2.118   .     S
C285   C289    1.406   .     A
C285   I335    2.117   .     S
C285   N321    1.376   .     A
C286   C290    1.406   .     A
C286   N322    1.374   .     A
C286   I336    2.118   .     S
C287   H317    1.078   .     S
C287   C293    1.408   .     A
C288   H318    1.078   .     S
C288   C294    1.409   .     A
C289   C293    1.408   .     A
C289   H319    1.078   .     S
C290   H320    1.078   .     S
C290   C294    1.409   .     A
C291   O327    1.283   .     A
C291   O330    1.283   .     A
C291   C295    1.365   .     S
C292   O328    1.283   .     A
C292   O329    1.283   .     A
C292   C296    1.365   .     S
C293   C406    1.527   1_545 S
C294   C405    1.527   .     S
C296   C519    1.165   .     S
C297   H309    1.083   .     S
C297   C307    1.399   .     A
C297   C301    1.381   .     A
C298   H310    1.083   .     S
C298   C308    1.399   .     A
C298   C302    1.379   .     A
C299   H311    1.083   .     S
C299   C308    1.399   .     A
C299   C303    1.381   .     A
C300   C307    1.399   .     A
C300   H312    1.083   .     S
C300   C304    1.379   .     A
C301   H313    1.083   .     S
C301   C305    1.400   .     A
C302   C306    1.398   .     A
C302   H314    1.081   .     S
C303   H315    1.083   .     S
C303   C306    1.400   .     A
C304   H316    1.081   .     S
C304   C305    1.398   .     A
C308   C251    1.446   1_655 S
N321   Zn332   2.027   .     S
N322   Zn331   2.027   .     S
O323   Zn331   2.003   .     S
O324   Zn332   2.003   .     S
O325   Zn331   2.003   .     S
O326   Zn332   2.003   .     S
O327   Zn331   1.947   .     S
O328   Zn332   1.947   .     S
O329   Zn331   1.947   .     S
O330   Zn332   1.947   .     S
C337   C361    1.440   .     S
C337   O382    1.296   .     A
C337   O379    1.295   .     A
C338   C362    1.440   .     S
C338   O381    1.295   .     A
C338   O380    1.296   .     A
C339   C343    1.406   .     A
C339   I389    2.117   .     S
C339   N377    1.376   .     A
C340   C344    1.406   .     A
C340   N378    1.374   .     A
C340   I390    2.118   .     S
C341   C345    1.406   .     A
C341   I391    2.117   .     S
C341   N377    1.376   .     A
C342   C346    1.406   .     A
C342   N378    1.374   .     A
C342   I392    2.118   .     S
C343   H373    1.078   .     S
C343   C349    1.408   .     A
C344   H374    1.078   .     S
C344   C350    1.409   .     A
C345   C349    1.408   .     A
C345   H375    1.078   .     S
C346   H376    1.078   .     S
C346   C350    1.409   .     A
C347   O383    1.283   .     A
C347   O386    1.283   .     A
C347   C351    1.365   .     S
C348   O384    1.283   .     A
C348   O385    1.283   .     A
C348   C352    1.365   .     S
C350   C237    1.527   1_565 S
C352   C575    1.165   .     S
C353   H365    1.083   .     S
C353   C363    1.399   .     A
C353   C357    1.381   .     A
C354   H366    1.083   .     S
C354   C364    1.399   .     A
C354   C358    1.379   .     A
C355   H367    1.083   .     S
C355   C364    1.399   .     A
C355   C359    1.381   .     A
C356   C363    1.399   .     A
C356   H368    1.083   .     S
C356   C360    1.379   .     A
C357   H369    1.083   .     S
C357   C361    1.400   .     A
C358   C362    1.398   .     A
C358   H370    1.081   .     S
C359   H371    1.083   .     S
C359   C362    1.400   .     A
C360   H372    1.081   .     S
C360   C361    1.398   .     A
C363   C420    1.446   1_455 S
C364   C419    1.446   .     S
N377   Zn388   2.027   .     S
N378   Zn387   2.027   .     S
O379   Zn387   2.003   .     S
O380   Zn388   2.003   .     S
O381   Zn387   2.003   .     S
O382   Zn388   2.003   .     S
O383   Zn387   1.947   .     S
O384   Zn388   1.947   .     S
O385   Zn387   1.947   .     S
O386   Zn388   1.947   .     S
C393   C417    1.440   .     S
C393   O438    1.296   .     A
C393   O435    1.295   .     A
C394   C418    1.440   .     S
C394   O437    1.295   .     A
C394   O436    1.296   .     A
C395   C399    1.406   .     A
C395   I445    2.117   .     S
C395   N433    1.376   .     A
C396   C400    1.406   .     A
C396   N434    1.374   .     A
C396   I446    2.118   .     S
C397   C401    1.406   .     A
C397   I447    2.117   .     S
C397   N433    1.376   .     A
C398   C402    1.406   .     A
C398   N434    1.374   .     A
C398   I448    2.118   .     S
C399   H429    1.078   .     S
C399   C405    1.408   .     A
C400   H430    1.078   .     S
C400   C406    1.409   .     A
C401   C405    1.408   .     A
C401   H431    1.078   .     S
C402   H432    1.078   .     S
C402   C406    1.409   .     A
C403   O439    1.283   .     A
C403   O442    1.283   .     A
C403   C407    1.365   .     S
C404   O440    1.283   .     A
C404   O441    1.283   .     A
C404   C408    1.365   .     S
C406   C293    1.527   1_565 S
C408   C631    1.165   .     S
C409   H421    1.083   .     S
C409   C419    1.399   .     A
C409   C413    1.381   .     A
C410   H422    1.083   .     S
C410   C420    1.399   .     A
C410   C414    1.379   .     A
C411   H423    1.083   .     S
C411   C420    1.399   .     A
C411   C415    1.381   .     A
C412   C419    1.399   .     A
C412   H424    1.083   .     S
C412   C416    1.379   .     A
C413   H425    1.083   .     S
C413   C417    1.400   .     A
C414   C418    1.398   .     A
C414   H426    1.081   .     S
C415   H427    1.083   .     S
C415   C418    1.400   .     A
C416   H428    1.081   .     S
C416   C417    1.398   .     A
C420   C363    1.446   1_655 S
N433   Zn444   2.027   .     S
N434   Zn443   2.027   .     S
O435   Zn443   2.003   .     S
O436   Zn444   2.003   .     S
O437   Zn443   2.003   .     S
O438   Zn444   2.003   .     S
O439   Zn443   1.947   .     S
O440   Zn444   1.947   .     S
O441   Zn443   1.947   .     S
O442   Zn444   1.947   .     S
C449   C473    1.440   .     S
C449   O494    1.296   .     A
C449   O491    1.295   .     A
C450   C474    1.440   .     S
C450   O493    1.295   .     A
C450   O492    1.296   .     A
C451   C455    1.406   .     A
C451   I501    2.117   .     S
C451   N489    1.376   .     A
C452   C456    1.406   .     A
C452   N490    1.374   .     A
C452   I502    2.118   .     S
C453   C457    1.406   .     A
C453   I503    2.117   .     S
C453   N489    1.376   .     A
C454   C458    1.406   .     A
C454   N490    1.374   .     A
C454   I504    2.118   .     S
C455   H485    1.078   .     S
C455   C461    1.408   .     A
C456   H486    1.078   .     S
C456   C462    1.409   .     A
C457   C461    1.408   .     A
C457   H487    1.078   .     S
C458   H488    1.078   .     S
C458   C462    1.409   .     A
C459   O495    1.283   .     A
C459   O498    1.283   .     A
C459   C463    1.365   .     S
C460   O496    1.283   .     A
C460   O497    1.283   .     A
C460   C464    1.365   .     S
C461   C574    1.527   1_545 S
C462   C573    1.527   .     S
C464   C15     1.165   1_556 S
C465   H477    1.083   .     S
C465   C475    1.399   .     A
C465   C469    1.381   .     A
C466   H478    1.083   .     S
C466   C476    1.399   .     A
C466   C470    1.379   .     A
C467   H479    1.083   .     S
C467   C476    1.399   .     A
C467   C471    1.381   .     A
C468   C475    1.399   .     A
C468   H480    1.083   .     S
C468   C472    1.379   .     A
C469   H481    1.083   .     S
C469   C473    1.400   .     A
C470   C474    1.398   .     A
C470   H482    1.081   .     S
C471   H483    1.083   .     S
C471   C474    1.400   .     A
C472   H484    1.081   .     S
C472   C473    1.398   .     A
C475   C532    1.446   1_455 S
C476   C531    1.446   .     S
N489   Zn500   2.027   .     S
N490   Zn499   2.027   .     S
O491   Zn499   2.003   .     S
O492   Zn500   2.003   .     S
O493   Zn499   2.003   .     S
O494   Zn500   2.003   .     S
O495   Zn499   1.947   .     S
O496   Zn500   1.947   .     S
O497   Zn499   1.947   .     S
O498   Zn500   1.947   .     S
C505   C529    1.440   .     S
C505   O550    1.296   .     A
C505   O547    1.295   .     A
C506   C530    1.440   .     S
C506   O549    1.295   .     A
C506   O548    1.296   .     A
C507   C511    1.406   .     A
C507   I557    2.117   .     S
C507   N545    1.376   .     A
C508   C512    1.406   .     A
C508   N546    1.374   .     A
C508   I558    2.118   .     S
C509   C513    1.406   .     A
C509   I559    2.117   .     S
C509   N545    1.376   .     A
C510   C514    1.406   .     A
C510   N546    1.374   .     A
C510   I560    2.118   .     S
C511   H541    1.078   .     S
C511   C517    1.408   .     A
C512   H542    1.078   .     S
C512   C518    1.409   .     A
C513   C517    1.408   .     A
C513   H543    1.078   .     S
C514   H544    1.078   .     S
C514   C518    1.409   .     A
C515   O551    1.283   .     A
C515   O554    1.283   .     A
C515   C519    1.365   .     S
C516   O552    1.283   .     A
C516   O553    1.283   .     A
C516   C520    1.365   .     S
C517   C630    1.527   1_545 S
C518   C629    1.527   .     S
C520   C71     1.165   1_556 S
C521   H533    1.083   .     S
C521   C531    1.399   .     A
C521   C525    1.381   .     A
C522   H534    1.083   .     S
C522   C532    1.399   .     A
C522   C526    1.379   .     A
C523   H535    1.083   .     S
C523   C532    1.399   .     A
C523   C527    1.381   .     A
C524   C531    1.399   .     A
C524   H536    1.083   .     S
C524   C528    1.379   .     A
C525   H537    1.083   .     S
C525   C529    1.400   .     A
C526   C530    1.398   .     A
C526   H538    1.081   .     S
C527   H539    1.083   .     S
C527   C530    1.400   .     A
C528   H540    1.081   .     S
C528   C529    1.398   .     A
C532   C475    1.446   1_655 S
N545   Zn556   2.027   .     S
N546   Zn555   2.027   .     S
O547   Zn555   2.003   .     S
O548   Zn556   2.003   .     S
O549   Zn555   2.003   .     S
O550   Zn556   2.003   .     S
O551   Zn555   1.947   .     S
O552   Zn556   1.947   .     S
O553   Zn555   1.947   .     S
O554   Zn556   1.947   .     S
C561   C585    1.440   .     S
C561   O606    1.296   .     A
C561   O603    1.295   .     A
C562   C586    1.440   .     S
C562   O605    1.295   .     A
C562   O604    1.296   .     A
C563   C567    1.406   .     A
C563   I613    2.117   .     S
C563   N601    1.376   .     A
C564   C568    1.406   .     A
C564   N602    1.374   .     A
C564   I614    2.118   .     S
C565   C569    1.406   .     A
C565   I615    2.117   .     S
C565   N601    1.376   .     A
C566   C570    1.406   .     A
C566   N602    1.374   .     A
C566   I616    2.118   .     S
C567   H597    1.078   .     S
C567   C573    1.408   .     A
C568   H598    1.078   .     S
C568   C574    1.409   .     A
C569   C573    1.408   .     A
C569   H599    1.078   .     S
C570   H600    1.078   .     S
C570   C574    1.409   .     A
C571   O607    1.283   .     A
C571   O610    1.283   .     A
C571   C575    1.365   .     S
C572   O608    1.283   .     A
C572   O609    1.283   .     A
C572   C576    1.365   .     S
C574   C461    1.527   1_565 S
C576   C127    1.165   1_556 S
C577   H589    1.083   .     S
C577   C587    1.399   .     A
C577   C581    1.381   .     A
C578   H590    1.083   .     S
C578   C588    1.399   .     A
C578   C582    1.379   .     A
C579   H591    1.083   .     S
C579   C588    1.399   .     A
C579   C583    1.381   .     A
C580   C587    1.399   .     A
C580   H592    1.083   .     S
C580   C584    1.379   .     A
C581   H593    1.083   .     S
C581   C585    1.400   .     A
C582   C586    1.398   .     A
C582   H594    1.081   .     S
C583   H595    1.083   .     S
C583   C586    1.400   .     A
C584   H596    1.081   .     S
C584   C585    1.398   .     A
C587   C644    1.446   1_455 S
C588   C643    1.446   .     S
N601   Zn612   2.027   .     S
N602   Zn611   2.027   .     S
O603   Zn611   2.003   .     S
O604   Zn612   2.003   .     S
O605   Zn611   2.003   .     S
O606   Zn612   2.003   .     S
O607   Zn611   1.947   .     S
O608   Zn612   1.947   .     S
O609   Zn611   1.947   .     S
O610   Zn612   1.947   .     S
C617   C641    1.440   .     S
C617   O662    1.296   .     A
C617   O659    1.295   .     A
C618   C642    1.440   .     S
C618   O661    1.295   .     A
C618   O660    1.296   .     A
C619   C623    1.406   .     A
C619   I669    2.117   .     S
C619   N657    1.376   .     A
C620   C624    1.406   .     A
C620   N658    1.374   .     A
C620   I670    2.118   .     S
C621   C625    1.406   .     A
C621   I671    2.117   .     S
C621   N657    1.376   .     A
C622   C626    1.406   .     A
C622   N658    1.374   .     A
C622   I672    2.118   .     S
C623   H653    1.078   .     S
C623   C629    1.408   .     A
C624   H654    1.078   .     S
C624   C630    1.409   .     A
C625   C629    1.408   .     A
C625   H655    1.078   .     S
C626   H656    1.078   .     S
C626   C630    1.409   .     A
C627   O663    1.283   .     A
C627   O666    1.283   .     A
C627   C631    1.365   .     S
C628   O664    1.283   .     A
C628   O665    1.283   .     A
C628   C632    1.365   .     S
C630   C517    1.527   1_565 S
C632   C183    1.165   1_556 S
C633   H645    1.083   .     S
C633   C643    1.399   .     A
C633   C637    1.381   .     A
C634   H646    1.083   .     S
C634   C644    1.399   .     A
C634   C638    1.379   .     A
C635   H647    1.083   .     S
C635   C644    1.399   .     A
C635   C639    1.381   .     A
C636   C643    1.399   .     A
C636   H648    1.083   .     S
C636   C640    1.379   .     A
C637   H649    1.083   .     S
C637   C641    1.400   .     A
C638   C642    1.398   .     A
C638   H650    1.081   .     S
C639   H651    1.083   .     S
C639   C642    1.400   .     A
C640   H652    1.081   .     S
C640   C641    1.398   .     A
C644   C587    1.446   1_655 S
N657   Zn668   2.027   .     S
N658   Zn667   2.027   .     S
O659   Zn667   2.003   .     S
O660   Zn668   2.003   .     S
O661   Zn667   2.003   .     S
O662   Zn668   2.003   .     S
O663   Zn667   1.947   .     S
O664   Zn668   1.947   .     S
O665   Zn667   1.947   .     S
O666   Zn668   1.947   .     S
