data_str_m2_o1_o2_pcu_sym.114
_audit_creation_date              2020-01-03
_audit_creation_method            'Materials Studio'
_symmetry_space_group_name_H-M    'P1'
_symmetry_Int_Tables_number       1
_symmetry_cell_setting            triclinic
loop_
_symmetry_equiv_pos_as_xyz
  x,y,z
_cell_length_a                    32.5025
_cell_length_b                    28.5820
_cell_length_c                    30.2753
_cell_angle_alpha                 90.0000
_cell_angle_beta                  90.3878
_cell_angle_gamma                 90.0000
loop_
_atom_site_label
_atom_site_type_symbol
_atom_site_fract_x
_atom_site_fract_y
_atom_site_fract_z
_atom_site_U_iso_or_equiv
_atom_site_adp_type
_atom_site_occupancy
C1     C     0.08736   0.16667   0.24995   0.00000  Uiso   1.00
C2     C     0.24597   0.16667   0.25005   0.00000  Uiso   1.00
C3     C     0.16662   0.16667   0.16497   0.00000  Uiso   1.00
C4     C     0.16672   0.16667   0.33503   0.00000  Uiso   1.00
C5     C     0.14092   0.02478   0.22259   0.00000  Uiso   1.00
C6     C     0.19242   0.30855   0.27741   0.00000  Uiso   1.00
C7     C     0.19242   0.02478   0.27741   0.00000  Uiso   1.00
C8     C     0.14091   0.30855   0.22259   0.00000  Uiso   1.00
C9     C     0.02128   0.12415   0.24997   0.00000  Uiso   1.00
C10    C     0.31205   0.20918   0.25003   0.00000  Uiso   1.00
C11    C     0.31205   0.12415   0.25003   0.00000  Uiso   1.00
C12    C     0.02128   0.20918   0.24997   0.00000  Uiso   1.00
C13    C     0.15412   0.20665   0.04752   0.00000  Uiso   1.00
C14    C     0.15423   0.12666   0.45228   0.00000  Uiso   1.00
C15    C     0.17921   0.20665   0.45248   0.00000  Uiso   1.00
C16    C     0.17911   0.12666   0.04772   0.00000  Uiso   1.00
C17    C     0.15437   0.20676   0.09343   0.00000  Uiso   1.00
C18    C     0.15454   0.12655   0.40638   0.00000  Uiso   1.00
C19    C     0.17896   0.20676   0.40657   0.00000  Uiso   1.00
C20    C     0.17880   0.12655   0.09362   0.00000  Uiso   1.00
C21    C     0.16659   0.16666   0.11673   0.00000  Uiso   1.00
C22    C     0.16674   0.16666   0.38327   0.00000  Uiso   1.00
C23    C     0.16664   0.16666   0.02428   0.00000  Uiso   1.00
C24    C     0.16669   0.16666   0.47572   0.00000  Uiso   1.00
C25    C     0.29059   0.16667   0.25005   0.00000  Uiso   1.00
C26    C     0.04274   0.16667   0.24995   0.00000  Uiso   1.00
Cu27   Cu    0.16667   0.21355   0.25000   0.00000  Uiso   1.00
Cu28   Cu    0.16667   0.11978   0.25000   0.00000  Uiso   1.00
H29    H     0.14448   0.23796   0.11067   0.00000  Uiso   1.00
H30    H     0.14467   0.09534   0.38899   0.00000  Uiso   1.00
H31    H     0.18885   0.23796   0.38933   0.00000  Uiso   1.00
H32    H     0.18866   0.09534   0.11101   0.00000  Uiso   1.00
N33    N     0.16667   0.28402   0.25000   0.00000  Uiso   1.00
N34    N     0.16667   0.04931   0.25000   0.00000  Uiso   1.00
O35    O     0.10655   0.20625   0.25000   0.00000  Uiso   1.00
O36    O     0.22679   0.12709   0.25001   0.00000  Uiso   1.00
O37    O     0.22679   0.20625   0.25001   0.00000  Uiso   1.00
O38    O     0.10655   0.12709   0.25000   0.00000  Uiso   1.00
O39    O     0.16666   0.20626   0.18573   0.00000  Uiso   1.00
O40    O     0.16667   0.12707   0.31427   0.00000  Uiso   1.00
O41    O     0.16667   0.20626   0.31427   0.00000  Uiso   1.00
O42    O     0.16666   0.12707   0.18573   0.00000  Uiso   1.00
F43    F     0.11503   0.04802   0.19500   0.00000  Uiso   1.00
F44    F     0.21833   0.28532   0.30497   0.00000  Uiso   1.00
F45    F     0.21830   0.04802   0.30500   0.00000  Uiso   1.00
F46    F     0.11500   0.28532   0.19503   0.00000  Uiso   1.00
H47    H     0.14367   0.23766   0.03023   0.00000  Uiso   1.00
H48    H     0.14375   0.09565   0.46941   0.00000  Uiso   1.00
H49    H     0.18967   0.23766   0.46978   0.00000  Uiso   1.00
H50    H     0.18959   0.09565   0.03060   0.00000  Uiso   1.00
H51    H     0.03729   0.09091   0.24994   0.00000  Uiso   1.00
H52    H     0.29604   0.24243   0.25006   0.00000  Uiso   1.00
H53    H     0.29604   0.09091   0.25006   0.00000  Uiso   1.00
H54    H     0.03729   0.24243   0.24994   0.00000  Uiso   1.00
C55    C     0.42069   0.16667   0.24995   0.00000  Uiso   1.00
C56    C     0.57931   0.16667   0.25005   0.00000  Uiso   1.00
C57    C     0.49995   0.16667   0.16497   0.00000  Uiso   1.00
C58    C     0.50005   0.16667   0.33503   0.00000  Uiso   1.00
C59    C     0.47425   0.02478   0.22259   0.00000  Uiso   1.00
C60    C     0.52576   0.30855   0.27741   0.00000  Uiso   1.00
C61    C     0.52575   0.02478   0.27741   0.00000  Uiso   1.00
C62    C     0.47424   0.30855   0.22259   0.00000  Uiso   1.00
C63    C     0.35462   0.12415   0.24997   0.00000  Uiso   1.00
C64    C     0.64538   0.20918   0.25003   0.00000  Uiso   1.00
C65    C     0.64538   0.12415   0.25003   0.00000  Uiso   1.00
C66    C     0.35462   0.20918   0.24997   0.00000  Uiso   1.00
C67    C     0.48746   0.20665   0.04752   0.00000  Uiso   1.00
C68    C     0.48756   0.12666   0.45228   0.00000  Uiso   1.00
C69    C     0.51254   0.20665   0.45248   0.00000  Uiso   1.00
C70    C     0.51244   0.12666   0.04772   0.00000  Uiso   1.00
C71    C     0.48771   0.20676   0.09343   0.00000  Uiso   1.00
C72    C     0.48787   0.12655   0.40638   0.00000  Uiso   1.00
C73    C     0.51229   0.20676   0.40657   0.00000  Uiso   1.00
C74    C     0.51213   0.12655   0.09362   0.00000  Uiso   1.00
C75    C     0.49992   0.16666   0.11673   0.00000  Uiso   1.00
C76    C     0.50008   0.16666   0.38327   0.00000  Uiso   1.00
C77    C     0.49998   0.16666   0.02428   0.00000  Uiso   1.00
C78    C     0.50003   0.16666   0.47572   0.00000  Uiso   1.00
C79    C     0.62393   0.16667   0.25005   0.00000  Uiso   1.00
C80    C     0.37607   0.16667   0.24995   0.00000  Uiso   1.00
Cu81   Cu    0.50000   0.21355   0.25000   0.00000  Uiso   1.00
Cu82   Cu    0.50000   0.11978   0.25000   0.00000  Uiso   1.00
H83    H     0.47781   0.23796   0.11067   0.00000  Uiso   1.00
H84    H     0.47801   0.09534   0.38899   0.00000  Uiso   1.00
H85    H     0.52218   0.23796   0.38933   0.00000  Uiso   1.00
H86    H     0.52200   0.09534   0.11101   0.00000  Uiso   1.00
N87    N     0.50000   0.28402   0.25000   0.00000  Uiso   1.00
N88    N     0.50000   0.04931   0.25000   0.00000  Uiso   1.00
O89    O     0.43988   0.20625   0.25000   0.00000  Uiso   1.00
O90    O     0.56012   0.12709   0.25001   0.00000  Uiso   1.00
O91    O     0.56012   0.20625   0.25001   0.00000  Uiso   1.00
O92    O     0.43988   0.12709   0.25000   0.00000  Uiso   1.00
O93    O     0.50000   0.20626   0.18573   0.00000  Uiso   1.00
O94    O     0.50000   0.12707   0.31427   0.00000  Uiso   1.00
O95    O     0.50000   0.20626   0.31427   0.00000  Uiso   1.00
O96    O     0.50000   0.12707   0.18573   0.00000  Uiso   1.00
F97    F     0.44836   0.04802   0.19500   0.00000  Uiso   1.00
F98    F     0.55167   0.28532   0.30497   0.00000  Uiso   1.00
F99    F     0.55164   0.04802   0.30500   0.00000  Uiso   1.00
F100   F     0.44833   0.28532   0.19503   0.00000  Uiso   1.00
H101   H     0.47700   0.23766   0.03023   0.00000  Uiso   1.00
H102   H     0.47708   0.09565   0.46941   0.00000  Uiso   1.00
H103   H     0.52300   0.23766   0.46978   0.00000  Uiso   1.00
H104   H     0.52292   0.09565   0.03060   0.00000  Uiso   1.00
H105   H     0.37062   0.09091   0.24994   0.00000  Uiso   1.00
H106   H     0.62938   0.24243   0.25006   0.00000  Uiso   1.00
H107   H     0.62938   0.09091   0.25006   0.00000  Uiso   1.00
H108   H     0.37062   0.24243   0.24994   0.00000  Uiso   1.00
C109   C     0.75403   0.16667   0.24995   0.00000  Uiso   1.00
C110   C     0.91264   0.16667   0.25005   0.00000  Uiso   1.00
C111   C     0.83328   0.16667   0.16497   0.00000  Uiso   1.00
C112   C     0.83338   0.16667   0.33503   0.00000  Uiso   1.00
C113   C     0.80758   0.02478   0.22259   0.00000  Uiso   1.00
C114   C     0.85909   0.30855   0.27741   0.00000  Uiso   1.00
C115   C     0.85908   0.02478   0.27741   0.00000  Uiso   1.00
C116   C     0.80758   0.30855   0.22259   0.00000  Uiso   1.00
C117   C     0.68795   0.12415   0.24997   0.00000  Uiso   1.00
C118   C     0.97872   0.20918   0.25003   0.00000  Uiso   1.00
C119   C     0.97872   0.12415   0.25003   0.00000  Uiso   1.00
C120   C     0.68795   0.20918   0.24997   0.00000  Uiso   1.00
C121   C     0.82079   0.20665   0.04752   0.00000  Uiso   1.00
C122   C     0.82089   0.12666   0.45228   0.00000  Uiso   1.00
C123   C     0.84588   0.20665   0.45248   0.00000  Uiso   1.00
C124   C     0.84578   0.12666   0.04772   0.00000  Uiso   1.00
C125   C     0.82104   0.20676   0.09343   0.00000  Uiso   1.00
C126   C     0.82120   0.12655   0.40638   0.00000  Uiso   1.00
C127   C     0.84563   0.20676   0.40657   0.00000  Uiso   1.00
C128   C     0.84547   0.12655   0.09362   0.00000  Uiso   1.00
C129   C     0.83326   0.16666   0.11673   0.00000  Uiso   1.00
C130   C     0.83341   0.16666   0.38327   0.00000  Uiso   1.00
C131   C     0.83331   0.16666   0.02428   0.00000  Uiso   1.00
C132   C     0.83336   0.16666   0.47572   0.00000  Uiso   1.00
C133   C     0.95726   0.16667   0.25005   0.00000  Uiso   1.00
C134   C     0.70941   0.16667   0.24995   0.00000  Uiso   1.00
Cu135  Cu    0.83333   0.21355   0.25000   0.00000  Uiso   1.00
Cu136  Cu    0.83333   0.11978   0.25000   0.00000  Uiso   1.00
H137   H     0.81115   0.23796   0.11067   0.00000  Uiso   1.00
H138   H     0.81134   0.09534   0.38899   0.00000  Uiso   1.00
H139   H     0.85552   0.23796   0.38933   0.00000  Uiso   1.00
H140   H     0.85533   0.09534   0.11101   0.00000  Uiso   1.00
N141   N     0.83333   0.28402   0.25000   0.00000  Uiso   1.00
N142   N     0.83333   0.04931   0.25000   0.00000  Uiso   1.00
O143   O     0.77321   0.20625   0.25000   0.00000  Uiso   1.00
O144   O     0.89345   0.12709   0.25001   0.00000  Uiso   1.00
O145   O     0.89345   0.20625   0.25001   0.00000  Uiso   1.00
O146   O     0.77321   0.12709   0.25000   0.00000  Uiso   1.00
O147   O     0.83333   0.20626   0.18573   0.00000  Uiso   1.00
O148   O     0.83334   0.12707   0.31427   0.00000  Uiso   1.00
O149   O     0.83334   0.20626   0.31427   0.00000  Uiso   1.00
O150   O     0.83333   0.12707   0.18573   0.00000  Uiso   1.00
F151   F     0.78170   0.04802   0.19500   0.00000  Uiso   1.00
F152   F     0.88500   0.28532   0.30497   0.00000  Uiso   1.00
F153   F     0.88497   0.04802   0.30500   0.00000  Uiso   1.00
F154   F     0.78167   0.28532   0.19503   0.00000  Uiso   1.00
H155   H     0.81033   0.23766   0.03023   0.00000  Uiso   1.00
H156   H     0.81041   0.09565   0.46941   0.00000  Uiso   1.00
H157   H     0.85633   0.23766   0.46978   0.00000  Uiso   1.00
H158   H     0.85626   0.09565   0.03060   0.00000  Uiso   1.00
H159   H     0.70396   0.09091   0.24994   0.00000  Uiso   1.00
H160   H     0.96271   0.24243   0.25006   0.00000  Uiso   1.00
H161   H     0.96271   0.09091   0.25006   0.00000  Uiso   1.00
H162   H     0.70396   0.24243   0.24994   0.00000  Uiso   1.00
C163   C     0.08736   0.50000   0.24995   0.00000  Uiso   1.00
C164   C     0.24597   0.50000   0.25005   0.00000  Uiso   1.00
C165   C     0.16662   0.50000   0.16497   0.00000  Uiso   1.00
C166   C     0.16672   0.50000   0.33503   0.00000  Uiso   1.00
C167   C     0.14092   0.35812   0.22259   0.00000  Uiso   1.00
C168   C     0.19242   0.64188   0.27741   0.00000  Uiso   1.00
C169   C     0.19242   0.35812   0.27741   0.00000  Uiso   1.00
C170   C     0.14091   0.64188   0.22259   0.00000  Uiso   1.00
C171   C     0.02128   0.45748   0.24997   0.00000  Uiso   1.00
C172   C     0.31205   0.54252   0.25003   0.00000  Uiso   1.00
C173   C     0.31205   0.45748   0.25003   0.00000  Uiso   1.00
C174   C     0.02128   0.54252   0.24997   0.00000  Uiso   1.00
C175   C     0.15412   0.53998   0.04752   0.00000  Uiso   1.00
C176   C     0.15423   0.45999   0.45228   0.00000  Uiso   1.00
C177   C     0.17921   0.53998   0.45248   0.00000  Uiso   1.00
C178   C     0.17911   0.45999   0.04772   0.00000  Uiso   1.00
C179   C     0.15437   0.54009   0.09343   0.00000  Uiso   1.00
C180   C     0.15454   0.45988   0.40638   0.00000  Uiso   1.00
C181   C     0.17896   0.54009   0.40657   0.00000  Uiso   1.00
C182   C     0.17880   0.45988   0.09362   0.00000  Uiso   1.00
C183   C     0.16659   0.49999   0.11673   0.00000  Uiso   1.00
C184   C     0.16674   0.49999   0.38327   0.00000  Uiso   1.00
C185   C     0.16664   0.49999   0.02428   0.00000  Uiso   1.00
C186   C     0.16669   0.49999   0.47572   0.00000  Uiso   1.00
C187   C     0.29059   0.50000   0.25005   0.00000  Uiso   1.00
C188   C     0.04274   0.50000   0.24995   0.00000  Uiso   1.00
Cu189  Cu    0.16667   0.54689   0.25000   0.00000  Uiso   1.00
Cu190  Cu    0.16667   0.45311   0.25000   0.00000  Uiso   1.00
H191   H     0.14448   0.57130   0.11067   0.00000  Uiso   1.00
H192   H     0.14467   0.42867   0.38899   0.00000  Uiso   1.00
H193   H     0.18885   0.57130   0.38933   0.00000  Uiso   1.00
H194   H     0.18866   0.42867   0.11101   0.00000  Uiso   1.00
N195   N     0.16667   0.61736   0.25000   0.00000  Uiso   1.00
N196   N     0.16667   0.38264   0.25000   0.00000  Uiso   1.00
O197   O     0.10655   0.53958   0.25000   0.00000  Uiso   1.00
O198   O     0.22679   0.46042   0.25001   0.00000  Uiso   1.00
O199   O     0.22679   0.53958   0.25001   0.00000  Uiso   1.00
O200   O     0.10655   0.46042   0.25000   0.00000  Uiso   1.00
O201   O     0.16666   0.53959   0.18573   0.00000  Uiso   1.00
O202   O     0.16667   0.46041   0.31427   0.00000  Uiso   1.00
O203   O     0.16667   0.53959   0.31427   0.00000  Uiso   1.00
O204   O     0.16666   0.46041   0.18573   0.00000  Uiso   1.00
F205   F     0.11503   0.38135   0.19500   0.00000  Uiso   1.00
F206   F     0.21833   0.61865   0.30497   0.00000  Uiso   1.00
F207   F     0.21830   0.38135   0.30500   0.00000  Uiso   1.00
F208   F     0.11500   0.61865   0.19503   0.00000  Uiso   1.00
H209   H     0.14367   0.57099   0.03023   0.00000  Uiso   1.00
H210   H     0.14375   0.42898   0.46941   0.00000  Uiso   1.00
H211   H     0.18967   0.57099   0.46978   0.00000  Uiso   1.00
H212   H     0.18959   0.42898   0.03060   0.00000  Uiso   1.00
H213   H     0.03729   0.42424   0.24994   0.00000  Uiso   1.00
H214   H     0.29604   0.57576   0.25006   0.00000  Uiso   1.00
H215   H     0.29604   0.42424   0.25006   0.00000  Uiso   1.00
H216   H     0.03729   0.57576   0.24994   0.00000  Uiso   1.00
C217   C     0.42069   0.50000   0.24995   0.00000  Uiso   1.00
C218   C     0.57931   0.50000   0.25005   0.00000  Uiso   1.00
C219   C     0.49995   0.50000   0.16497   0.00000  Uiso   1.00
C220   C     0.50005   0.50000   0.33503   0.00000  Uiso   1.00
C221   C     0.47425   0.35812   0.22259   0.00000  Uiso   1.00
C222   C     0.52576   0.64188   0.27741   0.00000  Uiso   1.00
C223   C     0.52575   0.35812   0.27741   0.00000  Uiso   1.00
C224   C     0.47424   0.64188   0.22259   0.00000  Uiso   1.00
C225   C     0.35462   0.45748   0.24997   0.00000  Uiso   1.00
C226   C     0.64538   0.54252   0.25003   0.00000  Uiso   1.00
C227   C     0.64538   0.45748   0.25003   0.00000  Uiso   1.00
C228   C     0.35462   0.54252   0.24997   0.00000  Uiso   1.00
C229   C     0.48746   0.53998   0.04752   0.00000  Uiso   1.00
C230   C     0.48756   0.45999   0.45228   0.00000  Uiso   1.00
C231   C     0.51254   0.53998   0.45248   0.00000  Uiso   1.00
C232   C     0.51244   0.45999   0.04772   0.00000  Uiso   1.00
C233   C     0.48771   0.54009   0.09343   0.00000  Uiso   1.00
C234   C     0.48787   0.45988   0.40638   0.00000  Uiso   1.00
C235   C     0.51229   0.54009   0.40657   0.00000  Uiso   1.00
C236   C     0.51213   0.45988   0.09362   0.00000  Uiso   1.00
C237   C     0.49992   0.49999   0.11673   0.00000  Uiso   1.00
C238   C     0.50008   0.49999   0.38327   0.00000  Uiso   1.00
C239   C     0.49998   0.49999   0.02428   0.00000  Uiso   1.00
C240   C     0.50003   0.49999   0.47572   0.00000  Uiso   1.00
C241   C     0.62393   0.50000   0.25005   0.00000  Uiso   1.00
C242   C     0.37607   0.50000   0.24995   0.00000  Uiso   1.00
Cu243  Cu    0.50000   0.54689   0.25000   0.00000  Uiso   1.00
Cu244  Cu    0.50000   0.45311   0.25000   0.00000  Uiso   1.00
H245   H     0.47781   0.57130   0.11067   0.00000  Uiso   1.00
H246   H     0.47801   0.42867   0.38899   0.00000  Uiso   1.00
H247   H     0.52218   0.57130   0.38933   0.00000  Uiso   1.00
H248   H     0.52200   0.42867   0.11101   0.00000  Uiso   1.00
N249   N     0.50000   0.61736   0.25000   0.00000  Uiso   1.00
N250   N     0.50000   0.38264   0.25000   0.00000  Uiso   1.00
O251   O     0.43988   0.53958   0.25000   0.00000  Uiso   1.00
O252   O     0.56012   0.46042   0.25001   0.00000  Uiso   1.00
O253   O     0.56012   0.53958   0.25001   0.00000  Uiso   1.00
O254   O     0.43988   0.46042   0.25000   0.00000  Uiso   1.00
O255   O     0.50000   0.53959   0.18573   0.00000  Uiso   1.00
O256   O     0.50000   0.46041   0.31427   0.00000  Uiso   1.00
O257   O     0.50000   0.53959   0.31427   0.00000  Uiso   1.00
O258   O     0.50000   0.46041   0.18573   0.00000  Uiso   1.00
F259   F     0.44836   0.38135   0.19500   0.00000  Uiso   1.00
F260   F     0.55167   0.61865   0.30497   0.00000  Uiso   1.00
F261   F     0.55164   0.38135   0.30500   0.00000  Uiso   1.00
F262   F     0.44833   0.61865   0.19503   0.00000  Uiso   1.00
H263   H     0.47700   0.57099   0.03023   0.00000  Uiso   1.00
H264   H     0.47708   0.42898   0.46941   0.00000  Uiso   1.00
H265   H     0.52300   0.57099   0.46978   0.00000  Uiso   1.00
H266   H     0.52292   0.42898   0.03060   0.00000  Uiso   1.00
H267   H     0.37062   0.42424   0.24994   0.00000  Uiso   1.00
H268   H     0.62938   0.57576   0.25006   0.00000  Uiso   1.00
H269   H     0.62938   0.42424   0.25006   0.00000  Uiso   1.00
H270   H     0.37062   0.57576   0.24994   0.00000  Uiso   1.00
C271   C     0.75403   0.50000   0.24995   0.00000  Uiso   1.00
C272   C     0.91264   0.50000   0.25005   0.00000  Uiso   1.00
C273   C     0.83328   0.50000   0.16497   0.00000  Uiso   1.00
C274   C     0.83338   0.50000   0.33503   0.00000  Uiso   1.00
C275   C     0.80758   0.35812   0.22259   0.00000  Uiso   1.00
C276   C     0.85909   0.64188   0.27741   0.00000  Uiso   1.00
C277   C     0.85908   0.35812   0.27741   0.00000  Uiso   1.00
C278   C     0.80758   0.64188   0.22259   0.00000  Uiso   1.00
C279   C     0.68795   0.45748   0.24997   0.00000  Uiso   1.00
C280   C     0.97872   0.54252   0.25003   0.00000  Uiso   1.00
C281   C     0.97872   0.45748   0.25003   0.00000  Uiso   1.00
C282   C     0.68795   0.54252   0.24997   0.00000  Uiso   1.00
C283   C     0.82079   0.53998   0.04752   0.00000  Uiso   1.00
C284   C     0.82089   0.45999   0.45228   0.00000  Uiso   1.00
C285   C     0.84588   0.53998   0.45248   0.00000  Uiso   1.00
C286   C     0.84578   0.45999   0.04772   0.00000  Uiso   1.00
C287   C     0.82104   0.54009   0.09343   0.00000  Uiso   1.00
C288   C     0.82120   0.45988   0.40638   0.00000  Uiso   1.00
C289   C     0.84563   0.54009   0.40657   0.00000  Uiso   1.00
C290   C     0.84547   0.45988   0.09362   0.00000  Uiso   1.00
C291   C     0.83326   0.49999   0.11673   0.00000  Uiso   1.00
C292   C     0.83341   0.49999   0.38327   0.00000  Uiso   1.00
C293   C     0.83331   0.49999   0.02428   0.00000  Uiso   1.00
C294   C     0.83336   0.49999   0.47572   0.00000  Uiso   1.00
C295   C     0.95726   0.50000   0.25005   0.00000  Uiso   1.00
C296   C     0.70941   0.50000   0.24995   0.00000  Uiso   1.00
Cu297  Cu    0.83333   0.54689   0.25000   0.00000  Uiso   1.00
Cu298  Cu    0.83333   0.45311   0.25000   0.00000  Uiso   1.00
H299   H     0.81115   0.57130   0.11067   0.00000  Uiso   1.00
H300   H     0.81134   0.42867   0.38899   0.00000  Uiso   1.00
H301   H     0.85552   0.57130   0.38933   0.00000  Uiso   1.00
H302   H     0.85533   0.42867   0.11101   0.00000  Uiso   1.00
N303   N     0.83333   0.61736   0.25000   0.00000  Uiso   1.00
N304   N     0.83333   0.38264   0.25000   0.00000  Uiso   1.00
O305   O     0.77321   0.53958   0.25000   0.00000  Uiso   1.00
O306   O     0.89345   0.46042   0.25001   0.00000  Uiso   1.00
O307   O     0.89345   0.53958   0.25001   0.00000  Uiso   1.00
O308   O     0.77321   0.46042   0.25000   0.00000  Uiso   1.00
O309   O     0.83333   0.53959   0.18573   0.00000  Uiso   1.00
O310   O     0.83334   0.46041   0.31427   0.00000  Uiso   1.00
O311   O     0.83334   0.53959   0.31427   0.00000  Uiso   1.00
O312   O     0.83333   0.46041   0.18573   0.00000  Uiso   1.00
F313   F     0.78170   0.38135   0.19500   0.00000  Uiso   1.00
F314   F     0.88500   0.61865   0.30497   0.00000  Uiso   1.00
F315   F     0.88497   0.38135   0.30500   0.00000  Uiso   1.00
F316   F     0.78167   0.61865   0.19503   0.00000  Uiso   1.00
H317   H     0.81033   0.57099   0.03023   0.00000  Uiso   1.00
H318   H     0.81041   0.42898   0.46941   0.00000  Uiso   1.00
H319   H     0.85633   0.57099   0.46978   0.00000  Uiso   1.00
H320   H     0.85626   0.42898   0.03060   0.00000  Uiso   1.00
H321   H     0.70396   0.42424   0.24994   0.00000  Uiso   1.00
H322   H     0.96271   0.57576   0.25006   0.00000  Uiso   1.00
H323   H     0.96271   0.42424   0.25006   0.00000  Uiso   1.00
H324   H     0.70396   0.57576   0.24994   0.00000  Uiso   1.00
C325   C     0.08736   0.83333   0.24995   0.00000  Uiso   1.00
C326   C     0.24597   0.83333   0.25005   0.00000  Uiso   1.00
C327   C     0.16662   0.83333   0.16497   0.00000  Uiso   1.00
C328   C     0.16672   0.83333   0.33503   0.00000  Uiso   1.00
C329   C     0.14092   0.69145   0.22259   0.00000  Uiso   1.00
C330   C     0.19242   0.97522   0.27741   0.00000  Uiso   1.00
C331   C     0.19242   0.69145   0.27741   0.00000  Uiso   1.00
C332   C     0.14091   0.97522   0.22259   0.00000  Uiso   1.00
C333   C     0.02128   0.79082   0.24997   0.00000  Uiso   1.00
C334   C     0.31205   0.87585   0.25003   0.00000  Uiso   1.00
C335   C     0.31205   0.79082   0.25003   0.00000  Uiso   1.00
C336   C     0.02128   0.87585   0.24997   0.00000  Uiso   1.00
C337   C     0.15412   0.87332   0.04752   0.00000  Uiso   1.00
C338   C     0.15423   0.79332   0.45228   0.00000  Uiso   1.00
C339   C     0.17921   0.87332   0.45248   0.00000  Uiso   1.00
C340   C     0.17911   0.79332   0.04772   0.00000  Uiso   1.00
C341   C     0.15437   0.87342   0.09343   0.00000  Uiso   1.00
C342   C     0.15454   0.79322   0.40638   0.00000  Uiso   1.00
C343   C     0.17896   0.87342   0.40657   0.00000  Uiso   1.00
C344   C     0.17880   0.79322   0.09362   0.00000  Uiso   1.00
C345   C     0.16659   0.83332   0.11673   0.00000  Uiso   1.00
C346   C     0.16674   0.83332   0.38327   0.00000  Uiso   1.00
C347   C     0.16664   0.83332   0.02428   0.00000  Uiso   1.00
C348   C     0.16669   0.83332   0.47572   0.00000  Uiso   1.00
C349   C     0.29059   0.83333   0.25005   0.00000  Uiso   1.00
C350   C     0.04274   0.83333   0.24995   0.00000  Uiso   1.00
Cu351  Cu    0.16667   0.88022   0.25000   0.00000  Uiso   1.00
Cu352  Cu    0.16667   0.78645   0.25000   0.00000  Uiso   1.00
H353   H     0.14448   0.90463   0.11067   0.00000  Uiso   1.00
H354   H     0.14467   0.76200   0.38899   0.00000  Uiso   1.00
H355   H     0.18885   0.90463   0.38933   0.00000  Uiso   1.00
H356   H     0.18866   0.76201   0.11101   0.00000  Uiso   1.00
N357   N     0.16667   0.95069   0.25000   0.00000  Uiso   1.00
N358   N     0.16667   0.71598   0.25000   0.00000  Uiso   1.00
O359   O     0.10655   0.87291   0.25000   0.00000  Uiso   1.00
O360   O     0.22679   0.79375   0.25001   0.00000  Uiso   1.00
O361   O     0.22679   0.87291   0.25001   0.00000  Uiso   1.00
O362   O     0.10655   0.79375   0.25000   0.00000  Uiso   1.00
O363   O     0.16666   0.87293   0.18573   0.00000  Uiso   1.00
O364   O     0.16667   0.79374   0.31427   0.00000  Uiso   1.00
O365   O     0.16667   0.87293   0.31427   0.00000  Uiso   1.00
O366   O     0.16666   0.79374   0.18573   0.00000  Uiso   1.00
F367   F     0.11503   0.71468   0.19500   0.00000  Uiso   1.00
F368   F     0.21833   0.95198   0.30497   0.00000  Uiso   1.00
F369   F     0.21830   0.71468   0.30500   0.00000  Uiso   1.00
F370   F     0.11500   0.95198   0.19503   0.00000  Uiso   1.00
H371   H     0.14367   0.90432   0.03023   0.00000  Uiso   1.00
H372   H     0.14375   0.76232   0.46941   0.00000  Uiso   1.00
H373   H     0.18967   0.90432   0.46978   0.00000  Uiso   1.00
H374   H     0.18959   0.76232   0.03060   0.00000  Uiso   1.00
H375   H     0.03729   0.75757   0.24994   0.00000  Uiso   1.00
H376   H     0.29604   0.90909   0.25006   0.00000  Uiso   1.00
H377   H     0.29604   0.75757   0.25006   0.00000  Uiso   1.00
H378   H     0.03729   0.90909   0.24994   0.00000  Uiso   1.00
C379   C     0.42069   0.83333   0.24995   0.00000  Uiso   1.00
C380   C     0.57931   0.83333   0.25005   0.00000  Uiso   1.00
C381   C     0.49995   0.83333   0.16497   0.00000  Uiso   1.00
C382   C     0.50005   0.83333   0.33503   0.00000  Uiso   1.00
C383   C     0.47425   0.69145   0.22259   0.00000  Uiso   1.00
C384   C     0.52576   0.97522   0.27741   0.00000  Uiso   1.00
C385   C     0.52575   0.69145   0.27741   0.00000  Uiso   1.00
C386   C     0.47424   0.97522   0.22259   0.00000  Uiso   1.00
C387   C     0.35462   0.79082   0.24997   0.00000  Uiso   1.00
C388   C     0.64538   0.87585   0.25003   0.00000  Uiso   1.00
C389   C     0.64538   0.79082   0.25003   0.00000  Uiso   1.00
C390   C     0.35462   0.87585   0.24997   0.00000  Uiso   1.00
C391   C     0.48746   0.87332   0.04752   0.00000  Uiso   1.00
C392   C     0.48756   0.79332   0.45228   0.00000  Uiso   1.00
C393   C     0.51254   0.87332   0.45248   0.00000  Uiso   1.00
C394   C     0.51244   0.79332   0.04772   0.00000  Uiso   1.00
C395   C     0.48771   0.87342   0.09343   0.00000  Uiso   1.00
C396   C     0.48787   0.79322   0.40638   0.00000  Uiso   1.00
C397   C     0.51229   0.87342   0.40657   0.00000  Uiso   1.00
C398   C     0.51213   0.79322   0.09362   0.00000  Uiso   1.00
C399   C     0.49992   0.83332   0.11673   0.00000  Uiso   1.00
C400   C     0.50008   0.83332   0.38327   0.00000  Uiso   1.00
C401   C     0.49998   0.83332   0.02428   0.00000  Uiso   1.00
C402   C     0.50003   0.83332   0.47572   0.00000  Uiso   1.00
C403   C     0.62393   0.83333   0.25005   0.00000  Uiso   1.00
C404   C     0.37607   0.83333   0.24995   0.00000  Uiso   1.00
Cu405  Cu    0.50000   0.88022   0.25000   0.00000  Uiso   1.00
Cu406  Cu    0.50000   0.78645   0.25000   0.00000  Uiso   1.00
H407   H     0.47781   0.90463   0.11067   0.00000  Uiso   1.00
H408   H     0.47801   0.76200   0.38899   0.00000  Uiso   1.00
H409   H     0.52218   0.90463   0.38933   0.00000  Uiso   1.00
H410   H     0.52200   0.76201   0.11101   0.00000  Uiso   1.00
N411   N     0.50000   0.95069   0.25000   0.00000  Uiso   1.00
N412   N     0.50000   0.71598   0.25000   0.00000  Uiso   1.00
O413   O     0.43988   0.87291   0.25000   0.00000  Uiso   1.00
O414   O     0.56012   0.79375   0.25001   0.00000  Uiso   1.00
O415   O     0.56012   0.87291   0.25001   0.00000  Uiso   1.00
O416   O     0.43988   0.79375   0.25000   0.00000  Uiso   1.00
O417   O     0.50000   0.87293   0.18573   0.00000  Uiso   1.00
O418   O     0.50000   0.79374   0.31427   0.00000  Uiso   1.00
O419   O     0.50000   0.87293   0.31427   0.00000  Uiso   1.00
O420   O     0.50000   0.79374   0.18573   0.00000  Uiso   1.00
F421   F     0.44836   0.71468   0.19500   0.00000  Uiso   1.00
F422   F     0.55167   0.95198   0.30497   0.00000  Uiso   1.00
F423   F     0.55164   0.71468   0.30500   0.00000  Uiso   1.00
F424   F     0.44833   0.95198   0.19503   0.00000  Uiso   1.00
H425   H     0.47700   0.90432   0.03023   0.00000  Uiso   1.00
H426   H     0.47708   0.76232   0.46941   0.00000  Uiso   1.00
H427   H     0.52300   0.90432   0.46978   0.00000  Uiso   1.00
H428   H     0.52292   0.76232   0.03060   0.00000  Uiso   1.00
H429   H     0.37062   0.75757   0.24994   0.00000  Uiso   1.00
H430   H     0.62938   0.90909   0.25006   0.00000  Uiso   1.00
H431   H     0.62938   0.75757   0.25006   0.00000  Uiso   1.00
H432   H     0.37062   0.90909   0.24994   0.00000  Uiso   1.00
C433   C     0.75403   0.83333   0.24995   0.00000  Uiso   1.00
C434   C     0.91264   0.83333   0.25005   0.00000  Uiso   1.00
C435   C     0.83328   0.83333   0.16497   0.00000  Uiso   1.00
C436   C     0.83338   0.83333   0.33503   0.00000  Uiso   1.00
C437   C     0.80758   0.69145   0.22259   0.00000  Uiso   1.00
C438   C     0.85909   0.97522   0.27741   0.00000  Uiso   1.00
C439   C     0.85908   0.69145   0.27741   0.00000  Uiso   1.00
C440   C     0.80758   0.97522   0.22259   0.00000  Uiso   1.00
C441   C     0.68795   0.79082   0.24997   0.00000  Uiso   1.00
C442   C     0.97872   0.87585   0.25003   0.00000  Uiso   1.00
C443   C     0.97872   0.79082   0.25003   0.00000  Uiso   1.00
C444   C     0.68795   0.87585   0.24997   0.00000  Uiso   1.00
C445   C     0.82079   0.87332   0.04752   0.00000  Uiso   1.00
C446   C     0.82089   0.79332   0.45228   0.00000  Uiso   1.00
C447   C     0.84588   0.87332   0.45248   0.00000  Uiso   1.00
C448   C     0.84578   0.79332   0.04772   0.00000  Uiso   1.00
C449   C     0.82104   0.87342   0.09343   0.00000  Uiso   1.00
C450   C     0.82120   0.79322   0.40638   0.00000  Uiso   1.00
C451   C     0.84563   0.87342   0.40657   0.00000  Uiso   1.00
C452   C     0.84547   0.79322   0.09362   0.00000  Uiso   1.00
C453   C     0.83326   0.83332   0.11673   0.00000  Uiso   1.00
C454   C     0.83341   0.83332   0.38327   0.00000  Uiso   1.00
C455   C     0.83331   0.83332   0.02428   0.00000  Uiso   1.00
C456   C     0.83336   0.83332   0.47572   0.00000  Uiso   1.00
C457   C     0.95726   0.83333   0.25005   0.00000  Uiso   1.00
C458   C     0.70941   0.83333   0.24995   0.00000  Uiso   1.00
Cu459  Cu    0.83333   0.88022   0.25000   0.00000  Uiso   1.00
Cu460  Cu    0.83333   0.78645   0.25000   0.00000  Uiso   1.00
H461   H     0.81115   0.90463   0.11067   0.00000  Uiso   1.00
H462   H     0.81134   0.76200   0.38899   0.00000  Uiso   1.00
H463   H     0.85552   0.90463   0.38933   0.00000  Uiso   1.00
H464   H     0.85533   0.76201   0.11101   0.00000  Uiso   1.00
N465   N     0.83333   0.95069   0.25000   0.00000  Uiso   1.00
N466   N     0.83333   0.71598   0.25000   0.00000  Uiso   1.00
O467   O     0.77321   0.87291   0.25000   0.00000  Uiso   1.00
O468   O     0.89345   0.79375   0.25001   0.00000  Uiso   1.00
O469   O     0.89345   0.87291   0.25001   0.00000  Uiso   1.00
O470   O     0.77321   0.79375   0.25000   0.00000  Uiso   1.00
O471   O     0.83333   0.87293   0.18573   0.00000  Uiso   1.00
O472   O     0.83334   0.79374   0.31427   0.00000  Uiso   1.00
O473   O     0.83334   0.87293   0.31427   0.00000  Uiso   1.00
O474   O     0.83333   0.79374   0.18573   0.00000  Uiso   1.00
F475   F     0.78170   0.71468   0.19500   0.00000  Uiso   1.00
F476   F     0.88500   0.95198   0.30497   0.00000  Uiso   1.00
F477   F     0.88497   0.71468   0.30500   0.00000  Uiso   1.00
F478   F     0.78167   0.95198   0.19503   0.00000  Uiso   1.00
H479   H     0.81033   0.90432   0.03023   0.00000  Uiso   1.00
H480   H     0.81041   0.76232   0.46941   0.00000  Uiso   1.00
H481   H     0.85633   0.90432   0.46978   0.00000  Uiso   1.00
H482   H     0.85626   0.76232   0.03060   0.00000  Uiso   1.00
H483   H     0.70396   0.75757   0.24994   0.00000  Uiso   1.00
H484   H     0.96271   0.90909   0.25006   0.00000  Uiso   1.00
H485   H     0.96271   0.75757   0.25006   0.00000  Uiso   1.00
H486   H     0.70396   0.90909   0.24994   0.00000  Uiso   1.00
C487   C     0.08736   0.16667   0.74995   0.00000  Uiso   1.00
C488   C     0.24597   0.16667   0.75005   0.00000  Uiso   1.00
C489   C     0.16662   0.16667   0.66497   0.00000  Uiso   1.00
C490   C     0.16672   0.16667   0.83503   0.00000  Uiso   1.00
C491   C     0.14092   0.02478   0.72259   0.00000  Uiso   1.00
C492   C     0.19242   0.30855   0.77741   0.00000  Uiso   1.00
C493   C     0.19242   0.02478   0.77741   0.00000  Uiso   1.00
C494   C     0.14091   0.30855   0.72259   0.00000  Uiso   1.00
C495   C     0.02128   0.12415   0.74997   0.00000  Uiso   1.00
C496   C     0.31205   0.20918   0.75003   0.00000  Uiso   1.00
C497   C     0.31205   0.12415   0.75003   0.00000  Uiso   1.00
C498   C     0.02128   0.20918   0.74997   0.00000  Uiso   1.00
C499   C     0.15412   0.20665   0.54752   0.00000  Uiso   1.00
C500   C     0.15423   0.12666   0.95228   0.00000  Uiso   1.00
C501   C     0.17921   0.20665   0.95248   0.00000  Uiso   1.00
C502   C     0.17911   0.12666   0.54772   0.00000  Uiso   1.00
C503   C     0.15437   0.20676   0.59343   0.00000  Uiso   1.00
C504   C     0.15454   0.12655   0.90638   0.00000  Uiso   1.00
C505   C     0.17896   0.20676   0.90657   0.00000  Uiso   1.00
C506   C     0.17880   0.12655   0.59362   0.00000  Uiso   1.00
C507   C     0.16659   0.16666   0.61673   0.00000  Uiso   1.00
C508   C     0.16674   0.16666   0.88327   0.00000  Uiso   1.00
C509   C     0.16664   0.16666   0.52428   0.00000  Uiso   1.00
C510   C     0.16669   0.16666   0.97572   0.00000  Uiso   1.00
C511   C     0.29059   0.16667   0.75005   0.00000  Uiso   1.00
C512   C     0.04274   0.16667   0.74995   0.00000  Uiso   1.00
Cu513  Cu    0.16667   0.21355   0.75000   0.00000  Uiso   1.00
Cu514  Cu    0.16667   0.11978   0.75000   0.00000  Uiso   1.00
H515   H     0.14448   0.23796   0.61067   0.00000  Uiso   1.00
H516   H     0.14467   0.09534   0.88899   0.00000  Uiso   1.00
H517   H     0.18885   0.23796   0.88933   0.00000  Uiso   1.00
H518   H     0.18866   0.09534   0.61101   0.00000  Uiso   1.00
N519   N     0.16667   0.28402   0.75000   0.00000  Uiso   1.00
N520   N     0.16667   0.04931   0.75000   0.00000  Uiso   1.00
O521   O     0.10655   0.20625   0.75000   0.00000  Uiso   1.00
O522   O     0.22679   0.12709   0.75001   0.00000  Uiso   1.00
O523   O     0.22679   0.20625   0.75001   0.00000  Uiso   1.00
O524   O     0.10655   0.12709   0.75000   0.00000  Uiso   1.00
O525   O     0.16666   0.20626   0.68573   0.00000  Uiso   1.00
O526   O     0.16667   0.12707   0.81427   0.00000  Uiso   1.00
O527   O     0.16667   0.20626   0.81427   0.00000  Uiso   1.00
O528   O     0.16666   0.12707   0.68573   0.00000  Uiso   1.00
F529   F     0.11503   0.04802   0.69500   0.00000  Uiso   1.00
F530   F     0.21833   0.28532   0.80497   0.00000  Uiso   1.00
F531   F     0.21830   0.04802   0.80500   0.00000  Uiso   1.00
F532   F     0.11500   0.28532   0.69503   0.00000  Uiso   1.00
H533   H     0.14367   0.23766   0.53023   0.00000  Uiso   1.00
H534   H     0.14375   0.09565   0.96941   0.00000  Uiso   1.00
H535   H     0.18967   0.23766   0.96978   0.00000  Uiso   1.00
H536   H     0.18959   0.09565   0.53060   0.00000  Uiso   1.00
H537   H     0.03729   0.09091   0.74994   0.00000  Uiso   1.00
H538   H     0.29604   0.24243   0.75006   0.00000  Uiso   1.00
H539   H     0.29604   0.09091   0.75006   0.00000  Uiso   1.00
H540   H     0.03729   0.24243   0.74994   0.00000  Uiso   1.00
C541   C     0.42069   0.16667   0.74995   0.00000  Uiso   1.00
C542   C     0.57931   0.16667   0.75005   0.00000  Uiso   1.00
C543   C     0.49995   0.16667   0.66497   0.00000  Uiso   1.00
C544   C     0.50005   0.16667   0.83503   0.00000  Uiso   1.00
C545   C     0.47425   0.02478   0.72259   0.00000  Uiso   1.00
C546   C     0.52576   0.30855   0.77741   0.00000  Uiso   1.00
C547   C     0.52575   0.02478   0.77741   0.00000  Uiso   1.00
C548   C     0.47424   0.30855   0.72259   0.00000  Uiso   1.00
C549   C     0.35462   0.12415   0.74997   0.00000  Uiso   1.00
C550   C     0.64538   0.20918   0.75003   0.00000  Uiso   1.00
C551   C     0.64538   0.12415   0.75003   0.00000  Uiso   1.00
C552   C     0.35462   0.20918   0.74997   0.00000  Uiso   1.00
C553   C     0.48746   0.20665   0.54752   0.00000  Uiso   1.00
C554   C     0.48756   0.12666   0.95228   0.00000  Uiso   1.00
C555   C     0.51254   0.20665   0.95248   0.00000  Uiso   1.00
C556   C     0.51244   0.12666   0.54772   0.00000  Uiso   1.00
C557   C     0.48771   0.20676   0.59343   0.00000  Uiso   1.00
C558   C     0.48787   0.12655   0.90638   0.00000  Uiso   1.00
C559   C     0.51229   0.20676   0.90657   0.00000  Uiso   1.00
C560   C     0.51213   0.12655   0.59362   0.00000  Uiso   1.00
C561   C     0.49992   0.16666   0.61673   0.00000  Uiso   1.00
C562   C     0.50008   0.16666   0.88327   0.00000  Uiso   1.00
C563   C     0.49998   0.16666   0.52428   0.00000  Uiso   1.00
C564   C     0.50003   0.16666   0.97572   0.00000  Uiso   1.00
C565   C     0.62393   0.16667   0.75005   0.00000  Uiso   1.00
C566   C     0.37607   0.16667   0.74995   0.00000  Uiso   1.00
Cu567  Cu    0.50000   0.21355   0.75000   0.00000  Uiso   1.00
Cu568  Cu    0.50000   0.11978   0.75000   0.00000  Uiso   1.00
H569   H     0.47781   0.23796   0.61067   0.00000  Uiso   1.00
H570   H     0.47801   0.09534   0.88899   0.00000  Uiso   1.00
H571   H     0.52218   0.23796   0.88933   0.00000  Uiso   1.00
H572   H     0.52200   0.09534   0.61101   0.00000  Uiso   1.00
N573   N     0.50000   0.28402   0.75000   0.00000  Uiso   1.00
N574   N     0.50000   0.04931   0.75000   0.00000  Uiso   1.00
O575   O     0.43988   0.20625   0.75000   0.00000  Uiso   1.00
O576   O     0.56012   0.12709   0.75001   0.00000  Uiso   1.00
O577   O     0.56012   0.20625   0.75001   0.00000  Uiso   1.00
O578   O     0.43988   0.12709   0.75000   0.00000  Uiso   1.00
O579   O     0.50000   0.20626   0.68573   0.00000  Uiso   1.00
O580   O     0.50000   0.12707   0.81427   0.00000  Uiso   1.00
O581   O     0.50000   0.20626   0.81427   0.00000  Uiso   1.00
O582   O     0.50000   0.12707   0.68573   0.00000  Uiso   1.00
F583   F     0.44836   0.04802   0.69500   0.00000  Uiso   1.00
F584   F     0.55167   0.28532   0.80497   0.00000  Uiso   1.00
F585   F     0.55164   0.04802   0.80500   0.00000  Uiso   1.00
F586   F     0.44833   0.28532   0.69503   0.00000  Uiso   1.00
H587   H     0.47700   0.23766   0.53023   0.00000  Uiso   1.00
H588   H     0.47708   0.09565   0.96941   0.00000  Uiso   1.00
H589   H     0.52300   0.23766   0.96978   0.00000  Uiso   1.00
H590   H     0.52292   0.09565   0.53060   0.00000  Uiso   1.00
H591   H     0.37062   0.09091   0.74994   0.00000  Uiso   1.00
H592   H     0.62938   0.24243   0.75006   0.00000  Uiso   1.00
H593   H     0.62938   0.09091   0.75006   0.00000  Uiso   1.00
H594   H     0.37062   0.24243   0.74994   0.00000  Uiso   1.00
C595   C     0.75403   0.16667   0.74995   0.00000  Uiso   1.00
C596   C     0.91264   0.16667   0.75005   0.00000  Uiso   1.00
C597   C     0.83328   0.16667   0.66497   0.00000  Uiso   1.00
C598   C     0.83338   0.16667   0.83503   0.00000  Uiso   1.00
C599   C     0.80758   0.02478   0.72259   0.00000  Uiso   1.00
C600   C     0.85909   0.30855   0.77741   0.00000  Uiso   1.00
C601   C     0.85908   0.02478   0.77741   0.00000  Uiso   1.00
C602   C     0.80758   0.30855   0.72259   0.00000  Uiso   1.00
C603   C     0.68795   0.12415   0.74997   0.00000  Uiso   1.00
C604   C     0.97872   0.20918   0.75003   0.00000  Uiso   1.00
C605   C     0.97872   0.12415   0.75003   0.00000  Uiso   1.00
C606   C     0.68795   0.20918   0.74997   0.00000  Uiso   1.00
C607   C     0.82079   0.20665   0.54752   0.00000  Uiso   1.00
C608   C     0.82089   0.12666   0.95228   0.00000  Uiso   1.00
C609   C     0.84588   0.20665   0.95248   0.00000  Uiso   1.00
C610   C     0.84578   0.12666   0.54772   0.00000  Uiso   1.00
C611   C     0.82104   0.20676   0.59343   0.00000  Uiso   1.00
C612   C     0.82120   0.12655   0.90638   0.00000  Uiso   1.00
C613   C     0.84563   0.20676   0.90657   0.00000  Uiso   1.00
C614   C     0.84547   0.12655   0.59362   0.00000  Uiso   1.00
C615   C     0.83326   0.16666   0.61673   0.00000  Uiso   1.00
C616   C     0.83341   0.16666   0.88327   0.00000  Uiso   1.00
C617   C     0.83331   0.16666   0.52428   0.00000  Uiso   1.00
C618   C     0.83336   0.16666   0.97572   0.00000  Uiso   1.00
C619   C     0.95726   0.16667   0.75005   0.00000  Uiso   1.00
C620   C     0.70941   0.16667   0.74995   0.00000  Uiso   1.00
Cu621  Cu    0.83333   0.21355   0.75000   0.00000  Uiso   1.00
Cu622  Cu    0.83333   0.11978   0.75000   0.00000  Uiso   1.00
H623   H     0.81115   0.23796   0.61067   0.00000  Uiso   1.00
H624   H     0.81134   0.09534   0.88899   0.00000  Uiso   1.00
H625   H     0.85552   0.23796   0.88933   0.00000  Uiso   1.00
H626   H     0.85533   0.09534   0.61101   0.00000  Uiso   1.00
N627   N     0.83333   0.28402   0.75000   0.00000  Uiso   1.00
N628   N     0.83333   0.04931   0.75000   0.00000  Uiso   1.00
O629   O     0.77321   0.20625   0.75000   0.00000  Uiso   1.00
O630   O     0.89345   0.12709   0.75001   0.00000  Uiso   1.00
O631   O     0.89345   0.20625   0.75001   0.00000  Uiso   1.00
O632   O     0.77321   0.12709   0.75000   0.00000  Uiso   1.00
O633   O     0.83333   0.20626   0.68573   0.00000  Uiso   1.00
O634   O     0.83334   0.12707   0.81427   0.00000  Uiso   1.00
O635   O     0.83334   0.20626   0.81427   0.00000  Uiso   1.00
O636   O     0.83333   0.12707   0.68573   0.00000  Uiso   1.00
F637   F     0.78170   0.04802   0.69500   0.00000  Uiso   1.00
F638   F     0.88500   0.28532   0.80497   0.00000  Uiso   1.00
F639   F     0.88497   0.04802   0.80500   0.00000  Uiso   1.00
F640   F     0.78167   0.28532   0.69503   0.00000  Uiso   1.00
H641   H     0.81033   0.23766   0.53023   0.00000  Uiso   1.00
H642   H     0.81041   0.09565   0.96941   0.00000  Uiso   1.00
H643   H     0.85633   0.23766   0.96978   0.00000  Uiso   1.00
H644   H     0.85626   0.09565   0.53060   0.00000  Uiso   1.00
H645   H     0.70396   0.09091   0.74994   0.00000  Uiso   1.00
H646   H     0.96271   0.24243   0.75006   0.00000  Uiso   1.00
H647   H     0.96271   0.09091   0.75006   0.00000  Uiso   1.00
H648   H     0.70396   0.24243   0.74994   0.00000  Uiso   1.00
C649   C     0.08736   0.50000   0.74995   0.00000  Uiso   1.00
C650   C     0.24597   0.50000   0.75005   0.00000  Uiso   1.00
C651   C     0.16662   0.50000   0.66497   0.00000  Uiso   1.00
C652   C     0.16672   0.50000   0.83503   0.00000  Uiso   1.00
C653   C     0.14092   0.35812   0.72259   0.00000  Uiso   1.00
C654   C     0.19242   0.64188   0.77741   0.00000  Uiso   1.00
C655   C     0.19242   0.35812   0.77741   0.00000  Uiso   1.00
C656   C     0.14091   0.64188   0.72259   0.00000  Uiso   1.00
C657   C     0.02128   0.45748   0.74997   0.00000  Uiso   1.00
C658   C     0.31205   0.54252   0.75003   0.00000  Uiso   1.00
C659   C     0.31205   0.45748   0.75003   0.00000  Uiso   1.00
C660   C     0.02128   0.54252   0.74997   0.00000  Uiso   1.00
C661   C     0.15412   0.53998   0.54752   0.00000  Uiso   1.00
C662   C     0.15423   0.45999   0.95228   0.00000  Uiso   1.00
C663   C     0.17921   0.53998   0.95248   0.00000  Uiso   1.00
C664   C     0.17911   0.45999   0.54772   0.00000  Uiso   1.00
C665   C     0.15437   0.54009   0.59343   0.00000  Uiso   1.00
C666   C     0.15454   0.45988   0.90638   0.00000  Uiso   1.00
C667   C     0.17896   0.54009   0.90657   0.00000  Uiso   1.00
C668   C     0.17880   0.45988   0.59362   0.00000  Uiso   1.00
C669   C     0.16659   0.49999   0.61673   0.00000  Uiso   1.00
C670   C     0.16674   0.49999   0.88327   0.00000  Uiso   1.00
C671   C     0.16664   0.49999   0.52428   0.00000  Uiso   1.00
C672   C     0.16669   0.49999   0.97572   0.00000  Uiso   1.00
C673   C     0.29059   0.50000   0.75005   0.00000  Uiso   1.00
C674   C     0.04274   0.50000   0.74995   0.00000  Uiso   1.00
Cu675  Cu    0.16667   0.54689   0.75000   0.00000  Uiso   1.00
Cu676  Cu    0.16667   0.45311   0.75000   0.00000  Uiso   1.00
H677   H     0.14448   0.57130   0.61067   0.00000  Uiso   1.00
H678   H     0.14467   0.42867   0.88899   0.00000  Uiso   1.00
H679   H     0.18885   0.57130   0.88933   0.00000  Uiso   1.00
H680   H     0.18866   0.42867   0.61101   0.00000  Uiso   1.00
N681   N     0.16667   0.61736   0.75000   0.00000  Uiso   1.00
N682   N     0.16667   0.38264   0.75000   0.00000  Uiso   1.00
O683   O     0.10655   0.53958   0.75000   0.00000  Uiso   1.00
O684   O     0.22679   0.46042   0.75001   0.00000  Uiso   1.00
O685   O     0.22679   0.53958   0.75001   0.00000  Uiso   1.00
O686   O     0.10655   0.46042   0.75000   0.00000  Uiso   1.00
O687   O     0.16666   0.53959   0.68573   0.00000  Uiso   1.00
O688   O     0.16667   0.46041   0.81427   0.00000  Uiso   1.00
O689   O     0.16667   0.53959   0.81427   0.00000  Uiso   1.00
O690   O     0.16666   0.46041   0.68573   0.00000  Uiso   1.00
F691   F     0.11503   0.38135   0.69500   0.00000  Uiso   1.00
F692   F     0.21833   0.61865   0.80497   0.00000  Uiso   1.00
F693   F     0.21830   0.38135   0.80500   0.00000  Uiso   1.00
F694   F     0.11500   0.61865   0.69503   0.00000  Uiso   1.00
H695   H     0.14367   0.57099   0.53023   0.00000  Uiso   1.00
H696   H     0.14375   0.42898   0.96941   0.00000  Uiso   1.00
H697   H     0.18967   0.57099   0.96978   0.00000  Uiso   1.00
H698   H     0.18959   0.42898   0.53060   0.00000  Uiso   1.00
H699   H     0.03729   0.42424   0.74994   0.00000  Uiso   1.00
H700   H     0.29604   0.57576   0.75006   0.00000  Uiso   1.00
H701   H     0.29604   0.42424   0.75006   0.00000  Uiso   1.00
H702   H     0.03729   0.57576   0.74994   0.00000  Uiso   1.00
C703   C     0.42069   0.50000   0.74995   0.00000  Uiso   1.00
C704   C     0.57931   0.50000   0.75005   0.00000  Uiso   1.00
C705   C     0.49995   0.50000   0.66497   0.00000  Uiso   1.00
C706   C     0.50005   0.50000   0.83503   0.00000  Uiso   1.00
C707   C     0.47425   0.35812   0.72259   0.00000  Uiso   1.00
C708   C     0.52576   0.64188   0.77741   0.00000  Uiso   1.00
C709   C     0.52575   0.35812   0.77741   0.00000  Uiso   1.00
C710   C     0.47424   0.64188   0.72259   0.00000  Uiso   1.00
C711   C     0.35462   0.45748   0.74997   0.00000  Uiso   1.00
C712   C     0.64538   0.54252   0.75003   0.00000  Uiso   1.00
C713   C     0.64538   0.45748   0.75003   0.00000  Uiso   1.00
C714   C     0.35462   0.54252   0.74997   0.00000  Uiso   1.00
C715   C     0.48746   0.53998   0.54752   0.00000  Uiso   1.00
C716   C     0.48756   0.45999   0.95228   0.00000  Uiso   1.00
C717   C     0.51254   0.53998   0.95248   0.00000  Uiso   1.00
C718   C     0.51244   0.45999   0.54772   0.00000  Uiso   1.00
C719   C     0.48771   0.54009   0.59343   0.00000  Uiso   1.00
C720   C     0.48787   0.45988   0.90638   0.00000  Uiso   1.00
C721   C     0.51229   0.54009   0.90657   0.00000  Uiso   1.00
C722   C     0.51213   0.45988   0.59362   0.00000  Uiso   1.00
C723   C     0.49992   0.49999   0.61673   0.00000  Uiso   1.00
C724   C     0.50008   0.49999   0.88327   0.00000  Uiso   1.00
C725   C     0.49998   0.49999   0.52428   0.00000  Uiso   1.00
C726   C     0.50003   0.49999   0.97572   0.00000  Uiso   1.00
C727   C     0.62393   0.50000   0.75005   0.00000  Uiso   1.00
C728   C     0.37607   0.50000   0.74995   0.00000  Uiso   1.00
Cu729  Cu    0.50000   0.54689   0.75000   0.00000  Uiso   1.00
Cu730  Cu    0.50000   0.45311   0.75000   0.00000  Uiso   1.00
H731   H     0.47781   0.57130   0.61067   0.00000  Uiso   1.00
H732   H     0.47801   0.42867   0.88899   0.00000  Uiso   1.00
H733   H     0.52218   0.57130   0.88933   0.00000  Uiso   1.00
H734   H     0.52200   0.42867   0.61101   0.00000  Uiso   1.00
N735   N     0.50000   0.61736   0.75000   0.00000  Uiso   1.00
N736   N     0.50000   0.38264   0.75000   0.00000  Uiso   1.00
O737   O     0.43988   0.53958   0.75000   0.00000  Uiso   1.00
O738   O     0.56012   0.46042   0.75001   0.00000  Uiso   1.00
O739   O     0.56012   0.53958   0.75001   0.00000  Uiso   1.00
O740   O     0.43988   0.46042   0.75000   0.00000  Uiso   1.00
O741   O     0.50000   0.53959   0.68573   0.00000  Uiso   1.00
O742   O     0.50000   0.46041   0.81427   0.00000  Uiso   1.00
O743   O     0.50000   0.53959   0.81427   0.00000  Uiso   1.00
O744   O     0.50000   0.46041   0.68573   0.00000  Uiso   1.00
F745   F     0.44836   0.38135   0.69500   0.00000  Uiso   1.00
F746   F     0.55167   0.61865   0.80497   0.00000  Uiso   1.00
F747   F     0.55164   0.38135   0.80500   0.00000  Uiso   1.00
F748   F     0.44833   0.61865   0.69503   0.00000  Uiso   1.00
H749   H     0.47700   0.57099   0.53023   0.00000  Uiso   1.00
H750   H     0.47708   0.42898   0.96941   0.00000  Uiso   1.00
H751   H     0.52300   0.57099   0.96978   0.00000  Uiso   1.00
H752   H     0.52292   0.42898   0.53060   0.00000  Uiso   1.00
H753   H     0.37062   0.42424   0.74994   0.00000  Uiso   1.00
H754   H     0.62938   0.57576   0.75006   0.00000  Uiso   1.00
H755   H     0.62938   0.42424   0.75006   0.00000  Uiso   1.00
H756   H     0.37062   0.57576   0.74994   0.00000  Uiso   1.00
C757   C     0.75403   0.50000   0.74995   0.00000  Uiso   1.00
C758   C     0.91264   0.50000   0.75005   0.00000  Uiso   1.00
C759   C     0.83328   0.50000   0.66497   0.00000  Uiso   1.00
C760   C     0.83338   0.50000   0.83503   0.00000  Uiso   1.00
C761   C     0.80758   0.35812   0.72259   0.00000  Uiso   1.00
C762   C     0.85909   0.64188   0.77741   0.00000  Uiso   1.00
C763   C     0.85908   0.35812   0.77741   0.00000  Uiso   1.00
C764   C     0.80758   0.64188   0.72259   0.00000  Uiso   1.00
C765   C     0.68795   0.45748   0.74997   0.00000  Uiso   1.00
C766   C     0.97872   0.54252   0.75003   0.00000  Uiso   1.00
C767   C     0.97872   0.45748   0.75003   0.00000  Uiso   1.00
C768   C     0.68795   0.54252   0.74997   0.00000  Uiso   1.00
C769   C     0.82079   0.53998   0.54752   0.00000  Uiso   1.00
C770   C     0.82089   0.45999   0.95228   0.00000  Uiso   1.00
C771   C     0.84588   0.53998   0.95248   0.00000  Uiso   1.00
C772   C     0.84578   0.45999   0.54772   0.00000  Uiso   1.00
C773   C     0.82104   0.54009   0.59343   0.00000  Uiso   1.00
C774   C     0.82120   0.45988   0.90638   0.00000  Uiso   1.00
C775   C     0.84563   0.54009   0.90657   0.00000  Uiso   1.00
C776   C     0.84547   0.45988   0.59362   0.00000  Uiso   1.00
C777   C     0.83326   0.49999   0.61673   0.00000  Uiso   1.00
C778   C     0.83341   0.49999   0.88327   0.00000  Uiso   1.00
C779   C     0.83331   0.49999   0.52428   0.00000  Uiso   1.00
C780   C     0.83336   0.49999   0.97572   0.00000  Uiso   1.00
C781   C     0.95726   0.50000   0.75005   0.00000  Uiso   1.00
C782   C     0.70941   0.50000   0.74995   0.00000  Uiso   1.00
Cu783  Cu    0.83333   0.54689   0.75000   0.00000  Uiso   1.00
Cu784  Cu    0.83333   0.45311   0.75000   0.00000  Uiso   1.00
H785   H     0.81115   0.57130   0.61067   0.00000  Uiso   1.00
H786   H     0.81134   0.42867   0.88899   0.00000  Uiso   1.00
H787   H     0.85552   0.57130   0.88933   0.00000  Uiso   1.00
H788   H     0.85533   0.42867   0.61101   0.00000  Uiso   1.00
N789   N     0.83333   0.61736   0.75000   0.00000  Uiso   1.00
N790   N     0.83333   0.38264   0.75000   0.00000  Uiso   1.00
O791   O     0.77321   0.53958   0.75000   0.00000  Uiso   1.00
O792   O     0.89345   0.46042   0.75001   0.00000  Uiso   1.00
O793   O     0.89345   0.53958   0.75001   0.00000  Uiso   1.00
O794   O     0.77321   0.46042   0.75000   0.00000  Uiso   1.00
O795   O     0.83333   0.53959   0.68573   0.00000  Uiso   1.00
O796   O     0.83334   0.46041   0.81427   0.00000  Uiso   1.00
O797   O     0.83334   0.53959   0.81427   0.00000  Uiso   1.00
O798   O     0.83333   0.46041   0.68573   0.00000  Uiso   1.00
F799   F     0.78170   0.38135   0.69500   0.00000  Uiso   1.00
F800   F     0.88500   0.61865   0.80497   0.00000  Uiso   1.00
F801   F     0.88497   0.38135   0.80500   0.00000  Uiso   1.00
F802   F     0.78167   0.61865   0.69503   0.00000  Uiso   1.00
H803   H     0.81033   0.57099   0.53023   0.00000  Uiso   1.00
H804   H     0.81041   0.42898   0.96941   0.00000  Uiso   1.00
H805   H     0.85633   0.57099   0.96978   0.00000  Uiso   1.00
H806   H     0.85626   0.42898   0.53060   0.00000  Uiso   1.00
H807   H     0.70396   0.42424   0.74994   0.00000  Uiso   1.00
H808   H     0.96271   0.57576   0.75006   0.00000  Uiso   1.00
H809   H     0.96271   0.42424   0.75006   0.00000  Uiso   1.00
H810   H     0.70396   0.57576   0.74994   0.00000  Uiso   1.00
C811   C     0.08736   0.83333   0.74995   0.00000  Uiso   1.00
C812   C     0.24597   0.83333   0.75005   0.00000  Uiso   1.00
C813   C     0.16662   0.83333   0.66497   0.00000  Uiso   1.00
C814   C     0.16672   0.83333   0.83503   0.00000  Uiso   1.00
C815   C     0.14092   0.69145   0.72259   0.00000  Uiso   1.00
C816   C     0.19242   0.97522   0.77741   0.00000  Uiso   1.00
C817   C     0.19242   0.69145   0.77741   0.00000  Uiso   1.00
C818   C     0.14091   0.97522   0.72259   0.00000  Uiso   1.00
C819   C     0.02128   0.79082   0.74997   0.00000  Uiso   1.00
C820   C     0.31205   0.87585   0.75003   0.00000  Uiso   1.00
C821   C     0.31205   0.79082   0.75003   0.00000  Uiso   1.00
C822   C     0.02128   0.87585   0.74997   0.00000  Uiso   1.00
C823   C     0.15412   0.87332   0.54752   0.00000  Uiso   1.00
C824   C     0.15423   0.79332   0.95228   0.00000  Uiso   1.00
C825   C     0.17921   0.87332   0.95248   0.00000  Uiso   1.00
C826   C     0.17911   0.79332   0.54772   0.00000  Uiso   1.00
C827   C     0.15437   0.87342   0.59343   0.00000  Uiso   1.00
C828   C     0.15454   0.79322   0.90638   0.00000  Uiso   1.00
C829   C     0.17896   0.87342   0.90657   0.00000  Uiso   1.00
C830   C     0.17880   0.79322   0.59362   0.00000  Uiso   1.00
C831   C     0.16659   0.83332   0.61673   0.00000  Uiso   1.00
C832   C     0.16674   0.83332   0.88327   0.00000  Uiso   1.00
C833   C     0.16664   0.83332   0.52428   0.00000  Uiso   1.00
C834   C     0.16669   0.83332   0.97572   0.00000  Uiso   1.00
C835   C     0.29059   0.83333   0.75005   0.00000  Uiso   1.00
C836   C     0.04274   0.83333   0.74995   0.00000  Uiso   1.00
Cu837  Cu    0.16667   0.88022   0.75000   0.00000  Uiso   1.00
Cu838  Cu    0.16667   0.78645   0.75000   0.00000  Uiso   1.00
H839   H     0.14448   0.90463   0.61067   0.00000  Uiso   1.00
H840   H     0.14467   0.76200   0.88899   0.00000  Uiso   1.00
H841   H     0.18885   0.90463   0.88933   0.00000  Uiso   1.00
H842   H     0.18866   0.76201   0.61101   0.00000  Uiso   1.00
N843   N     0.16667   0.95069   0.75000   0.00000  Uiso   1.00
N844   N     0.16667   0.71598   0.75000   0.00000  Uiso   1.00
O845   O     0.10655   0.87291   0.75000   0.00000  Uiso   1.00
O846   O     0.22679   0.79375   0.75001   0.00000  Uiso   1.00
O847   O     0.22679   0.87291   0.75001   0.00000  Uiso   1.00
O848   O     0.10655   0.79375   0.75000   0.00000  Uiso   1.00
O849   O     0.16666   0.87293   0.68573   0.00000  Uiso   1.00
O850   O     0.16667   0.79374   0.81427   0.00000  Uiso   1.00
O851   O     0.16667   0.87293   0.81427   0.00000  Uiso   1.00
O852   O     0.16666   0.79374   0.68573   0.00000  Uiso   1.00
F853   F     0.11503   0.71468   0.69500   0.00000  Uiso   1.00
F854   F     0.21833   0.95198   0.80497   0.00000  Uiso   1.00
F855   F     0.21830   0.71468   0.80500   0.00000  Uiso   1.00
F856   F     0.11500   0.95198   0.69503   0.00000  Uiso   1.00
H857   H     0.14367   0.90432   0.53023   0.00000  Uiso   1.00
H858   H     0.14375   0.76232   0.96941   0.00000  Uiso   1.00
H859   H     0.18967   0.90432   0.96978   0.00000  Uiso   1.00
H860   H     0.18959   0.76232   0.53060   0.00000  Uiso   1.00
H861   H     0.03729   0.75757   0.74994   0.00000  Uiso   1.00
H862   H     0.29604   0.90909   0.75006   0.00000  Uiso   1.00
H863   H     0.29604   0.75757   0.75006   0.00000  Uiso   1.00
H864   H     0.03729   0.90909   0.74994   0.00000  Uiso   1.00
C865   C     0.42069   0.83333   0.74995   0.00000  Uiso   1.00
C866   C     0.57931   0.83333   0.75005   0.00000  Uiso   1.00
C867   C     0.49995   0.83333   0.66497   0.00000  Uiso   1.00
C868   C     0.50005   0.83333   0.83503   0.00000  Uiso   1.00
C869   C     0.47425   0.69145   0.72259   0.00000  Uiso   1.00
C870   C     0.52576   0.97522   0.77741   0.00000  Uiso   1.00
C871   C     0.52575   0.69145   0.77741   0.00000  Uiso   1.00
C872   C     0.47424   0.97522   0.72259   0.00000  Uiso   1.00
C873   C     0.35462   0.79082   0.74997   0.00000  Uiso   1.00
C874   C     0.64538   0.87585   0.75003   0.00000  Uiso   1.00
C875   C     0.64538   0.79082   0.75003   0.00000  Uiso   1.00
C876   C     0.35462   0.87585   0.74997   0.00000  Uiso   1.00
C877   C     0.48746   0.87332   0.54752   0.00000  Uiso   1.00
C878   C     0.48756   0.79332   0.95228   0.00000  Uiso   1.00
C879   C     0.51254   0.87332   0.95248   0.00000  Uiso   1.00
C880   C     0.51244   0.79332   0.54772   0.00000  Uiso   1.00
C881   C     0.48771   0.87342   0.59343   0.00000  Uiso   1.00
C882   C     0.48787   0.79322   0.90638   0.00000  Uiso   1.00
C883   C     0.51229   0.87342   0.90657   0.00000  Uiso   1.00
C884   C     0.51213   0.79322   0.59362   0.00000  Uiso   1.00
C885   C     0.49992   0.83332   0.61673   0.00000  Uiso   1.00
C886   C     0.50008   0.83332   0.88327   0.00000  Uiso   1.00
C887   C     0.49998   0.83332   0.52428   0.00000  Uiso   1.00
C888   C     0.50003   0.83332   0.97572   0.00000  Uiso   1.00
C889   C     0.62393   0.83333   0.75005   0.00000  Uiso   1.00
C890   C     0.37607   0.83333   0.74995   0.00000  Uiso   1.00
Cu891  Cu    0.50000   0.88022   0.75000   0.00000  Uiso   1.00
Cu892  Cu    0.50000   0.78645   0.75000   0.00000  Uiso   1.00
H893   H     0.47781   0.90463   0.61067   0.00000  Uiso   1.00
H894   H     0.47801   0.76200   0.88899   0.00000  Uiso   1.00
H895   H     0.52218   0.90463   0.88933   0.00000  Uiso   1.00
H896   H     0.52200   0.76201   0.61101   0.00000  Uiso   1.00
N897   N     0.50000   0.95069   0.75000   0.00000  Uiso   1.00
N898   N     0.50000   0.71598   0.75000   0.00000  Uiso   1.00
O899   O     0.43988   0.87291   0.75000   0.00000  Uiso   1.00
O900   O     0.56012   0.79375   0.75001   0.00000  Uiso   1.00
O901   O     0.56012   0.87291   0.75001   0.00000  Uiso   1.00
O902   O     0.43988   0.79375   0.75000   0.00000  Uiso   1.00
O903   O     0.50000   0.87293   0.68573   0.00000  Uiso   1.00
O904   O     0.50000   0.79374   0.81427   0.00000  Uiso   1.00
O905   O     0.50000   0.87293   0.81427   0.00000  Uiso   1.00
O906   O     0.50000   0.79374   0.68573   0.00000  Uiso   1.00
F907   F     0.44836   0.71468   0.69500   0.00000  Uiso   1.00
F908   F     0.55167   0.95198   0.80497   0.00000  Uiso   1.00
F909   F     0.55164   0.71468   0.80500   0.00000  Uiso   1.00
F910   F     0.44833   0.95198   0.69503   0.00000  Uiso   1.00
H911   H     0.47700   0.90432   0.53023   0.00000  Uiso   1.00
H912   H     0.47708   0.76232   0.96941   0.00000  Uiso   1.00
H913   H     0.52300   0.90432   0.96978   0.00000  Uiso   1.00
H914   H     0.52292   0.76232   0.53060   0.00000  Uiso   1.00
H915   H     0.37062   0.75757   0.74994   0.00000  Uiso   1.00
H916   H     0.62938   0.90909   0.75006   0.00000  Uiso   1.00
H917   H     0.62938   0.75757   0.75006   0.00000  Uiso   1.00
H918   H     0.37062   0.90909   0.74994   0.00000  Uiso   1.00
C919   C     0.75403   0.83333   0.74995   0.00000  Uiso   1.00
C920   C     0.91264   0.83333   0.75005   0.00000  Uiso   1.00
C921   C     0.83328   0.83333   0.66497   0.00000  Uiso   1.00
C922   C     0.83338   0.83333   0.83503   0.00000  Uiso   1.00
C923   C     0.80758   0.69145   0.72259   0.00000  Uiso   1.00
C924   C     0.85909   0.97522   0.77741   0.00000  Uiso   1.00
C925   C     0.85908   0.69145   0.77741   0.00000  Uiso   1.00
C926   C     0.80758   0.97522   0.72259   0.00000  Uiso   1.00
C927   C     0.68795   0.79082   0.74997   0.00000  Uiso   1.00
C928   C     0.97872   0.87585   0.75003   0.00000  Uiso   1.00
C929   C     0.97872   0.79082   0.75003   0.00000  Uiso   1.00
C930   C     0.68795   0.87585   0.74997   0.00000  Uiso   1.00
C931   C     0.82079   0.87332   0.54752   0.00000  Uiso   1.00
C932   C     0.82089   0.79332   0.95228   0.00000  Uiso   1.00
C933   C     0.84588   0.87332   0.95248   0.00000  Uiso   1.00
C934   C     0.84578   0.79332   0.54772   0.00000  Uiso   1.00
C935   C     0.82104   0.87342   0.59343   0.00000  Uiso   1.00
C936   C     0.82120   0.79322   0.90638   0.00000  Uiso   1.00
C937   C     0.84563   0.87342   0.90657   0.00000  Uiso   1.00
C938   C     0.84547   0.79322   0.59362   0.00000  Uiso   1.00
C939   C     0.83326   0.83332   0.61673   0.00000  Uiso   1.00
C940   C     0.83341   0.83332   0.88327   0.00000  Uiso   1.00
C941   C     0.83331   0.83332   0.52428   0.00000  Uiso   1.00
C942   C     0.83336   0.83332   0.97572   0.00000  Uiso   1.00
C943   C     0.95726   0.83333   0.75005   0.00000  Uiso   1.00
C944   C     0.70941   0.83333   0.74995   0.00000  Uiso   1.00
Cu945  Cu    0.83333   0.88022   0.75000   0.00000  Uiso   1.00
Cu946  Cu    0.83333   0.78645   0.75000   0.00000  Uiso   1.00
H947   H     0.81115   0.90463   0.61067   0.00000  Uiso   1.00
H948   H     0.81134   0.76200   0.88899   0.00000  Uiso   1.00
H949   H     0.85552   0.90463   0.88933   0.00000  Uiso   1.00
H950   H     0.85533   0.76201   0.61101   0.00000  Uiso   1.00
N951   N     0.83333   0.95069   0.75000   0.00000  Uiso   1.00
N952   N     0.83333   0.71598   0.75000   0.00000  Uiso   1.00
O953   O     0.77321   0.87291   0.75000   0.00000  Uiso   1.00
O954   O     0.89345   0.79375   0.75001   0.00000  Uiso   1.00
O955   O     0.89345   0.87291   0.75001   0.00000  Uiso   1.00
O956   O     0.77321   0.79375   0.75000   0.00000  Uiso   1.00
O957   O     0.83333   0.87293   0.68573   0.00000  Uiso   1.00
O958   O     0.83334   0.79374   0.81427   0.00000  Uiso   1.00
O959   O     0.83334   0.87293   0.81427   0.00000  Uiso   1.00
O960   O     0.83333   0.79374   0.68573   0.00000  Uiso   1.00
F961   F     0.78170   0.71468   0.69500   0.00000  Uiso   1.00
F962   F     0.88500   0.95198   0.80497   0.00000  Uiso   1.00
F963   F     0.88497   0.71468   0.80500   0.00000  Uiso   1.00
F964   F     0.78167   0.95198   0.69503   0.00000  Uiso   1.00
H965   H     0.81033   0.90432   0.53023   0.00000  Uiso   1.00
H966   H     0.81041   0.76232   0.96941   0.00000  Uiso   1.00
H967   H     0.85633   0.90432   0.96978   0.00000  Uiso   1.00
H968   H     0.85626   0.76232   0.53060   0.00000  Uiso   1.00
H969   H     0.70396   0.75757   0.74994   0.00000  Uiso   1.00
H970   H     0.96271   0.90909   0.75006   0.00000  Uiso   1.00
H971   H     0.96271   0.75757   0.75006   0.00000  Uiso   1.00
H972   H     0.70396   0.90909   0.74994   0.00000  Uiso   1.00
loop_
_geom_bond_atom_site_label_1
_geom_bond_atom_site_label_2
_geom_bond_distance
_geom_bond_site_symmetry_2
_ccdc_geom_bond_type
C1     O35     1.292   .     A
C1     O38     1.292   .     A
C1     C26     1.450   .     S
C2     O37     1.292   .     A
C2     C25     1.450   .     S
C2     O36     1.292   .     A
C3     O42     1.294   .     A
C3     C21     1.460   .     S
C3     O39     1.295   .     A
C4     C22     1.460   .     S
C4     O41     1.295   .     A
C4     O40     1.294   .     A
C5     N34     1.368   .     A
C5     F43     1.355   .     S
C5     C332    1.417   1_545 S
C6     N33     1.368   .     A
C6     F44     1.355   .     S
C6     C169    1.417   .     S
C7     F45     1.355   .     S
C7     N34     1.368   .     A
C7     C330    1.417   1_545 S
C8     N33     1.368   .     A
C8     F46     1.355   .     S
C8     C167    1.417   .     S
C9     C26     1.401   .     A
C9     H51     1.083   .     S
C9     C119    1.384   1_455 S
C10    H52     1.083   .     S
C10    C25     1.401   .     A
C10    C66     1.384   .     S
C11    H53     1.083   .     S
C11    C25     1.401   .     A
C11    C63     1.384   .     S
C12    H54     1.083   .     S
C12    C26     1.401   .     A
C12    C118    1.384   1_455 S
C13    C17     1.390   .     A
C13    C23     1.404   .     A
C13    H47     1.083   .     S
C14    C18     1.390   .     A
C14    C24     1.404   .     A
C14    H48     1.083   .     S
C15    C19     1.390   .     A
C15    C24     1.404   .     A
C15    H49     1.083   .     S
C16    C23     1.404   .     A
C16    C20     1.390   .     A
C16    H50     1.083   .     S
C17    H29     1.083   .     S
C17    C21     1.402   .     A
C18    H30     1.083   .     S
C18    C22     1.402   .     A
C19    H31     1.083   .     S
C19    C22     1.402   .     A
C20    C21     1.402   .     A
C20    H32     1.083   .     S
C23    C510    1.470   1_554 S
C24    C509    1.470   .     S
Cu27   N33     2.014   .     S
Cu27   O37     1.965   .     S
Cu27   O39     1.957   .     S
Cu27   Cu28    2.680   .     S
Cu27   O35     1.965   .     S
Cu27   O41     1.957   .     S
Cu28   O38     1.965   .     S
Cu28   N34     2.014   .     S
Cu28   O42     1.957   .     S
Cu28   O40     1.957   .     S
Cu28   O36     1.965   .     S
C55    O89     1.292   .     A
C55    O92     1.292   .     A
C55    C80     1.450   .     S
C56    O91     1.292   .     A
C56    C79     1.450   .     S
C56    O90     1.292   .     A
C57    O96     1.294   .     A
C57    C75     1.460   .     S
C57    O93     1.295   .     A
C58    C76     1.460   .     S
C58    O95     1.295   .     A
C58    O94     1.294   .     A
C59    N88     1.368   .     A
C59    F97     1.355   .     S
C59    C386    1.417   1_545 S
C60    N87     1.368   .     A
C60    F98     1.355   .     S
C60    C223    1.417   .     S
C61    F99     1.355   .     S
C61    N88     1.368   .     A
C61    C384    1.417   1_545 S
C62    N87     1.368   .     A
C62    F100    1.355   .     S
C62    C221    1.417   .     S
C63    C80     1.401   .     A
C63    H105    1.083   .     S
C64    H106    1.083   .     S
C64    C79     1.401   .     A
C64    C120    1.384   .     S
C65    H107    1.083   .     S
C65    C79     1.401   .     A
C65    C117    1.384   .     S
C66    H108    1.083   .     S
C66    C80     1.401   .     A
C67    C71     1.390   .     A
C67    C77     1.404   .     A
C67    H101    1.083   .     S
C68    C72     1.390   .     A
C68    C78     1.404   .     A
C68    H102    1.083   .     S
C69    C73     1.390   .     A
C69    C78     1.404   .     A
C69    H103    1.083   .     S
C70    C77     1.404   .     A
C70    C74     1.390   .     A
C70    H104    1.083   .     S
C71    H83     1.083   .     S
C71    C75     1.402   .     A
C72    H84     1.083   .     S
C72    C76     1.402   .     A
C73    H85     1.083   .     S
C73    C76     1.402   .     A
C74    C75     1.402   .     A
C74    H86     1.083   .     S
C77    C564    1.470   1_554 S
C78    C563    1.470   .     S
Cu81   N87     2.014   .     S
Cu81   O91     1.965   .     S
Cu81   O93     1.957   .     S
Cu81   Cu82    2.680   .     S
Cu81   O89     1.965   .     S
Cu81   O95     1.957   .     S
Cu82   O92     1.965   .     S
Cu82   N88     2.014   .     S
Cu82   O96     1.957   .     S
Cu82   O94     1.957   .     S
Cu82   O90     1.965   .     S
C109   O143    1.292   .     A
C109   O146    1.292   .     A
C109   C134    1.450   .     S
C110   O145    1.292   .     A
C110   C133    1.450   .     S
C110   O144    1.292   .     A
C111   O150    1.294   .     A
C111   C129    1.460   .     S
C111   O147    1.295   .     A
C112   C130    1.460   .     S
C112   O149    1.295   .     A
C112   O148    1.294   .     A
C113   N142    1.368   .     A
C113   F151    1.355   .     S
C113   C440    1.417   1_545 S
C114   N141    1.368   .     A
C114   F152    1.355   .     S
C114   C277    1.417   .     S
C115   F153    1.355   .     S
C115   N142    1.368   .     A
C115   C438    1.417   1_545 S
C116   N141    1.368   .     A
C116   F154    1.355   .     S
C116   C275    1.417   .     S
C117   C134    1.401   .     A
C117   H159    1.083   .     S
C118   H160    1.083   .     S
C118   C133    1.401   .     A
C118   C12     1.384   1_655 S
C119   H161    1.083   .     S
C119   C133    1.401   .     A
C119   C9      1.384   1_655 S
C120   H162    1.083   .     S
C120   C134    1.401   .     A
C121   C125    1.390   .     A
C121   C131    1.404   .     A
C121   H155    1.083   .     S
C122   C126    1.390   .     A
C122   C132    1.404   .     A
C122   H156    1.083   .     S
C123   C127    1.390   .     A
C123   C132    1.404   .     A
C123   H157    1.083   .     S
C124   C131    1.404   .     A
C124   C128    1.390   .     A
C124   H158    1.083   .     S
C125   H137    1.083   .     S
C125   C129    1.402   .     A
C126   H138    1.083   .     S
C126   C130    1.402   .     A
C127   H139    1.083   .     S
C127   C130    1.402   .     A
C128   C129    1.402   .     A
C128   H140    1.083   .     S
C131   C618    1.470   1_554 S
C132   C617    1.470   .     S
Cu135  N141    2.014   .     S
Cu135  O145    1.965   .     S
Cu135  O147    1.957   .     S
Cu135  Cu136   2.680   .     S
Cu135  O143    1.965   .     S
Cu135  O149    1.957   .     S
Cu136  O146    1.965   .     S
Cu136  N142    2.014   .     S
Cu136  O150    1.957   .     S
Cu136  O148    1.957   .     S
Cu136  O144    1.965   .     S
C163   O197    1.292   .     A
C163   O200    1.292   .     A
C163   C188    1.450   .     S
C164   O199    1.292   .     A
C164   C187    1.450   .     S
C164   O198    1.292   .     A
C165   O204    1.294   .     A
C165   C183    1.460   .     S
C165   O201    1.295   .     A
C166   C184    1.460   .     S
C166   O203    1.295   .     A
C166   O202    1.294   .     A
C167   N196    1.368   .     A
C167   F205    1.355   .     S
C168   N195    1.368   .     A
C168   F206    1.355   .     S
C168   C331    1.417   .     S
C169   F207    1.355   .     S
C169   N196    1.368   .     A
C170   N195    1.368   .     A
C170   F208    1.355   .     S
C170   C329    1.417   .     S
C171   C188    1.401   .     A
C171   H213    1.083   .     S
C171   C281    1.384   1_455 S
C172   H214    1.083   .     S
C172   C187    1.401   .     A
C172   C228    1.384   .     S
C173   H215    1.083   .     S
C173   C187    1.401   .     A
C173   C225    1.384   .     S
C174   H216    1.083   .     S
C174   C188    1.401   .     A
C174   C280    1.384   1_455 S
C175   C179    1.390   .     A
C175   C185    1.404   .     A
C175   H209    1.083   .     S
C176   C180    1.390   .     A
C176   C186    1.404   .     A
C176   H210    1.083   .     S
C177   C181    1.390   .     A
C177   C186    1.404   .     A
C177   H211    1.083   .     S
C178   C185    1.404   .     A
C178   C182    1.390   .     A
C178   H212    1.083   .     S
C179   H191    1.083   .     S
C179   C183    1.402   .     A
C180   H192    1.083   .     S
C180   C184    1.402   .     A
C181   H193    1.083   .     S
C181   C184    1.402   .     A
C182   C183    1.402   .     A
C182   H194    1.083   .     S
C185   C672    1.470   1_554 S
C186   C671    1.470   .     S
Cu189  N195    2.014   .     S
Cu189  O199    1.965   .     S
Cu189  O201    1.957   .     S
Cu189  Cu190   2.680   .     S
Cu189  O197    1.965   .     S
Cu189  O203    1.957   .     S
Cu190  O200    1.965   .     S
Cu190  N196    2.014   .     S
Cu190  O204    1.957   .     S
Cu190  O202    1.957   .     S
Cu190  O198    1.965   .     S
C217   O251    1.292   .     A
C217   O254    1.292   .     A
C217   C242    1.450   .     S
C218   O253    1.292   .     A
C218   C241    1.450   .     S
C218   O252    1.292   .     A
C219   O258    1.294   .     A
C219   C237    1.460   .     S
C219   O255    1.295   .     A
C220   C238    1.460   .     S
C220   O257    1.295   .     A
C220   O256    1.294   .     A
C221   N250    1.368   .     A
C221   F259    1.355   .     S
C222   N249    1.368   .     A
C222   F260    1.355   .     S
C222   C385    1.417   .     S
C223   F261    1.355   .     S
C223   N250    1.368   .     A
C224   N249    1.368   .     A
C224   F262    1.355   .     S
C224   C383    1.417   .     S
C225   C242    1.401   .     A
C225   H267    1.083   .     S
C226   H268    1.083   .     S
C226   C241    1.401   .     A
C226   C282    1.384   .     S
C227   H269    1.083   .     S
C227   C241    1.401   .     A
C227   C279    1.384   .     S
C228   H270    1.083   .     S
C228   C242    1.401   .     A
C229   C233    1.390   .     A
C229   C239    1.404   .     A
C229   H263    1.083   .     S
C230   C234    1.390   .     A
C230   C240    1.404   .     A
C230   H264    1.083   .     S
C231   C235    1.390   .     A
C231   C240    1.404   .     A
C231   H265    1.083   .     S
C232   C239    1.404   .     A
C232   C236    1.390   .     A
C232   H266    1.083   .     S
C233   H245    1.083   .     S
C233   C237    1.402   .     A
C234   H246    1.083   .     S
C234   C238    1.402   .     A
C235   H247    1.083   .     S
C235   C238    1.402   .     A
C236   C237    1.402   .     A
C236   H248    1.083   .     S
C239   C726    1.470   1_554 S
C240   C725    1.470   .     S
Cu243  N249    2.014   .     S
Cu243  O253    1.965   .     S
Cu243  O255    1.957   .     S
Cu243  Cu244   2.680   .     S
Cu243  O251    1.965   .     S
Cu243  O257    1.957   .     S
Cu244  O254    1.965   .     S
Cu244  N250    2.014   .     S
Cu244  O258    1.957   .     S
Cu244  O256    1.957   .     S
Cu244  O252    1.965   .     S
C271   O305    1.292   .     A
C271   O308    1.292   .     A
C271   C296    1.450   .     S
C272   O307    1.292   .     A
C272   C295    1.450   .     S
C272   O306    1.292   .     A
C273   O312    1.294   .     A
C273   C291    1.460   .     S
C273   O309    1.295   .     A
C274   C292    1.460   .     S
C274   O311    1.295   .     A
C274   O310    1.294   .     A
C275   N304    1.368   .     A
C275   F313    1.355   .     S
C276   N303    1.368   .     A
C276   F314    1.355   .     S
C276   C439    1.417   .     S
C277   F315    1.355   .     S
C277   N304    1.368   .     A
C278   N303    1.368   .     A
C278   F316    1.355   .     S
C278   C437    1.417   .     S
C279   C296    1.401   .     A
C279   H321    1.083   .     S
C280   H322    1.083   .     S
C280   C295    1.401   .     A
C280   C174    1.384   1_655 S
C281   H323    1.083   .     S
C281   C295    1.401   .     A
C281   C171    1.384   1_655 S
C282   H324    1.083   .     S
C282   C296    1.401   .     A
C283   C287    1.390   .     A
C283   C293    1.404   .     A
C283   H317    1.083   .     S
C284   C288    1.390   .     A
C284   C294    1.404   .     A
C284   H318    1.083   .     S
C285   C289    1.390   .     A
C285   C294    1.404   .     A
C285   H319    1.083   .     S
C286   C293    1.404   .     A
C286   C290    1.390   .     A
C286   H320    1.083   .     S
C287   H299    1.083   .     S
C287   C291    1.402   .     A
C288   H300    1.083   .     S
C288   C292    1.402   .     A
C289   H301    1.083   .     S
C289   C292    1.402   .     A
C290   C291    1.402   .     A
C290   H302    1.083   .     S
C293   C780    1.470   1_554 S
C294   C779    1.470   .     S
Cu297  N303    2.014   .     S
Cu297  O307    1.965   .     S
Cu297  O309    1.957   .     S
Cu297  Cu298   2.680   .     S
Cu297  O305    1.965   .     S
Cu297  O311    1.957   .     S
Cu298  O308    1.965   .     S
Cu298  N304    2.014   .     S
Cu298  O312    1.957   .     S
Cu298  O310    1.957   .     S
Cu298  O306    1.965   .     S
C325   O359    1.292   .     A
C325   O362    1.292   .     A
C325   C350    1.450   .     S
C326   O361    1.292   .     A
C326   C349    1.450   .     S
C326   O360    1.292   .     A
C327   O366    1.294   .     A
C327   C345    1.460   .     S
C327   O363    1.295   .     A
C328   C346    1.460   .     S
C328   O365    1.295   .     A
C328   O364    1.294   .     A
C329   N358    1.368   .     A
C329   F367    1.355   .     S
C330   N357    1.368   .     A
C330   F368    1.355   .     S
C330   C7      1.417   1_565 S
C331   F369    1.355   .     S
C331   N358    1.368   .     A
C332   N357    1.368   .     A
C332   F370    1.355   .     S
C332   C5      1.417   1_565 S
C333   C350    1.401   .     A
C333   H375    1.083   .     S
C333   C443    1.384   1_455 S
C334   H376    1.083   .     S
C334   C349    1.401   .     A
C334   C390    1.384   .     S
C335   H377    1.083   .     S
C335   C349    1.401   .     A
C335   C387    1.384   .     S
C336   H378    1.083   .     S
C336   C350    1.401   .     A
C336   C442    1.384   1_455 S
C337   C341    1.390   .     A
C337   C347    1.404   .     A
C337   H371    1.083   .     S
C338   C342    1.390   .     A
C338   C348    1.404   .     A
C338   H372    1.083   .     S
C339   C343    1.390   .     A
C339   C348    1.404   .     A
C339   H373    1.083   .     S
C340   C347    1.404   .     A
C340   C344    1.390   .     A
C340   H374    1.083   .     S
C341   H353    1.083   .     S
C341   C345    1.402   .     A
C342   H354    1.083   .     S
C342   C346    1.402   .     A
C343   H355    1.083   .     S
C343   C346    1.402   .     A
C344   C345    1.402   .     A
C344   H356    1.083   .     S
C347   C834    1.470   1_554 S
C348   C833    1.470   .     S
Cu351  N357    2.014   .     S
Cu351  O361    1.965   .     S
Cu351  O363    1.957   .     S
Cu351  Cu352   2.680   .     S
Cu351  O359    1.965   .     S
Cu351  O365    1.957   .     S
Cu352  O362    1.965   .     S
Cu352  N358    2.014   .     S
Cu352  O366    1.957   .     S
Cu352  O364    1.957   .     S
Cu352  O360    1.965   .     S
C379   O413    1.292   .     A
C379   O416    1.292   .     A
C379   C404    1.450   .     S
C380   O415    1.292   .     A
C380   C403    1.450   .     S
C380   O414    1.292   .     A
C381   O420    1.294   .     A
C381   C399    1.460   .     S
C381   O417    1.295   .     A
C382   C400    1.460   .     S
C382   O419    1.295   .     A
C382   O418    1.294   .     A
C383   N412    1.368   .     A
C383   F421    1.355   .     S
C384   N411    1.368   .     A
C384   F422    1.355   .     S
C384   C61     1.417   1_565 S
C385   F423    1.355   .     S
C385   N412    1.368   .     A
C386   N411    1.368   .     A
C386   F424    1.355   .     S
C386   C59     1.417   1_565 S
C387   C404    1.401   .     A
C387   H429    1.083   .     S
C388   H430    1.083   .     S
C388   C403    1.401   .     A
C388   C444    1.384   .     S
C389   H431    1.083   .     S
C389   C403    1.401   .     A
C389   C441    1.384   .     S
C390   H432    1.083   .     S
C390   C404    1.401   .     A
C391   C395    1.390   .     A
C391   C401    1.404   .     A
C391   H425    1.083   .     S
C392   C396    1.390   .     A
C392   C402    1.404   .     A
C392   H426    1.083   .     S
C393   C397    1.390   .     A
C393   C402    1.404   .     A
C393   H427    1.083   .     S
C394   C401    1.404   .     A
C394   C398    1.390   .     A
C394   H428    1.083   .     S
C395   H407    1.083   .     S
C395   C399    1.402   .     A
C396   H408    1.083   .     S
C396   C400    1.402   .     A
C397   H409    1.083   .     S
C397   C400    1.402   .     A
C398   C399    1.402   .     A
C398   H410    1.083   .     S
C401   C888    1.470   1_554 S
C402   C887    1.470   .     S
Cu405  N411    2.014   .     S
Cu405  O415    1.965   .     S
Cu405  O417    1.957   .     S
Cu405  Cu406   2.680   .     S
Cu405  O413    1.965   .     S
Cu405  O419    1.957   .     S
Cu406  O416    1.965   .     S
Cu406  N412    2.014   .     S
Cu406  O420    1.957   .     S
Cu406  O418    1.957   .     S
Cu406  O414    1.965   .     S
C433   O467    1.292   .     A
C433   O470    1.292   .     A
C433   C458    1.450   .     S
C434   O469    1.292   .     A
C434   C457    1.450   .     S
C434   O468    1.292   .     A
C435   O474    1.294   .     A
C435   C453    1.460   .     S
C435   O471    1.295   .     A
C436   C454    1.460   .     S
C436   O473    1.295   .     A
C436   O472    1.294   .     A
C437   N466    1.368   .     A
C437   F475    1.355   .     S
C438   N465    1.368   .     A
C438   F476    1.355   .     S
C438   C115    1.417   1_565 S
C439   F477    1.355   .     S
C439   N466    1.368   .     A
C440   N465    1.368   .     A
C440   F478    1.355   .     S
C440   C113    1.417   1_565 S
C441   C458    1.401   .     A
C441   H483    1.083   .     S
C442   H484    1.083   .     S
C442   C457    1.401   .     A
C442   C336    1.384   1_655 S
C443   H485    1.083   .     S
C443   C457    1.401   .     A
C443   C333    1.384   1_655 S
C444   H486    1.083   .     S
C444   C458    1.401   .     A
C445   C449    1.390   .     A
C445   C455    1.404   .     A
C445   H479    1.083   .     S
C446   C450    1.390   .     A
C446   C456    1.404   .     A
C446   H480    1.083   .     S
C447   C451    1.390   .     A
C447   C456    1.404   .     A
C447   H481    1.083   .     S
C448   C455    1.404   .     A
C448   C452    1.390   .     A
C448   H482    1.083   .     S
C449   H461    1.083   .     S
C449   C453    1.402   .     A
C450   H462    1.083   .     S
C450   C454    1.402   .     A
C451   H463    1.083   .     S
C451   C454    1.402   .     A
C452   C453    1.402   .     A
C452   H464    1.083   .     S
C455   C942    1.470   1_554 S
C456   C941    1.470   .     S
Cu459  N465    2.014   .     S
Cu459  O469    1.965   .     S
Cu459  O471    1.957   .     S
Cu459  Cu460   2.680   .     S
Cu459  O467    1.965   .     S
Cu459  O473    1.957   .     S
Cu460  O470    1.965   .     S
Cu460  N466    2.014   .     S
Cu460  O474    1.957   .     S
Cu460  O472    1.957   .     S
Cu460  O468    1.965   .     S
C487   O521    1.292   .     A
C487   O524    1.292   .     A
C487   C512    1.450   .     S
C488   O523    1.292   .     A
C488   C511    1.450   .     S
C488   O522    1.292   .     A
C489   O528    1.294   .     A
C489   C507    1.460   .     S
C489   O525    1.295   .     A
C490   C508    1.460   .     S
C490   O527    1.295   .     A
C490   O526    1.294   .     A
C491   N520    1.368   .     A
C491   F529    1.355   .     S
C491   C818    1.417   1_545 S
C492   N519    1.368   .     A
C492   F530    1.355   .     S
C492   C655    1.417   .     S
C493   F531    1.355   .     S
C493   N520    1.368   .     A
C493   C816    1.417   1_545 S
C494   N519    1.368   .     A
C494   F532    1.355   .     S
C494   C653    1.417   .     S
C495   C512    1.401   .     A
C495   H537    1.083   .     S
C495   C605    1.384   1_455 S
C496   H538    1.083   .     S
C496   C511    1.401   .     A
C496   C552    1.384   .     S
C497   H539    1.083   .     S
C497   C511    1.401   .     A
C497   C549    1.384   .     S
C498   H540    1.083   .     S
C498   C512    1.401   .     A
C498   C604    1.384   1_455 S
C499   C503    1.390   .     A
C499   C509    1.404   .     A
C499   H533    1.083   .     S
C500   C504    1.390   .     A
C500   C510    1.404   .     A
C500   H534    1.083   .     S
C501   C505    1.390   .     A
C501   C510    1.404   .     A
C501   H535    1.083   .     S
C502   C509    1.404   .     A
C502   C506    1.390   .     A
C502   H536    1.083   .     S
C503   H515    1.083   .     S
C503   C507    1.402   .     A
C504   H516    1.083   .     S
C504   C508    1.402   .     A
C505   H517    1.083   .     S
C505   C508    1.402   .     A
C506   C507    1.402   .     A
C506   H518    1.083   .     S
C510   C23     1.470   1_556 S
Cu513  N519    2.014   .     S
Cu513  O523    1.965   .     S
Cu513  O525    1.957   .     S
Cu513  Cu514   2.680   .     S
Cu513  O521    1.965   .     S
Cu513  O527    1.957   .     S
Cu514  O524    1.965   .     S
Cu514  N520    2.014   .     S
Cu514  O528    1.957   .     S
Cu514  O526    1.957   .     S
Cu514  O522    1.965   .     S
C541   O575    1.292   .     A
C541   O578    1.292   .     A
C541   C566    1.450   .     S
C542   O577    1.292   .     A
C542   C565    1.450   .     S
C542   O576    1.292   .     A
C543   O582    1.294   .     A
C543   C561    1.460   .     S
C543   O579    1.295   .     A
C544   C562    1.460   .     S
C544   O581    1.295   .     A
C544   O580    1.294   .     A
C545   N574    1.368   .     A
C545   F583    1.355   .     S
C545   C872    1.417   1_545 S
C546   N573    1.368   .     A
C546   F584    1.355   .     S
C546   C709    1.417   .     S
C547   F585    1.355   .     S
C547   N574    1.368   .     A
C547   C870    1.417   1_545 S
C548   N573    1.368   .     A
C548   F586    1.355   .     S
C548   C707    1.417   .     S
C549   C566    1.401   .     A
C549   H591    1.083   .     S
C550   H592    1.083   .     S
C550   C565    1.401   .     A
C550   C606    1.384   .     S
C551   H593    1.083   .     S
C551   C565    1.401   .     A
C551   C603    1.384   .     S
C552   H594    1.083   .     S
C552   C566    1.401   .     A
C553   C557    1.390   .     A
C553   C563    1.404   .     A
C553   H587    1.083   .     S
C554   C558    1.390   .     A
C554   C564    1.404   .     A
C554   H588    1.083   .     S
C555   C559    1.390   .     A
C555   C564    1.404   .     A
C555   H589    1.083   .     S
C556   C563    1.404   .     A
C556   C560    1.390   .     A
C556   H590    1.083   .     S
C557   H569    1.083   .     S
C557   C561    1.402   .     A
C558   H570    1.083   .     S
C558   C562    1.402   .     A
C559   H571    1.083   .     S
C559   C562    1.402   .     A
C560   C561    1.402   .     A
C560   H572    1.083   .     S
C564   C77     1.470   1_556 S
Cu567  N573    2.014   .     S
Cu567  O577    1.965   .     S
Cu567  O579    1.957   .     S
Cu567  Cu568   2.680   .     S
Cu567  O575    1.965   .     S
Cu567  O581    1.957   .     S
Cu568  O578    1.965   .     S
Cu568  N574    2.014   .     S
Cu568  O582    1.957   .     S
Cu568  O580    1.957   .     S
Cu568  O576    1.965   .     S
C595   O629    1.292   .     A
C595   O632    1.292   .     A
C595   C620    1.450   .     S
C596   O631    1.292   .     A
C596   C619    1.450   .     S
C596   O630    1.292   .     A
C597   O636    1.294   .     A
C597   C615    1.460   .     S
C597   O633    1.295   .     A
C598   C616    1.460   .     S
C598   O635    1.295   .     A
C598   O634    1.294   .     A
C599   N628    1.368   .     A
C599   F637    1.355   .     S
C599   C926    1.417   1_545 S
C600   N627    1.368   .     A
C600   F638    1.355   .     S
C600   C763    1.417   .     S
C601   F639    1.355   .     S
C601   N628    1.368   .     A
C601   C924    1.417   1_545 S
C602   N627    1.368   .     A
C602   F640    1.355   .     S
C602   C761    1.417   .     S
C603   C620    1.401   .     A
C603   H645    1.083   .     S
C604   H646    1.083   .     S
C604   C619    1.401   .     A
C604   C498    1.384   1_655 S
C605   H647    1.083   .     S
C605   C619    1.401   .     A
C605   C495    1.384   1_655 S
C606   H648    1.083   .     S
C606   C620    1.401   .     A
C607   C611    1.390   .     A
C607   C617    1.404   .     A
C607   H641    1.083   .     S
C608   C612    1.390   .     A
C608   C618    1.404   .     A
C608   H642    1.083   .     S
C609   C613    1.390   .     A
C609   C618    1.404   .     A
C609   H643    1.083   .     S
C610   C617    1.404   .     A
C610   C614    1.390   .     A
C610   H644    1.083   .     S
C611   H623    1.083   .     S
C611   C615    1.402   .     A
C612   H624    1.083   .     S
C612   C616    1.402   .     A
C613   H625    1.083   .     S
C613   C616    1.402   .     A
C614   C615    1.402   .     A
C614   H626    1.083   .     S
C618   C131    1.470   1_556 S
Cu621  N627    2.014   .     S
Cu621  O631    1.965   .     S
Cu621  O633    1.957   .     S
Cu621  Cu622   2.680   .     S
Cu621  O629    1.965   .     S
Cu621  O635    1.957   .     S
Cu622  O632    1.965   .     S
Cu622  N628    2.014   .     S
Cu622  O636    1.957   .     S
Cu622  O634    1.957   .     S
Cu622  O630    1.965   .     S
C649   O683    1.292   .     A
C649   O686    1.292   .     A
C649   C674    1.450   .     S
C650   O685    1.292   .     A
C650   C673    1.450   .     S
C650   O684    1.292   .     A
C651   O690    1.294   .     A
C651   C669    1.460   .     S
C651   O687    1.295   .     A
C652   C670    1.460   .     S
C652   O689    1.295   .     A
C652   O688    1.294   .     A
C653   N682    1.368   .     A
C653   F691    1.355   .     S
C654   N681    1.368   .     A
C654   F692    1.355   .     S
C654   C817    1.417   .     S
C655   F693    1.355   .     S
C655   N682    1.368   .     A
C656   N681    1.368   .     A
C656   F694    1.355   .     S
C656   C815    1.417   .     S
C657   C674    1.401   .     A
C657   H699    1.083   .     S
C657   C767    1.384   1_455 S
C658   H700    1.083   .     S
C658   C673    1.401   .     A
C658   C714    1.384   .     S
C659   H701    1.083   .     S
C659   C673    1.401   .     A
C659   C711    1.384   .     S
C660   H702    1.083   .     S
C660   C674    1.401   .     A
C660   C766    1.384   1_455 S
C661   C665    1.390   .     A
C661   C671    1.404   .     A
C661   H695    1.083   .     S
C662   C666    1.390   .     A
C662   C672    1.404   .     A
C662   H696    1.083   .     S
C663   C667    1.390   .     A
C663   C672    1.404   .     A
C663   H697    1.083   .     S
C664   C671    1.404   .     A
C664   C668    1.390   .     A
C664   H698    1.083   .     S
C665   H677    1.083   .     S
C665   C669    1.402   .     A
C666   H678    1.083   .     S
C666   C670    1.402   .     A
C667   H679    1.083   .     S
C667   C670    1.402   .     A
C668   C669    1.402   .     A
C668   H680    1.083   .     S
C672   C185    1.470   1_556 S
Cu675  N681    2.014   .     S
Cu675  O685    1.965   .     S
Cu675  O687    1.957   .     S
Cu675  Cu676   2.680   .     S
Cu675  O683    1.965   .     S
Cu675  O689    1.957   .     S
Cu676  O686    1.965   .     S
Cu676  N682    2.014   .     S
Cu676  O690    1.957   .     S
Cu676  O688    1.957   .     S
Cu676  O684    1.965   .     S
C703   O737    1.292   .     A
C703   O740    1.292   .     A
C703   C728    1.450   .     S
C704   O739    1.292   .     A
C704   C727    1.450   .     S
C704   O738    1.292   .     A
C705   O744    1.294   .     A
C705   C723    1.460   .     S
C705   O741    1.295   .     A
C706   C724    1.460   .     S
C706   O743    1.295   .     A
C706   O742    1.294   .     A
C707   N736    1.368   .     A
C707   F745    1.355   .     S
C708   N735    1.368   .     A
C708   F746    1.355   .     S
C708   C871    1.417   .     S
C709   F747    1.355   .     S
C709   N736    1.368   .     A
C710   N735    1.368   .     A
C710   F748    1.355   .     S
C710   C869    1.417   .     S
C711   C728    1.401   .     A
C711   H753    1.083   .     S
C712   H754    1.083   .     S
C712   C727    1.401   .     A
C712   C768    1.384   .     S
C713   H755    1.083   .     S
C713   C727    1.401   .     A
C713   C765    1.384   .     S
C714   H756    1.083   .     S
C714   C728    1.401   .     A
C715   C719    1.390   .     A
C715   C725    1.404   .     A
C715   H749    1.083   .     S
C716   C720    1.390   .     A
C716   C726    1.404   .     A
C716   H750    1.083   .     S
C717   C721    1.390   .     A
C717   C726    1.404   .     A
C717   H751    1.083   .     S
C718   C725    1.404   .     A
C718   C722    1.390   .     A
C718   H752    1.083   .     S
C719   H731    1.083   .     S
C719   C723    1.402   .     A
C720   H732    1.083   .     S
C720   C724    1.402   .     A
C721   H733    1.083   .     S
C721   C724    1.402   .     A
C722   C723    1.402   .     A
C722   H734    1.083   .     S
C726   C239    1.470   1_556 S
Cu729  N735    2.014   .     S
Cu729  O739    1.965   .     S
Cu729  O741    1.957   .     S
Cu729  Cu730   2.680   .     S
Cu729  O737    1.965   .     S
Cu729  O743    1.957   .     S
Cu730  O740    1.965   .     S
Cu730  N736    2.014   .     S
Cu730  O744    1.957   .     S
Cu730  O742    1.957   .     S
Cu730  O738    1.965   .     S
C757   O791    1.292   .     A
C757   O794    1.292   .     A
C757   C782    1.450   .     S
C758   O793    1.292   .     A
C758   C781    1.450   .     S
C758   O792    1.292   .     A
C759   O798    1.294   .     A
C759   C777    1.460   .     S
C759   O795    1.295   .     A
C760   C778    1.460   .     S
C760   O797    1.295   .     A
C760   O796    1.294   .     A
C761   N790    1.368   .     A
C761   F799    1.355   .     S
C762   N789    1.368   .     A
C762   F800    1.355   .     S
C762   C925    1.417   .     S
C763   F801    1.355   .     S
C763   N790    1.368   .     A
C764   N789    1.368   .     A
C764   F802    1.355   .     S
C764   C923    1.417   .     S
C765   C782    1.401   .     A
C765   H807    1.083   .     S
C766   H808    1.083   .     S
C766   C781    1.401   .     A
C766   C660    1.384   1_655 S
C767   H809    1.083   .     S
C767   C781    1.401   .     A
C767   C657    1.384   1_655 S
C768   H810    1.083   .     S
C768   C782    1.401   .     A
C769   C773    1.390   .     A
C769   C779    1.404   .     A
C769   H803    1.083   .     S
C770   C774    1.390   .     A
C770   C780    1.404   .     A
C770   H804    1.083   .     S
C771   C775    1.390   .     A
C771   C780    1.404   .     A
C771   H805    1.083   .     S
C772   C779    1.404   .     A
C772   C776    1.390   .     A
C772   H806    1.083   .     S
C773   H785    1.083   .     S
C773   C777    1.402   .     A
C774   H786    1.083   .     S
C774   C778    1.402   .     A
C775   H787    1.083   .     S
C775   C778    1.402   .     A
C776   C777    1.402   .     A
C776   H788    1.083   .     S
C780   C293    1.470   1_556 S
Cu783  N789    2.014   .     S
Cu783  O793    1.965   .     S
Cu783  O795    1.957   .     S
Cu783  Cu784   2.680   .     S
Cu783  O791    1.965   .     S
Cu783  O797    1.957   .     S
Cu784  O794    1.965   .     S
Cu784  N790    2.014   .     S
Cu784  O798    1.957   .     S
Cu784  O796    1.957   .     S
Cu784  O792    1.965   .     S
C811   O845    1.292   .     A
C811   O848    1.292   .     A
C811   C836    1.450   .     S
C812   O847    1.292   .     A
C812   C835    1.450   .     S
C812   O846    1.292   .     A
C813   O852    1.294   .     A
C813   C831    1.460   .     S
C813   O849    1.295   .     A
C814   C832    1.460   .     S
C814   O851    1.295   .     A
C814   O850    1.294   .     A
C815   N844    1.368   .     A
C815   F853    1.355   .     S
C816   N843    1.368   .     A
C816   F854    1.355   .     S
C816   C493    1.417   1_565 S
C817   F855    1.355   .     S
C817   N844    1.368   .     A
C818   N843    1.368   .     A
C818   F856    1.355   .     S
C818   C491    1.417   1_565 S
C819   C836    1.401   .     A
C819   H861    1.083   .     S
C819   C929    1.384   1_455 S
C820   H862    1.083   .     S
C820   C835    1.401   .     A
C820   C876    1.384   .     S
C821   H863    1.083   .     S
C821   C835    1.401   .     A
C821   C873    1.384   .     S
C822   H864    1.083   .     S
C822   C836    1.401   .     A
C822   C928    1.384   1_455 S
C823   C827    1.390   .     A
C823   C833    1.404   .     A
C823   H857    1.083   .     S
C824   C828    1.390   .     A
C824   C834    1.404   .     A
C824   H858    1.083   .     S
C825   C829    1.390   .     A
C825   C834    1.404   .     A
C825   H859    1.083   .     S
C826   C833    1.404   .     A
C826   C830    1.390   .     A
C826   H860    1.083   .     S
C827   H839    1.083   .     S
C827   C831    1.402   .     A
C828   H840    1.083   .     S
C828   C832    1.402   .     A
C829   H841    1.083   .     S
C829   C832    1.402   .     A
C830   C831    1.402   .     A
C830   H842    1.083   .     S
C834   C347    1.470   1_556 S
Cu837  N843    2.014   .     S
Cu837  O847    1.965   .     S
Cu837  O849    1.957   .     S
Cu837  Cu838   2.680   .     S
Cu837  O845    1.965   .     S
Cu837  O851    1.957   .     S
Cu838  O848    1.965   .     S
Cu838  N844    2.014   .     S
Cu838  O852    1.957   .     S
Cu838  O850    1.957   .     S
Cu838  O846    1.965   .     S
C865   O899    1.292   .     A
C865   O902    1.292   .     A
C865   C890    1.450   .     S
C866   O901    1.292   .     A
C866   C889    1.450   .     S
C866   O900    1.292   .     A
C867   O906    1.294   .     A
C867   C885    1.460   .     S
C867   O903    1.295   .     A
C868   C886    1.460   .     S
C868   O905    1.295   .     A
C868   O904    1.294   .     A
C869   N898    1.368   .     A
C869   F907    1.355   .     S
C870   N897    1.368   .     A
C870   F908    1.355   .     S
C870   C547    1.417   1_565 S
C871   F909    1.355   .     S
C871   N898    1.368   .     A
C872   N897    1.368   .     A
C872   F910    1.355   .     S
C872   C545    1.417   1_565 S
C873   C890    1.401   .     A
C873   H915    1.083   .     S
C874   H916    1.083   .     S
C874   C889    1.401   .     A
C874   C930    1.384   .     S
C875   H917    1.083   .     S
C875   C889    1.401   .     A
C875   C927    1.384   .     S
C876   H918    1.083   .     S
C876   C890    1.401   .     A
C877   C881    1.390   .     A
C877   C887    1.404   .     A
C877   H911    1.083   .     S
C878   C882    1.390   .     A
C878   C888    1.404   .     A
C878   H912    1.083   .     S
C879   C883    1.390   .     A
C879   C888    1.404   .     A
C879   H913    1.083   .     S
C880   C887    1.404   .     A
C880   C884    1.390   .     A
C880   H914    1.083   .     S
C881   H893    1.083   .     S
C881   C885    1.402   .     A
C882   H894    1.083   .     S
C882   C886    1.402   .     A
C883   H895    1.083   .     S
C883   C886    1.402   .     A
C884   C885    1.402   .     A
C884   H896    1.083   .     S
C888   C401    1.470   1_556 S
Cu891  N897    2.014   .     S
Cu891  O901    1.965   .     S
Cu891  O903    1.957   .     S
Cu891  Cu892   2.680   .     S
Cu891  O899    1.965   .     S
Cu891  O905    1.957   .     S
Cu892  O902    1.965   .     S
Cu892  N898    2.014   .     S
Cu892  O906    1.957   .     S
Cu892  O904    1.957   .     S
Cu892  O900    1.965   .     S
C919   O953    1.292   .     A
C919   O956    1.292   .     A
C919   C944    1.450   .     S
C920   O955    1.292   .     A
C920   C943    1.450   .     S
C920   O954    1.292   .     A
C921   O960    1.294   .     A
C921   C939    1.460   .     S
C921   O957    1.295   .     A
C922   C940    1.460   .     S
C922   O959    1.295   .     A
C922   O958    1.294   .     A
C923   N952    1.368   .     A
C923   F961    1.355   .     S
C924   N951    1.368   .     A
C924   F962    1.355   .     S
C924   C601    1.417   1_565 S
C925   F963    1.355   .     S
C925   N952    1.368   .     A
C926   N951    1.368   .     A
C926   F964    1.355   .     S
C926   C599    1.417   1_565 S
C927   C944    1.401   .     A
C927   H969    1.083   .     S
C928   H970    1.083   .     S
C928   C943    1.401   .     A
C928   C822    1.384   1_655 S
C929   H971    1.083   .     S
C929   C943    1.401   .     A
C929   C819    1.384   1_655 S
C930   H972    1.083   .     S
C930   C944    1.401   .     A
C931   C935    1.390   .     A
C931   C941    1.404   .     A
C931   H965    1.083   .     S
C932   C936    1.390   .     A
C932   C942    1.404   .     A
C932   H966    1.083   .     S
C933   C937    1.390   .     A
C933   C942    1.404   .     A
C933   H967    1.083   .     S
C934   C941    1.404   .     A
C934   C938    1.390   .     A
C934   H968    1.083   .     S
C935   H947    1.083   .     S
C935   C939    1.402   .     A
C936   H948    1.083   .     S
C936   C940    1.402   .     A
C937   H949    1.083   .     S
C937   C940    1.402   .     A
C938   C939    1.402   .     A
C938   H950    1.083   .     S
C942   C455    1.470   1_556 S
Cu945  N951    2.014   .     S
Cu945  O955    1.965   .     S
Cu945  O957    1.957   .     S
Cu945  Cu946   2.680   .     S
Cu945  O953    1.965   .     S
Cu945  O959    1.957   .     S
Cu946  O956    1.965   .     S
Cu946  N952    2.014   .     S
Cu946  O960    1.957   .     S
Cu946  O958    1.957   .     S
Cu946  O954    1.965   .     S
