data_str_m3_o1_o2_pcu_sym.54
_audit_creation_date              2020-01-03
_audit_creation_method            'Materials Studio'
_symmetry_space_group_name_H-M    'P1'
_symmetry_Int_Tables_number       1
_symmetry_cell_setting            triclinic
loop_
_symmetry_equiv_pos_as_xyz
  x,y,z
_cell_length_a                    32.3829
_cell_length_b                    29.9639
_cell_length_c                    30.0203
_cell_angle_alpha                 89.9994
_cell_angle_beta                  93.9921
_cell_angle_gamma                 90.0067
loop_
_atom_site_label
_atom_site_type_symbol
_atom_site_fract_x
_atom_site_fract_y
_atom_site_fract_z
_atom_site_U_iso_or_equiv
_atom_site_adp_type
_atom_site_occupancy
C1     C     0.08677   0.16667   0.25019   0.00000  Uiso   1.00
C2     C     0.31219   0.20743   0.24973   0.00000  Uiso   1.00
C3     C     0.31217   0.12598   0.24947   0.00000  Uiso   1.00
C4     C     0.02117   0.20743   0.25045   0.00000  Uiso   1.00
C5     C     0.18009   0.20499   0.04820   0.00000  Uiso   1.00
C6     C     0.18158   0.12988   0.45414   0.00000  Uiso   1.00
C7     C     0.15187   0.20449   0.45160   0.00000  Uiso   1.00
C8     C     0.15258   0.12941   0.04590   0.00000  Uiso   1.00
C9     C     0.17990   0.20491   0.09420   0.00000  Uiso   1.00
C10    C     0.18139   0.12959   0.40814   0.00000  Uiso   1.00
C11    C     0.15217   0.20443   0.40562   0.00000  Uiso   1.00
C12    C     0.24656   0.16667   0.24982   0.00000  Uiso   1.00
C13    C     0.15288   0.12912   0.09190   0.00000  Uiso   1.00
C14    C     0.16646   0.16688   0.11609   0.00000  Uiso   1.00
C15    C     0.16676   0.16688   0.38386   0.00000  Uiso   1.00
C16    C     0.16638   0.16725   0.02403   0.00000  Uiso   1.00
C17    C     0.16663   0.16724   0.47589   0.00000  Uiso   1.00
C18    C     0.29077   0.16670   0.24952   0.00000  Uiso   1.00
C19    C     0.04256   0.16669   0.25049   0.00000  Uiso   1.00
C20    C     0.22293   0.04747   0.31228   0.00000  Uiso   1.00
C21    C     0.11125   0.28569   0.18689   0.00000  Uiso   1.00
C22    C     0.11041   0.04746   0.18772   0.00000  Uiso   1.00
C23    C     0.16653   0.16670   0.16406   0.00000  Uiso   1.00
C24    C     0.22206   0.28570   0.31313   0.00000  Uiso   1.00
C25    C     0.16679   0.16670   0.33592   0.00000  Uiso   1.00
C26    C     0.19300   0.02388   0.27929   0.00000  Uiso   1.00
C27    C     0.14047   0.30940   0.22057   0.00000  Uiso   1.00
C28    C     0.14033   0.02388   0.22071   0.00000  Uiso   1.00
C29    C     0.19286   0.30941   0.27943   0.00000  Uiso   1.00
C30    C     0.02115   0.12598   0.25040   0.00000  Uiso   1.00
F31    F     0.04072   0.08586   0.25144   0.00000  Uiso   1.00
F32    F     0.29261   0.24755   0.24902   0.00000  Uiso   1.00
F33    F     0.29258   0.08587   0.24829   0.00000  Uiso   1.00
F34    F     0.04077   0.24754   0.25132   0.00000  Uiso   1.00
H35    H     0.19135   0.23421   0.03157   0.00000  Uiso   1.00
H36    H     0.21621   0.03848   0.34687   0.00000  Uiso   1.00
H37    H     0.25519   0.03787   0.30653   0.00000  Uiso   1.00
H38    H     0.11114   0.24964   0.18983   0.00000  Uiso   1.00
H39    H     0.07885   0.29601   0.19090   0.00000  Uiso   1.00
H40    H     0.11959   0.29354   0.15251   0.00000  Uiso   1.00
H41    H     0.11115   0.08359   0.18968   0.00000  Uiso   1.00
H42    H     0.11714   0.03848   0.15312   0.00000  Uiso   1.00
H43    H     0.07815   0.03784   0.19345   0.00000  Uiso   1.00
H44    H     0.22220   0.24965   0.31016   0.00000  Uiso   1.00
H45    H     0.25446   0.29605   0.30916   0.00000  Uiso   1.00
H46    H     0.19368   0.10119   0.47273   0.00000  Uiso   1.00
H47    H     0.21369   0.29352   0.34750   0.00000  Uiso   1.00
H48    H     0.13973   0.23330   0.46815   0.00000  Uiso   1.00
H49    H     0.14132   0.10031   0.02739   0.00000  Uiso   1.00
H50    H     0.19077   0.23424   0.11259   0.00000  Uiso   1.00
H51    H     0.19314   0.10059   0.39170   0.00000  Uiso   1.00
H52    H     0.14048   0.23336   0.38711   0.00000  Uiso   1.00
H53    H     0.14204   0.09970   0.10841   0.00000  Uiso   1.00
H54    H     0.22218   0.08360   0.31032   0.00000  Uiso   1.00
N55    N     0.16667   0.28573   0.25000   0.00000  Uiso   1.00
N56    N     0.16667   0.04760   0.25000   0.00000  Uiso   1.00
O57    O     0.10559   0.20487   0.24999   0.00000  Uiso   1.00
O58    O     0.22774   0.12846   0.25000   0.00000  Uiso   1.00
O59    O     0.22774   0.20487   0.25000   0.00000  Uiso   1.00
O60    O     0.10559   0.12846   0.24999   0.00000  Uiso   1.00
O61    O     0.16666   0.20489   0.18453   0.00000  Uiso   1.00
O62    O     0.16667   0.12845   0.31547   0.00000  Uiso   1.00
O63    O     0.16667   0.20489   0.31547   0.00000  Uiso   1.00
O64    O     0.16666   0.12845   0.18453   0.00000  Uiso   1.00
Zn65   Zn    0.16667   0.21771   0.25000   0.00000  Uiso   1.00
Zn66   Zn    0.16667   0.11563   0.25000   0.00000  Uiso   1.00
C67    C     0.42011   0.16667   0.25019   0.00000  Uiso   1.00
C68    C     0.64552   0.20743   0.24973   0.00000  Uiso   1.00
C69    C     0.64550   0.12598   0.24947   0.00000  Uiso   1.00
C70    C     0.35450   0.20743   0.25045   0.00000  Uiso   1.00
C71    C     0.51343   0.20499   0.04820   0.00000  Uiso   1.00
C72    C     0.51491   0.12988   0.45414   0.00000  Uiso   1.00
C73    C     0.48520   0.20449   0.45160   0.00000  Uiso   1.00
C74    C     0.48591   0.12941   0.04590   0.00000  Uiso   1.00
C75    C     0.51324   0.20491   0.09420   0.00000  Uiso   1.00
C76    C     0.51472   0.12959   0.40814   0.00000  Uiso   1.00
C77    C     0.48550   0.20443   0.40562   0.00000  Uiso   1.00
C78    C     0.57990   0.16667   0.24982   0.00000  Uiso   1.00
C79    C     0.48621   0.12912   0.09190   0.00000  Uiso   1.00
C80    C     0.49980   0.16688   0.11609   0.00000  Uiso   1.00
C81    C     0.50010   0.16688   0.38386   0.00000  Uiso   1.00
C82    C     0.49972   0.16725   0.02403   0.00000  Uiso   1.00
C83    C     0.49997   0.16724   0.47589   0.00000  Uiso   1.00
C84    C     0.62411   0.16670   0.24952   0.00000  Uiso   1.00
C85    C     0.37590   0.16669   0.25049   0.00000  Uiso   1.00
C86    C     0.55627   0.04747   0.31228   0.00000  Uiso   1.00
C87    C     0.44459   0.28569   0.18689   0.00000  Uiso   1.00
C88    C     0.44374   0.04746   0.18772   0.00000  Uiso   1.00
C89    C     0.49987   0.16670   0.16406   0.00000  Uiso   1.00
C90    C     0.55539   0.28570   0.31313   0.00000  Uiso   1.00
C91    C     0.50012   0.16670   0.33592   0.00000  Uiso   1.00
C92    C     0.52633   0.02388   0.27929   0.00000  Uiso   1.00
C93    C     0.47380   0.30940   0.22057   0.00000  Uiso   1.00
C94    C     0.47367   0.02388   0.22071   0.00000  Uiso   1.00
C95    C     0.52620   0.30941   0.27943   0.00000  Uiso   1.00
C96    C     0.35448   0.12598   0.25040   0.00000  Uiso   1.00
F97    F     0.37405   0.08586   0.25144   0.00000  Uiso   1.00
F98    F     0.62594   0.24755   0.24902   0.00000  Uiso   1.00
F99    F     0.62591   0.08587   0.24829   0.00000  Uiso   1.00
F100   F     0.37410   0.24754   0.25132   0.00000  Uiso   1.00
H101   H     0.52468   0.23421   0.03157   0.00000  Uiso   1.00
H102   H     0.54954   0.03848   0.34687   0.00000  Uiso   1.00
H103   H     0.58852   0.03787   0.30653   0.00000  Uiso   1.00
H104   H     0.44447   0.24964   0.18983   0.00000  Uiso   1.00
H105   H     0.41218   0.29601   0.19090   0.00000  Uiso   1.00
H106   H     0.45292   0.29354   0.15251   0.00000  Uiso   1.00
H107   H     0.44449   0.08359   0.18968   0.00000  Uiso   1.00
H108   H     0.45047   0.03848   0.15312   0.00000  Uiso   1.00
H109   H     0.41148   0.03784   0.19345   0.00000  Uiso   1.00
H110   H     0.55553   0.24965   0.31016   0.00000  Uiso   1.00
H111   H     0.58780   0.29605   0.30916   0.00000  Uiso   1.00
H112   H     0.52701   0.10119   0.47273   0.00000  Uiso   1.00
H113   H     0.54702   0.29352   0.34750   0.00000  Uiso   1.00
H114   H     0.47306   0.23330   0.46815   0.00000  Uiso   1.00
H115   H     0.47465   0.10031   0.02739   0.00000  Uiso   1.00
H116   H     0.52411   0.23424   0.11259   0.00000  Uiso   1.00
H117   H     0.52648   0.10059   0.39170   0.00000  Uiso   1.00
H118   H     0.47381   0.23336   0.38711   0.00000  Uiso   1.00
H119   H     0.47538   0.09970   0.10841   0.00000  Uiso   1.00
H120   H     0.55551   0.08360   0.31032   0.00000  Uiso   1.00
N121   N     0.50000   0.28573   0.25000   0.00000  Uiso   1.00
N122   N     0.50000   0.04760   0.25000   0.00000  Uiso   1.00
O123   O     0.43892   0.20487   0.24999   0.00000  Uiso   1.00
O124   O     0.56108   0.12846   0.25000   0.00000  Uiso   1.00
O125   O     0.56108   0.20487   0.25000   0.00000  Uiso   1.00
O126   O     0.43892   0.12846   0.24999   0.00000  Uiso   1.00
O127   O     0.50000   0.20489   0.18453   0.00000  Uiso   1.00
O128   O     0.50000   0.12845   0.31547   0.00000  Uiso   1.00
O129   O     0.50000   0.20489   0.31547   0.00000  Uiso   1.00
O130   O     0.50000   0.12845   0.18453   0.00000  Uiso   1.00
Zn131  Zn    0.50000   0.21771   0.25000   0.00000  Uiso   1.00
Zn132  Zn    0.50000   0.11563   0.25000   0.00000  Uiso   1.00
C133   C     0.75344   0.16667   0.25019   0.00000  Uiso   1.00
C134   C     0.97885   0.20743   0.24973   0.00000  Uiso   1.00
C135   C     0.97883   0.12598   0.24947   0.00000  Uiso   1.00
C136   C     0.68784   0.20743   0.25045   0.00000  Uiso   1.00
C137   C     0.84676   0.20499   0.04820   0.00000  Uiso   1.00
C138   C     0.84825   0.12988   0.45414   0.00000  Uiso   1.00
C139   C     0.81853   0.20449   0.45160   0.00000  Uiso   1.00
C140   C     0.81925   0.12941   0.04590   0.00000  Uiso   1.00
C141   C     0.84657   0.20491   0.09420   0.00000  Uiso   1.00
C142   C     0.84806   0.12959   0.40814   0.00000  Uiso   1.00
C143   C     0.81884   0.20443   0.40562   0.00000  Uiso   1.00
C144   C     0.91323   0.16667   0.24982   0.00000  Uiso   1.00
C145   C     0.81954   0.12912   0.09190   0.00000  Uiso   1.00
C146   C     0.83313   0.16688   0.11609   0.00000  Uiso   1.00
C147   C     0.83343   0.16688   0.38386   0.00000  Uiso   1.00
C148   C     0.83305   0.16725   0.02403   0.00000  Uiso   1.00
C149   C     0.83330   0.16724   0.47589   0.00000  Uiso   1.00
C150   C     0.95744   0.16670   0.24952   0.00000  Uiso   1.00
C151   C     0.70923   0.16669   0.25049   0.00000  Uiso   1.00
C152   C     0.88960   0.04747   0.31228   0.00000  Uiso   1.00
C153   C     0.77792   0.28569   0.18689   0.00000  Uiso   1.00
C154   C     0.77707   0.04746   0.18772   0.00000  Uiso   1.00
C155   C     0.83320   0.16670   0.16406   0.00000  Uiso   1.00
C156   C     0.88873   0.28570   0.31313   0.00000  Uiso   1.00
C157   C     0.83345   0.16670   0.33592   0.00000  Uiso   1.00
C158   C     0.85967   0.02388   0.27929   0.00000  Uiso   1.00
C159   C     0.80713   0.30940   0.22057   0.00000  Uiso   1.00
C160   C     0.80700   0.02388   0.22071   0.00000  Uiso   1.00
C161   C     0.85953   0.30941   0.27943   0.00000  Uiso   1.00
C162   C     0.68782   0.12598   0.25040   0.00000  Uiso   1.00
F163   F     0.70739   0.08586   0.25144   0.00000  Uiso   1.00
F164   F     0.95928   0.24755   0.24902   0.00000  Uiso   1.00
F165   F     0.95924   0.08587   0.24829   0.00000  Uiso   1.00
F166   F     0.70743   0.24754   0.25132   0.00000  Uiso   1.00
H167   H     0.85801   0.23421   0.03157   0.00000  Uiso   1.00
H168   H     0.88288   0.03848   0.34687   0.00000  Uiso   1.00
H169   H     0.92186   0.03787   0.30653   0.00000  Uiso   1.00
H170   H     0.77781   0.24964   0.18983   0.00000  Uiso   1.00
H171   H     0.74552   0.29601   0.19090   0.00000  Uiso   1.00
H172   H     0.78625   0.29354   0.15251   0.00000  Uiso   1.00
H173   H     0.77782   0.08359   0.18968   0.00000  Uiso   1.00
H174   H     0.78381   0.03848   0.15312   0.00000  Uiso   1.00
H175   H     0.74482   0.03784   0.19345   0.00000  Uiso   1.00
H176   H     0.88887   0.24965   0.31016   0.00000  Uiso   1.00
H177   H     0.92113   0.29605   0.30916   0.00000  Uiso   1.00
H178   H     0.86035   0.10119   0.47273   0.00000  Uiso   1.00
H179   H     0.88035   0.29352   0.34750   0.00000  Uiso   1.00
H180   H     0.80639   0.23330   0.46815   0.00000  Uiso   1.00
H181   H     0.80798   0.10031   0.02739   0.00000  Uiso   1.00
H182   H     0.85744   0.23424   0.11259   0.00000  Uiso   1.00
H183   H     0.85981   0.10059   0.39170   0.00000  Uiso   1.00
H184   H     0.80715   0.23336   0.38711   0.00000  Uiso   1.00
H185   H     0.80871   0.09970   0.10841   0.00000  Uiso   1.00
H186   H     0.88884   0.08360   0.31032   0.00000  Uiso   1.00
N187   N     0.83333   0.28573   0.25000   0.00000  Uiso   1.00
N188   N     0.83333   0.04760   0.25000   0.00000  Uiso   1.00
O189   O     0.77226   0.20487   0.24999   0.00000  Uiso   1.00
O190   O     0.89441   0.12846   0.25000   0.00000  Uiso   1.00
O191   O     0.89441   0.20487   0.25000   0.00000  Uiso   1.00
O192   O     0.77226   0.12846   0.24999   0.00000  Uiso   1.00
O193   O     0.83333   0.20489   0.18453   0.00000  Uiso   1.00
O194   O     0.83334   0.12845   0.31547   0.00000  Uiso   1.00
O195   O     0.83334   0.20489   0.31547   0.00000  Uiso   1.00
O196   O     0.83333   0.12845   0.18453   0.00000  Uiso   1.00
Zn197  Zn    0.83333   0.21771   0.25000   0.00000  Uiso   1.00
Zn198  Zn    0.83333   0.11563   0.25000   0.00000  Uiso   1.00
C199   C     0.08677   0.50000   0.25019   0.00000  Uiso   1.00
C200   C     0.31219   0.54076   0.24973   0.00000  Uiso   1.00
C201   C     0.31217   0.45931   0.24947   0.00000  Uiso   1.00
C202   C     0.02117   0.54076   0.25045   0.00000  Uiso   1.00
C203   C     0.18009   0.53833   0.04820   0.00000  Uiso   1.00
C204   C     0.18158   0.46322   0.45414   0.00000  Uiso   1.00
C205   C     0.15187   0.53783   0.45160   0.00000  Uiso   1.00
C206   C     0.15258   0.46274   0.04590   0.00000  Uiso   1.00
C207   C     0.17990   0.53825   0.09420   0.00000  Uiso   1.00
C208   C     0.18139   0.46293   0.40814   0.00000  Uiso   1.00
C209   C     0.15217   0.53776   0.40562   0.00000  Uiso   1.00
C210   C     0.24656   0.50001   0.24982   0.00000  Uiso   1.00
C211   C     0.15288   0.46245   0.09190   0.00000  Uiso   1.00
C212   C     0.16646   0.50021   0.11609   0.00000  Uiso   1.00
C213   C     0.16676   0.50021   0.38386   0.00000  Uiso   1.00
C214   C     0.16638   0.50059   0.02403   0.00000  Uiso   1.00
C215   C     0.16663   0.50057   0.47589   0.00000  Uiso   1.00
C216   C     0.29077   0.50003   0.24952   0.00000  Uiso   1.00
C217   C     0.04256   0.50003   0.25049   0.00000  Uiso   1.00
C218   C     0.22293   0.38081   0.31228   0.00000  Uiso   1.00
C219   C     0.11125   0.61902   0.18689   0.00000  Uiso   1.00
C220   C     0.11041   0.38079   0.18772   0.00000  Uiso   1.00
C221   C     0.16653   0.50003   0.16406   0.00000  Uiso   1.00
C222   C     0.22206   0.61903   0.31313   0.00000  Uiso   1.00
C223   C     0.16679   0.50003   0.33592   0.00000  Uiso   1.00
C224   C     0.19300   0.35722   0.27929   0.00000  Uiso   1.00
C225   C     0.14047   0.64274   0.22057   0.00000  Uiso   1.00
C226   C     0.14033   0.35721   0.22071   0.00000  Uiso   1.00
C227   C     0.19286   0.64274   0.27943   0.00000  Uiso   1.00
C228   C     0.02115   0.45931   0.25040   0.00000  Uiso   1.00
F229   F     0.04072   0.41919   0.25144   0.00000  Uiso   1.00
F230   F     0.29261   0.58088   0.24902   0.00000  Uiso   1.00
F231   F     0.29258   0.41920   0.24829   0.00000  Uiso   1.00
F232   F     0.04077   0.58088   0.25132   0.00000  Uiso   1.00
H233   H     0.19135   0.56754   0.03157   0.00000  Uiso   1.00
H234   H     0.21621   0.37181   0.34687   0.00000  Uiso   1.00
H235   H     0.25519   0.37120   0.30653   0.00000  Uiso   1.00
H236   H     0.11114   0.58297   0.18983   0.00000  Uiso   1.00
H237   H     0.07885   0.62934   0.19090   0.00000  Uiso   1.00
H238   H     0.11959   0.62687   0.15251   0.00000  Uiso   1.00
H239   H     0.11115   0.41692   0.18968   0.00000  Uiso   1.00
H240   H     0.11714   0.37181   0.15312   0.00000  Uiso   1.00
H241   H     0.07815   0.37117   0.19345   0.00000  Uiso   1.00
H242   H     0.22220   0.58298   0.31016   0.00000  Uiso   1.00
H243   H     0.25446   0.62939   0.30916   0.00000  Uiso   1.00
H244   H     0.19368   0.43452   0.47273   0.00000  Uiso   1.00
H245   H     0.21369   0.62685   0.34750   0.00000  Uiso   1.00
H246   H     0.13973   0.56664   0.46815   0.00000  Uiso   1.00
H247   H     0.14132   0.43364   0.02739   0.00000  Uiso   1.00
H248   H     0.19077   0.56758   0.11259   0.00000  Uiso   1.00
H249   H     0.19314   0.43392   0.39170   0.00000  Uiso   1.00
H250   H     0.14048   0.56669   0.38711   0.00000  Uiso   1.00
H251   H     0.14204   0.43303   0.10841   0.00000  Uiso   1.00
H252   H     0.22218   0.41693   0.31032   0.00000  Uiso   1.00
N253   N     0.16667   0.61907   0.25000   0.00000  Uiso   1.00
N254   N     0.16667   0.38093   0.25000   0.00000  Uiso   1.00
O255   O     0.10559   0.53821   0.24999   0.00000  Uiso   1.00
O256   O     0.22774   0.46179   0.25000   0.00000  Uiso   1.00
O257   O     0.22774   0.53821   0.25000   0.00000  Uiso   1.00
O258   O     0.10559   0.46179   0.24999   0.00000  Uiso   1.00
O259   O     0.16666   0.53822   0.18453   0.00000  Uiso   1.00
O260   O     0.16667   0.46178   0.31547   0.00000  Uiso   1.00
O261   O     0.16667   0.53822   0.31547   0.00000  Uiso   1.00
O262   O     0.16666   0.46178   0.18453   0.00000  Uiso   1.00
Zn263  Zn    0.16667   0.55104   0.25000   0.00000  Uiso   1.00
Zn264  Zn    0.16667   0.44896   0.25000   0.00000  Uiso   1.00
C265   C     0.42011   0.50000   0.25019   0.00000  Uiso   1.00
C266   C     0.64552   0.54076   0.24973   0.00000  Uiso   1.00
C267   C     0.64550   0.45931   0.24947   0.00000  Uiso   1.00
C268   C     0.35450   0.54076   0.25045   0.00000  Uiso   1.00
C269   C     0.51343   0.53833   0.04820   0.00000  Uiso   1.00
C270   C     0.51491   0.46322   0.45414   0.00000  Uiso   1.00
C271   C     0.48520   0.53783   0.45160   0.00000  Uiso   1.00
C272   C     0.48591   0.46274   0.04590   0.00000  Uiso   1.00
C273   C     0.51324   0.53825   0.09420   0.00000  Uiso   1.00
C274   C     0.51472   0.46293   0.40814   0.00000  Uiso   1.00
C275   C     0.48550   0.53776   0.40562   0.00000  Uiso   1.00
C276   C     0.57990   0.50001   0.24982   0.00000  Uiso   1.00
C277   C     0.48621   0.46245   0.09190   0.00000  Uiso   1.00
C278   C     0.49980   0.50021   0.11609   0.00000  Uiso   1.00
C279   C     0.50010   0.50021   0.38386   0.00000  Uiso   1.00
C280   C     0.49972   0.50059   0.02403   0.00000  Uiso   1.00
C281   C     0.49997   0.50057   0.47589   0.00000  Uiso   1.00
C282   C     0.62411   0.50003   0.24952   0.00000  Uiso   1.00
C283   C     0.37590   0.50003   0.25049   0.00000  Uiso   1.00
C284   C     0.55627   0.38081   0.31228   0.00000  Uiso   1.00
C285   C     0.44459   0.61902   0.18689   0.00000  Uiso   1.00
C286   C     0.44374   0.38079   0.18772   0.00000  Uiso   1.00
C287   C     0.49987   0.50003   0.16406   0.00000  Uiso   1.00
C288   C     0.55539   0.61903   0.31313   0.00000  Uiso   1.00
C289   C     0.50012   0.50003   0.33592   0.00000  Uiso   1.00
C290   C     0.52633   0.35722   0.27929   0.00000  Uiso   1.00
C291   C     0.47380   0.64274   0.22057   0.00000  Uiso   1.00
C292   C     0.47367   0.35721   0.22071   0.00000  Uiso   1.00
C293   C     0.52620   0.64274   0.27943   0.00000  Uiso   1.00
C294   C     0.35448   0.45931   0.25040   0.00000  Uiso   1.00
F295   F     0.37405   0.41919   0.25144   0.00000  Uiso   1.00
F296   F     0.62594   0.58088   0.24902   0.00000  Uiso   1.00
F297   F     0.62591   0.41920   0.24829   0.00000  Uiso   1.00
F298   F     0.37410   0.58088   0.25132   0.00000  Uiso   1.00
H299   H     0.52468   0.56754   0.03157   0.00000  Uiso   1.00
H300   H     0.54954   0.37181   0.34687   0.00000  Uiso   1.00
H301   H     0.58852   0.37120   0.30653   0.00000  Uiso   1.00
H302   H     0.44447   0.58297   0.18983   0.00000  Uiso   1.00
H303   H     0.41218   0.62934   0.19090   0.00000  Uiso   1.00
H304   H     0.45292   0.62687   0.15251   0.00000  Uiso   1.00
H305   H     0.44449   0.41692   0.18968   0.00000  Uiso   1.00
H306   H     0.45047   0.37181   0.15312   0.00000  Uiso   1.00
H307   H     0.41148   0.37117   0.19345   0.00000  Uiso   1.00
H308   H     0.55553   0.58298   0.31016   0.00000  Uiso   1.00
H309   H     0.58780   0.62939   0.30916   0.00000  Uiso   1.00
H310   H     0.52701   0.43452   0.47273   0.00000  Uiso   1.00
H311   H     0.54702   0.62685   0.34750   0.00000  Uiso   1.00
H312   H     0.47306   0.56664   0.46815   0.00000  Uiso   1.00
H313   H     0.47465   0.43364   0.02739   0.00000  Uiso   1.00
H314   H     0.52411   0.56758   0.11259   0.00000  Uiso   1.00
H315   H     0.52648   0.43392   0.39170   0.00000  Uiso   1.00
H316   H     0.47381   0.56669   0.38711   0.00000  Uiso   1.00
H317   H     0.47538   0.43303   0.10841   0.00000  Uiso   1.00
H318   H     0.55551   0.41693   0.31032   0.00000  Uiso   1.00
N319   N     0.50000   0.61907   0.25000   0.00000  Uiso   1.00
N320   N     0.50000   0.38093   0.25000   0.00000  Uiso   1.00
O321   O     0.43892   0.53821   0.24999   0.00000  Uiso   1.00
O322   O     0.56108   0.46179   0.25000   0.00000  Uiso   1.00
O323   O     0.56108   0.53821   0.25000   0.00000  Uiso   1.00
O324   O     0.43892   0.46179   0.24999   0.00000  Uiso   1.00
O325   O     0.50000   0.53822   0.18453   0.00000  Uiso   1.00
O326   O     0.50000   0.46178   0.31547   0.00000  Uiso   1.00
O327   O     0.50000   0.53822   0.31547   0.00000  Uiso   1.00
O328   O     0.50000   0.46178   0.18453   0.00000  Uiso   1.00
Zn329  Zn    0.50000   0.55104   0.25000   0.00000  Uiso   1.00
Zn330  Zn    0.50000   0.44896   0.25000   0.00000  Uiso   1.00
C331   C     0.75344   0.50000   0.25019   0.00000  Uiso   1.00
C332   C     0.97885   0.54076   0.24973   0.00000  Uiso   1.00
C333   C     0.97883   0.45931   0.24947   0.00000  Uiso   1.00
C334   C     0.68784   0.54076   0.25045   0.00000  Uiso   1.00
C335   C     0.84676   0.53833   0.04820   0.00000  Uiso   1.00
C336   C     0.84825   0.46322   0.45414   0.00000  Uiso   1.00
C337   C     0.81853   0.53783   0.45160   0.00000  Uiso   1.00
C338   C     0.81925   0.46274   0.04590   0.00000  Uiso   1.00
C339   C     0.84657   0.53825   0.09420   0.00000  Uiso   1.00
C340   C     0.84806   0.46293   0.40814   0.00000  Uiso   1.00
C341   C     0.81884   0.53776   0.40562   0.00000  Uiso   1.00
C342   C     0.91323   0.50001   0.24982   0.00000  Uiso   1.00
C343   C     0.81954   0.46245   0.09190   0.00000  Uiso   1.00
C344   C     0.83313   0.50021   0.11609   0.00000  Uiso   1.00
C345   C     0.83343   0.50021   0.38386   0.00000  Uiso   1.00
C346   C     0.83305   0.50059   0.02403   0.00000  Uiso   1.00
C347   C     0.83330   0.50057   0.47589   0.00000  Uiso   1.00
C348   C     0.95744   0.50003   0.24952   0.00000  Uiso   1.00
C349   C     0.70923   0.50003   0.25049   0.00000  Uiso   1.00
C350   C     0.88960   0.38081   0.31228   0.00000  Uiso   1.00
C351   C     0.77792   0.61902   0.18689   0.00000  Uiso   1.00
C352   C     0.77707   0.38079   0.18772   0.00000  Uiso   1.00
C353   C     0.83320   0.50003   0.16406   0.00000  Uiso   1.00
C354   C     0.88873   0.61903   0.31313   0.00000  Uiso   1.00
C355   C     0.83345   0.50003   0.33592   0.00000  Uiso   1.00
C356   C     0.85967   0.35722   0.27929   0.00000  Uiso   1.00
C357   C     0.80713   0.64274   0.22057   0.00000  Uiso   1.00
C358   C     0.80700   0.35721   0.22071   0.00000  Uiso   1.00
C359   C     0.85953   0.64274   0.27943   0.00000  Uiso   1.00
C360   C     0.68782   0.45931   0.25040   0.00000  Uiso   1.00
F361   F     0.70739   0.41919   0.25144   0.00000  Uiso   1.00
F362   F     0.95928   0.58088   0.24902   0.00000  Uiso   1.00
F363   F     0.95924   0.41920   0.24829   0.00000  Uiso   1.00
F364   F     0.70743   0.58088   0.25132   0.00000  Uiso   1.00
H365   H     0.85801   0.56754   0.03157   0.00000  Uiso   1.00
H366   H     0.88288   0.37181   0.34687   0.00000  Uiso   1.00
H367   H     0.92186   0.37120   0.30653   0.00000  Uiso   1.00
H368   H     0.77781   0.58297   0.18983   0.00000  Uiso   1.00
H369   H     0.74552   0.62934   0.19090   0.00000  Uiso   1.00
H370   H     0.78625   0.62687   0.15251   0.00000  Uiso   1.00
H371   H     0.77782   0.41692   0.18968   0.00000  Uiso   1.00
H372   H     0.78381   0.37181   0.15312   0.00000  Uiso   1.00
H373   H     0.74482   0.37117   0.19345   0.00000  Uiso   1.00
H374   H     0.88887   0.58298   0.31016   0.00000  Uiso   1.00
H375   H     0.92113   0.62939   0.30916   0.00000  Uiso   1.00
H376   H     0.86035   0.43452   0.47273   0.00000  Uiso   1.00
H377   H     0.88035   0.62685   0.34750   0.00000  Uiso   1.00
H378   H     0.80639   0.56664   0.46815   0.00000  Uiso   1.00
H379   H     0.80798   0.43364   0.02739   0.00000  Uiso   1.00
H380   H     0.85744   0.56758   0.11259   0.00000  Uiso   1.00
H381   H     0.85981   0.43392   0.39170   0.00000  Uiso   1.00
H382   H     0.80715   0.56669   0.38711   0.00000  Uiso   1.00
H383   H     0.80871   0.43303   0.10841   0.00000  Uiso   1.00
H384   H     0.88884   0.41693   0.31032   0.00000  Uiso   1.00
N385   N     0.83333   0.61907   0.25000   0.00000  Uiso   1.00
N386   N     0.83333   0.38093   0.25000   0.00000  Uiso   1.00
O387   O     0.77226   0.53821   0.24999   0.00000  Uiso   1.00
O388   O     0.89441   0.46179   0.25000   0.00000  Uiso   1.00
O389   O     0.89441   0.53821   0.25000   0.00000  Uiso   1.00
O390   O     0.77226   0.46179   0.24999   0.00000  Uiso   1.00
O391   O     0.83333   0.53822   0.18453   0.00000  Uiso   1.00
O392   O     0.83334   0.46178   0.31547   0.00000  Uiso   1.00
O393   O     0.83334   0.53822   0.31547   0.00000  Uiso   1.00
O394   O     0.83333   0.46178   0.18453   0.00000  Uiso   1.00
Zn395  Zn    0.83333   0.55104   0.25000   0.00000  Uiso   1.00
Zn396  Zn    0.83333   0.44896   0.25000   0.00000  Uiso   1.00
C397   C     0.08677   0.83334   0.25019   0.00000  Uiso   1.00
C398   C     0.31219   0.87410   0.24973   0.00000  Uiso   1.00
C399   C     0.31217   0.79265   0.24947   0.00000  Uiso   1.00
C400   C     0.02117   0.87409   0.25045   0.00000  Uiso   1.00
C401   C     0.18009   0.87166   0.04820   0.00000  Uiso   1.00
C402   C     0.18158   0.79655   0.45414   0.00000  Uiso   1.00
C403   C     0.15187   0.87116   0.45160   0.00000  Uiso   1.00
C404   C     0.15258   0.79607   0.04590   0.00000  Uiso   1.00
C405   C     0.17990   0.87158   0.09420   0.00000  Uiso   1.00
C406   C     0.18139   0.79626   0.40814   0.00000  Uiso   1.00
C407   C     0.15217   0.87110   0.40562   0.00000  Uiso   1.00
C408   C     0.24656   0.83334   0.24982   0.00000  Uiso   1.00
C409   C     0.15288   0.79579   0.09190   0.00000  Uiso   1.00
C410   C     0.16646   0.83355   0.11609   0.00000  Uiso   1.00
C411   C     0.16676   0.83354   0.38386   0.00000  Uiso   1.00
C412   C     0.16638   0.83392   0.02403   0.00000  Uiso   1.00
C413   C     0.16663   0.83391   0.47589   0.00000  Uiso   1.00
C414   C     0.29077   0.83336   0.24952   0.00000  Uiso   1.00
C415   C     0.04256   0.83336   0.25049   0.00000  Uiso   1.00
C416   C     0.22293   0.71414   0.31228   0.00000  Uiso   1.00
C417   C     0.11125   0.95235   0.18689   0.00000  Uiso   1.00
C418   C     0.11041   0.71413   0.18772   0.00000  Uiso   1.00
C419   C     0.16653   0.83336   0.16406   0.00000  Uiso   1.00
C420   C     0.22206   0.95237   0.31313   0.00000  Uiso   1.00
C421   C     0.16679   0.83336   0.33592   0.00000  Uiso   1.00
C422   C     0.19300   0.69055   0.27929   0.00000  Uiso   1.00
C423   C     0.14047   0.97607   0.22057   0.00000  Uiso   1.00
C424   C     0.14033   0.69054   0.22071   0.00000  Uiso   1.00
C425   C     0.19286   0.97608   0.27943   0.00000  Uiso   1.00
C426   C     0.02115   0.79264   0.25040   0.00000  Uiso   1.00
F427   F     0.04072   0.75253   0.25144   0.00000  Uiso   1.00
F428   F     0.29261   0.91422   0.24902   0.00000  Uiso   1.00
F429   F     0.29258   0.75253   0.24829   0.00000  Uiso   1.00
F430   F     0.04077   0.91421   0.25132   0.00000  Uiso   1.00
H431   H     0.19135   0.90087   0.03157   0.00000  Uiso   1.00
H432   H     0.21621   0.70514   0.34687   0.00000  Uiso   1.00
H433   H     0.25519   0.70454   0.30653   0.00000  Uiso   1.00
H434   H     0.11114   0.91630   0.18983   0.00000  Uiso   1.00
H435   H     0.07885   0.96267   0.19090   0.00000  Uiso   1.00
H436   H     0.11959   0.96020   0.15251   0.00000  Uiso   1.00
H437   H     0.11115   0.75025   0.18968   0.00000  Uiso   1.00
H438   H     0.11714   0.70514   0.15312   0.00000  Uiso   1.00
H439   H     0.07815   0.70450   0.19345   0.00000  Uiso   1.00
H440   H     0.22220   0.91632   0.31016   0.00000  Uiso   1.00
H441   H     0.25446   0.96272   0.30916   0.00000  Uiso   1.00
H442   H     0.19368   0.76786   0.47273   0.00000  Uiso   1.00
H443   H     0.21369   0.96019   0.34750   0.00000  Uiso   1.00
H444   H     0.13973   0.89997   0.46815   0.00000  Uiso   1.00
H445   H     0.14132   0.76697   0.02739   0.00000  Uiso   1.00
H446   H     0.19077   0.90091   0.11259   0.00000  Uiso   1.00
H447   H     0.19314   0.76725   0.39170   0.00000  Uiso   1.00
H448   H     0.14048   0.90002   0.38711   0.00000  Uiso   1.00
H449   H     0.14204   0.76636   0.10841   0.00000  Uiso   1.00
H450   H     0.22218   0.75027   0.31032   0.00000  Uiso   1.00
N451   N     0.16667   0.95240   0.25000   0.00000  Uiso   1.00
N452   N     0.16667   0.71427   0.25000   0.00000  Uiso   1.00
O453   O     0.10559   0.87154   0.24999   0.00000  Uiso   1.00
O454   O     0.22774   0.79513   0.25000   0.00000  Uiso   1.00
O455   O     0.22774   0.87154   0.25000   0.00000  Uiso   1.00
O456   O     0.10559   0.79513   0.24999   0.00000  Uiso   1.00
O457   O     0.16666   0.87155   0.18453   0.00000  Uiso   1.00
O458   O     0.16667   0.79511   0.31547   0.00000  Uiso   1.00
O459   O     0.16667   0.87155   0.31547   0.00000  Uiso   1.00
O460   O     0.16666   0.79511   0.18453   0.00000  Uiso   1.00
Zn461  Zn    0.16667   0.88437   0.25000   0.00000  Uiso   1.00
Zn462  Zn    0.16667   0.78229   0.25000   0.00000  Uiso   1.00
C463   C     0.42011   0.83334   0.25019   0.00000  Uiso   1.00
C464   C     0.64552   0.87410   0.24973   0.00000  Uiso   1.00
C465   C     0.64550   0.79265   0.24947   0.00000  Uiso   1.00
C466   C     0.35450   0.87409   0.25045   0.00000  Uiso   1.00
C467   C     0.51343   0.87166   0.04820   0.00000  Uiso   1.00
C468   C     0.51491   0.79655   0.45414   0.00000  Uiso   1.00
C469   C     0.48520   0.87116   0.45160   0.00000  Uiso   1.00
C470   C     0.48591   0.79607   0.04590   0.00000  Uiso   1.00
C471   C     0.51324   0.87158   0.09420   0.00000  Uiso   1.00
C472   C     0.51472   0.79626   0.40814   0.00000  Uiso   1.00
C473   C     0.48550   0.87110   0.40562   0.00000  Uiso   1.00
C474   C     0.57990   0.83334   0.24982   0.00000  Uiso   1.00
C475   C     0.48621   0.79579   0.09190   0.00000  Uiso   1.00
C476   C     0.49980   0.83355   0.11609   0.00000  Uiso   1.00
C477   C     0.50010   0.83354   0.38386   0.00000  Uiso   1.00
C478   C     0.49972   0.83392   0.02403   0.00000  Uiso   1.00
C479   C     0.49997   0.83391   0.47589   0.00000  Uiso   1.00
C480   C     0.62411   0.83336   0.24952   0.00000  Uiso   1.00
C481   C     0.37590   0.83336   0.25049   0.00000  Uiso   1.00
C482   C     0.55627   0.71414   0.31228   0.00000  Uiso   1.00
C483   C     0.44459   0.95235   0.18689   0.00000  Uiso   1.00
C484   C     0.44374   0.71413   0.18772   0.00000  Uiso   1.00
C485   C     0.49987   0.83336   0.16406   0.00000  Uiso   1.00
C486   C     0.55539   0.95237   0.31313   0.00000  Uiso   1.00
C487   C     0.50012   0.83336   0.33592   0.00000  Uiso   1.00
C488   C     0.52633   0.69055   0.27929   0.00000  Uiso   1.00
C489   C     0.47380   0.97607   0.22057   0.00000  Uiso   1.00
C490   C     0.47367   0.69054   0.22071   0.00000  Uiso   1.00
C491   C     0.52620   0.97608   0.27943   0.00000  Uiso   1.00
C492   C     0.35448   0.79264   0.25040   0.00000  Uiso   1.00
F493   F     0.37405   0.75253   0.25144   0.00000  Uiso   1.00
F494   F     0.62594   0.91422   0.24902   0.00000  Uiso   1.00
F495   F     0.62591   0.75253   0.24829   0.00000  Uiso   1.00
F496   F     0.37410   0.91421   0.25132   0.00000  Uiso   1.00
H497   H     0.52468   0.90087   0.03157   0.00000  Uiso   1.00
H498   H     0.54954   0.70514   0.34687   0.00000  Uiso   1.00
H499   H     0.58852   0.70454   0.30653   0.00000  Uiso   1.00
H500   H     0.44447   0.91630   0.18983   0.00000  Uiso   1.00
H501   H     0.41218   0.96267   0.19090   0.00000  Uiso   1.00
H502   H     0.45292   0.96020   0.15251   0.00000  Uiso   1.00
H503   H     0.44449   0.75025   0.18968   0.00000  Uiso   1.00
H504   H     0.45047   0.70514   0.15312   0.00000  Uiso   1.00
H505   H     0.41148   0.70450   0.19345   0.00000  Uiso   1.00
H506   H     0.55553   0.91632   0.31016   0.00000  Uiso   1.00
H507   H     0.58780   0.96272   0.30916   0.00000  Uiso   1.00
H508   H     0.52701   0.76786   0.47273   0.00000  Uiso   1.00
H509   H     0.54702   0.96019   0.34750   0.00000  Uiso   1.00
H510   H     0.47306   0.89997   0.46815   0.00000  Uiso   1.00
H511   H     0.47465   0.76697   0.02739   0.00000  Uiso   1.00
H512   H     0.52411   0.90091   0.11259   0.00000  Uiso   1.00
H513   H     0.52648   0.76725   0.39170   0.00000  Uiso   1.00
H514   H     0.47381   0.90002   0.38711   0.00000  Uiso   1.00
H515   H     0.47538   0.76636   0.10841   0.00000  Uiso   1.00
H516   H     0.55551   0.75027   0.31032   0.00000  Uiso   1.00
N517   N     0.50000   0.95240   0.25000   0.00000  Uiso   1.00
N518   N     0.50000   0.71427   0.25000   0.00000  Uiso   1.00
O519   O     0.43892   0.87154   0.24999   0.00000  Uiso   1.00
O520   O     0.56108   0.79513   0.25000   0.00000  Uiso   1.00
O521   O     0.56108   0.87154   0.25000   0.00000  Uiso   1.00
O522   O     0.43892   0.79513   0.24999   0.00000  Uiso   1.00
O523   O     0.50000   0.87155   0.18453   0.00000  Uiso   1.00
O524   O     0.50000   0.79511   0.31547   0.00000  Uiso   1.00
O525   O     0.50000   0.87155   0.31547   0.00000  Uiso   1.00
O526   O     0.50000   0.79511   0.18453   0.00000  Uiso   1.00
Zn527  Zn    0.50000   0.88437   0.25000   0.00000  Uiso   1.00
Zn528  Zn    0.50000   0.78229   0.25000   0.00000  Uiso   1.00
C529   C     0.75344   0.83334   0.25019   0.00000  Uiso   1.00
C530   C     0.97885   0.87410   0.24973   0.00000  Uiso   1.00
C531   C     0.97883   0.79265   0.24947   0.00000  Uiso   1.00
C532   C     0.68784   0.87409   0.25045   0.00000  Uiso   1.00
C533   C     0.84676   0.87166   0.04820   0.00000  Uiso   1.00
C534   C     0.84825   0.79655   0.45414   0.00000  Uiso   1.00
C535   C     0.81853   0.87116   0.45160   0.00000  Uiso   1.00
C536   C     0.81925   0.79607   0.04590   0.00000  Uiso   1.00
C537   C     0.84657   0.87158   0.09420   0.00000  Uiso   1.00
C538   C     0.84806   0.79626   0.40814   0.00000  Uiso   1.00
C539   C     0.81884   0.87110   0.40562   0.00000  Uiso   1.00
C540   C     0.91323   0.83334   0.24982   0.00000  Uiso   1.00
C541   C     0.81954   0.79579   0.09190   0.00000  Uiso   1.00
C542   C     0.83313   0.83355   0.11609   0.00000  Uiso   1.00
C543   C     0.83343   0.83354   0.38386   0.00000  Uiso   1.00
C544   C     0.83305   0.83392   0.02403   0.00000  Uiso   1.00
C545   C     0.83330   0.83391   0.47589   0.00000  Uiso   1.00
C546   C     0.95744   0.83336   0.24952   0.00000  Uiso   1.00
C547   C     0.70923   0.83336   0.25049   0.00000  Uiso   1.00
C548   C     0.88960   0.71414   0.31228   0.00000  Uiso   1.00
C549   C     0.77792   0.95235   0.18689   0.00000  Uiso   1.00
C550   C     0.77707   0.71413   0.18772   0.00000  Uiso   1.00
C551   C     0.83320   0.83336   0.16406   0.00000  Uiso   1.00
C552   C     0.88873   0.95237   0.31313   0.00000  Uiso   1.00
C553   C     0.83345   0.83336   0.33592   0.00000  Uiso   1.00
C554   C     0.85967   0.69055   0.27929   0.00000  Uiso   1.00
C555   C     0.80713   0.97607   0.22057   0.00000  Uiso   1.00
C556   C     0.80700   0.69054   0.22071   0.00000  Uiso   1.00
C557   C     0.85953   0.97608   0.27943   0.00000  Uiso   1.00
C558   C     0.68782   0.79264   0.25040   0.00000  Uiso   1.00
F559   F     0.70739   0.75253   0.25144   0.00000  Uiso   1.00
F560   F     0.95928   0.91422   0.24902   0.00000  Uiso   1.00
F561   F     0.95924   0.75253   0.24829   0.00000  Uiso   1.00
F562   F     0.70743   0.91421   0.25132   0.00000  Uiso   1.00
H563   H     0.85801   0.90087   0.03157   0.00000  Uiso   1.00
H564   H     0.88288   0.70514   0.34687   0.00000  Uiso   1.00
H565   H     0.92186   0.70454   0.30653   0.00000  Uiso   1.00
H566   H     0.77781   0.91630   0.18983   0.00000  Uiso   1.00
H567   H     0.74552   0.96267   0.19090   0.00000  Uiso   1.00
H568   H     0.78625   0.96020   0.15251   0.00000  Uiso   1.00
H569   H     0.77782   0.75025   0.18968   0.00000  Uiso   1.00
H570   H     0.78381   0.70514   0.15312   0.00000  Uiso   1.00
H571   H     0.74482   0.70450   0.19345   0.00000  Uiso   1.00
H572   H     0.88887   0.91632   0.31016   0.00000  Uiso   1.00
H573   H     0.92113   0.96272   0.30916   0.00000  Uiso   1.00
H574   H     0.86035   0.76786   0.47273   0.00000  Uiso   1.00
H575   H     0.88035   0.96019   0.34750   0.00000  Uiso   1.00
H576   H     0.80639   0.89997   0.46815   0.00000  Uiso   1.00
H577   H     0.80798   0.76697   0.02739   0.00000  Uiso   1.00
H578   H     0.85744   0.90091   0.11259   0.00000  Uiso   1.00
H579   H     0.85981   0.76725   0.39170   0.00000  Uiso   1.00
H580   H     0.80715   0.90002   0.38711   0.00000  Uiso   1.00
H581   H     0.80871   0.76636   0.10841   0.00000  Uiso   1.00
H582   H     0.88884   0.75027   0.31032   0.00000  Uiso   1.00
N583   N     0.83333   0.95240   0.25000   0.00000  Uiso   1.00
N584   N     0.83333   0.71427   0.25000   0.00000  Uiso   1.00
O585   O     0.77226   0.87154   0.24999   0.00000  Uiso   1.00
O586   O     0.89441   0.79513   0.25000   0.00000  Uiso   1.00
O587   O     0.89441   0.87154   0.25000   0.00000  Uiso   1.00
O588   O     0.77226   0.79513   0.24999   0.00000  Uiso   1.00
O589   O     0.83333   0.87155   0.18453   0.00000  Uiso   1.00
O590   O     0.83334   0.79511   0.31547   0.00000  Uiso   1.00
O591   O     0.83334   0.87155   0.31547   0.00000  Uiso   1.00
O592   O     0.83333   0.79511   0.18453   0.00000  Uiso   1.00
Zn593  Zn    0.83333   0.88437   0.25000   0.00000  Uiso   1.00
Zn594  Zn    0.83333   0.78229   0.25000   0.00000  Uiso   1.00
C595   C     0.08677   0.16667   0.75019   0.00000  Uiso   1.00
C596   C     0.31219   0.20743   0.74973   0.00000  Uiso   1.00
C597   C     0.31217   0.12598   0.74947   0.00000  Uiso   1.00
C598   C     0.02117   0.20743   0.75045   0.00000  Uiso   1.00
C599   C     0.18009   0.20499   0.54820   0.00000  Uiso   1.00
C600   C     0.18158   0.12988   0.95414   0.00000  Uiso   1.00
C601   C     0.15187   0.20449   0.95160   0.00000  Uiso   1.00
C602   C     0.15258   0.12941   0.54590   0.00000  Uiso   1.00
C603   C     0.17990   0.20491   0.59420   0.00000  Uiso   1.00
C604   C     0.18139   0.12959   0.90814   0.00000  Uiso   1.00
C605   C     0.15217   0.20443   0.90562   0.00000  Uiso   1.00
C606   C     0.24656   0.16667   0.74982   0.00000  Uiso   1.00
C607   C     0.15288   0.12912   0.59190   0.00000  Uiso   1.00
C608   C     0.16646   0.16688   0.61609   0.00000  Uiso   1.00
C609   C     0.16676   0.16688   0.88386   0.00000  Uiso   1.00
C610   C     0.16638   0.16725   0.52403   0.00000  Uiso   1.00
C611   C     0.16663   0.16724   0.97589   0.00000  Uiso   1.00
C612   C     0.29077   0.16670   0.74952   0.00000  Uiso   1.00
C613   C     0.04256   0.16669   0.75049   0.00000  Uiso   1.00
C614   C     0.22293   0.04747   0.81228   0.00000  Uiso   1.00
C615   C     0.11125   0.28569   0.68689   0.00000  Uiso   1.00
C616   C     0.11041   0.04746   0.68772   0.00000  Uiso   1.00
C617   C     0.16653   0.16670   0.66406   0.00000  Uiso   1.00
C618   C     0.22206   0.28570   0.81313   0.00000  Uiso   1.00
C619   C     0.16679   0.16670   0.83592   0.00000  Uiso   1.00
C620   C     0.19300   0.02388   0.77929   0.00000  Uiso   1.00
C621   C     0.14047   0.30940   0.72057   0.00000  Uiso   1.00
C622   C     0.14033   0.02388   0.72071   0.00000  Uiso   1.00
C623   C     0.19286   0.30941   0.77943   0.00000  Uiso   1.00
C624   C     0.02115   0.12598   0.75040   0.00000  Uiso   1.00
F625   F     0.04072   0.08586   0.75144   0.00000  Uiso   1.00
F626   F     0.29261   0.24755   0.74902   0.00000  Uiso   1.00
F627   F     0.29258   0.08587   0.74829   0.00000  Uiso   1.00
F628   F     0.04077   0.24754   0.75132   0.00000  Uiso   1.00
H629   H     0.19135   0.23421   0.53157   0.00000  Uiso   1.00
H630   H     0.21621   0.03848   0.84687   0.00000  Uiso   1.00
H631   H     0.25519   0.03787   0.80653   0.00000  Uiso   1.00
H632   H     0.11114   0.24964   0.68983   0.00000  Uiso   1.00
H633   H     0.07885   0.29601   0.69090   0.00000  Uiso   1.00
H634   H     0.11959   0.29354   0.65251   0.00000  Uiso   1.00
H635   H     0.11115   0.08359   0.68968   0.00000  Uiso   1.00
H636   H     0.11714   0.03848   0.65312   0.00000  Uiso   1.00
H637   H     0.07815   0.03784   0.69345   0.00000  Uiso   1.00
H638   H     0.22220   0.24965   0.81016   0.00000  Uiso   1.00
H639   H     0.25446   0.29605   0.80916   0.00000  Uiso   1.00
H640   H     0.19368   0.10119   0.97273   0.00000  Uiso   1.00
H641   H     0.21369   0.29352   0.84750   0.00000  Uiso   1.00
H642   H     0.13973   0.23330   0.96815   0.00000  Uiso   1.00
H643   H     0.14132   0.10031   0.52739   0.00000  Uiso   1.00
H644   H     0.19077   0.23424   0.61259   0.00000  Uiso   1.00
H645   H     0.19314   0.10059   0.89170   0.00000  Uiso   1.00
H646   H     0.14048   0.23336   0.88711   0.00000  Uiso   1.00
H647   H     0.14204   0.09970   0.60841   0.00000  Uiso   1.00
H648   H     0.22218   0.08360   0.81032   0.00000  Uiso   1.00
N649   N     0.16667   0.28573   0.75000   0.00000  Uiso   1.00
N650   N     0.16667   0.04760   0.75000   0.00000  Uiso   1.00
O651   O     0.10559   0.20487   0.74999   0.00000  Uiso   1.00
O652   O     0.22774   0.12846   0.75000   0.00000  Uiso   1.00
O653   O     0.22774   0.20487   0.75000   0.00000  Uiso   1.00
O654   O     0.10559   0.12846   0.74999   0.00000  Uiso   1.00
O655   O     0.16666   0.20489   0.68453   0.00000  Uiso   1.00
O656   O     0.16667   0.12845   0.81547   0.00000  Uiso   1.00
O657   O     0.16667   0.20489   0.81547   0.00000  Uiso   1.00
O658   O     0.16666   0.12845   0.68453   0.00000  Uiso   1.00
Zn659  Zn    0.16667   0.21771   0.75000   0.00000  Uiso   1.00
Zn660  Zn    0.16667   0.11563   0.75000   0.00000  Uiso   1.00
C661   C     0.42011   0.16667   0.75019   0.00000  Uiso   1.00
C662   C     0.64552   0.20743   0.74973   0.00000  Uiso   1.00
C663   C     0.64550   0.12598   0.74947   0.00000  Uiso   1.00
C664   C     0.35450   0.20743   0.75045   0.00000  Uiso   1.00
C665   C     0.51343   0.20499   0.54820   0.00000  Uiso   1.00
C666   C     0.51491   0.12988   0.95414   0.00000  Uiso   1.00
C667   C     0.48520   0.20449   0.95160   0.00000  Uiso   1.00
C668   C     0.48591   0.12941   0.54590   0.00000  Uiso   1.00
C669   C     0.51324   0.20491   0.59420   0.00000  Uiso   1.00
C670   C     0.51472   0.12959   0.90814   0.00000  Uiso   1.00
C671   C     0.48550   0.20443   0.90562   0.00000  Uiso   1.00
C672   C     0.57990   0.16667   0.74982   0.00000  Uiso   1.00
C673   C     0.48621   0.12912   0.59190   0.00000  Uiso   1.00
C674   C     0.49980   0.16688   0.61609   0.00000  Uiso   1.00
C675   C     0.50010   0.16688   0.88386   0.00000  Uiso   1.00
C676   C     0.49972   0.16725   0.52403   0.00000  Uiso   1.00
C677   C     0.49997   0.16724   0.97589   0.00000  Uiso   1.00
C678   C     0.62411   0.16670   0.74952   0.00000  Uiso   1.00
C679   C     0.37590   0.16669   0.75049   0.00000  Uiso   1.00
C680   C     0.55627   0.04747   0.81228   0.00000  Uiso   1.00
C681   C     0.44459   0.28569   0.68689   0.00000  Uiso   1.00
C682   C     0.44374   0.04746   0.68772   0.00000  Uiso   1.00
C683   C     0.49987   0.16670   0.66406   0.00000  Uiso   1.00
C684   C     0.55539   0.28570   0.81313   0.00000  Uiso   1.00
C685   C     0.50012   0.16670   0.83592   0.00000  Uiso   1.00
C686   C     0.52633   0.02388   0.77929   0.00000  Uiso   1.00
C687   C     0.47380   0.30940   0.72057   0.00000  Uiso   1.00
C688   C     0.47367   0.02388   0.72071   0.00000  Uiso   1.00
C689   C     0.52620   0.30941   0.77943   0.00000  Uiso   1.00
C690   C     0.35448   0.12598   0.75040   0.00000  Uiso   1.00
F691   F     0.37405   0.08586   0.75144   0.00000  Uiso   1.00
F692   F     0.62594   0.24755   0.74902   0.00000  Uiso   1.00
F693   F     0.62591   0.08587   0.74829   0.00000  Uiso   1.00
F694   F     0.37410   0.24754   0.75132   0.00000  Uiso   1.00
H695   H     0.52468   0.23421   0.53157   0.00000  Uiso   1.00
H696   H     0.54954   0.03848   0.84687   0.00000  Uiso   1.00
H697   H     0.58852   0.03787   0.80653   0.00000  Uiso   1.00
H698   H     0.44447   0.24964   0.68983   0.00000  Uiso   1.00
H699   H     0.41218   0.29601   0.69090   0.00000  Uiso   1.00
H700   H     0.45292   0.29354   0.65251   0.00000  Uiso   1.00
H701   H     0.44449   0.08359   0.68968   0.00000  Uiso   1.00
H702   H     0.45047   0.03848   0.65312   0.00000  Uiso   1.00
H703   H     0.41148   0.03784   0.69345   0.00000  Uiso   1.00
H704   H     0.55553   0.24965   0.81016   0.00000  Uiso   1.00
H705   H     0.58780   0.29605   0.80916   0.00000  Uiso   1.00
H706   H     0.52701   0.10119   0.97273   0.00000  Uiso   1.00
H707   H     0.54702   0.29352   0.84750   0.00000  Uiso   1.00
H708   H     0.47306   0.23330   0.96815   0.00000  Uiso   1.00
H709   H     0.47465   0.10031   0.52739   0.00000  Uiso   1.00
H710   H     0.52411   0.23424   0.61259   0.00000  Uiso   1.00
H711   H     0.52648   0.10059   0.89170   0.00000  Uiso   1.00
H712   H     0.47381   0.23336   0.88711   0.00000  Uiso   1.00
H713   H     0.47538   0.09970   0.60841   0.00000  Uiso   1.00
H714   H     0.55551   0.08360   0.81032   0.00000  Uiso   1.00
N715   N     0.50000   0.28573   0.75000   0.00000  Uiso   1.00
N716   N     0.50000   0.04760   0.75000   0.00000  Uiso   1.00
O717   O     0.43892   0.20487   0.74999   0.00000  Uiso   1.00
O718   O     0.56108   0.12846   0.75000   0.00000  Uiso   1.00
O719   O     0.56108   0.20487   0.75000   0.00000  Uiso   1.00
O720   O     0.43892   0.12846   0.74999   0.00000  Uiso   1.00
O721   O     0.50000   0.20489   0.68453   0.00000  Uiso   1.00
O722   O     0.50000   0.12845   0.81547   0.00000  Uiso   1.00
O723   O     0.50000   0.20489   0.81547   0.00000  Uiso   1.00
O724   O     0.50000   0.12845   0.68453   0.00000  Uiso   1.00
Zn725  Zn    0.50000   0.21771   0.75000   0.00000  Uiso   1.00
Zn726  Zn    0.50000   0.11563   0.75000   0.00000  Uiso   1.00
C727   C     0.75344   0.16667   0.75019   0.00000  Uiso   1.00
C728   C     0.97885   0.20743   0.74973   0.00000  Uiso   1.00
C729   C     0.97883   0.12598   0.74947   0.00000  Uiso   1.00
C730   C     0.68784   0.20743   0.75045   0.00000  Uiso   1.00
C731   C     0.84676   0.20499   0.54820   0.00000  Uiso   1.00
C732   C     0.84825   0.12988   0.95414   0.00000  Uiso   1.00
C733   C     0.81853   0.20449   0.95160   0.00000  Uiso   1.00
C734   C     0.81925   0.12941   0.54590   0.00000  Uiso   1.00
C735   C     0.84657   0.20491   0.59420   0.00000  Uiso   1.00
C736   C     0.84806   0.12959   0.90814   0.00000  Uiso   1.00
C737   C     0.81884   0.20443   0.90562   0.00000  Uiso   1.00
C738   C     0.91323   0.16667   0.74982   0.00000  Uiso   1.00
C739   C     0.81954   0.12912   0.59190   0.00000  Uiso   1.00
C740   C     0.83313   0.16688   0.61609   0.00000  Uiso   1.00
C741   C     0.83343   0.16688   0.88386   0.00000  Uiso   1.00
C742   C     0.83305   0.16725   0.52403   0.00000  Uiso   1.00
C743   C     0.83330   0.16724   0.97589   0.00000  Uiso   1.00
C744   C     0.95744   0.16670   0.74952   0.00000  Uiso   1.00
C745   C     0.70923   0.16669   0.75049   0.00000  Uiso   1.00
C746   C     0.88960   0.04747   0.81228   0.00000  Uiso   1.00
C747   C     0.77792   0.28569   0.68689   0.00000  Uiso   1.00
C748   C     0.77707   0.04746   0.68772   0.00000  Uiso   1.00
C749   C     0.83320   0.16670   0.66406   0.00000  Uiso   1.00
C750   C     0.88873   0.28570   0.81313   0.00000  Uiso   1.00
C751   C     0.83345   0.16670   0.83592   0.00000  Uiso   1.00
C752   C     0.85967   0.02388   0.77929   0.00000  Uiso   1.00
C753   C     0.80713   0.30940   0.72057   0.00000  Uiso   1.00
C754   C     0.80700   0.02388   0.72071   0.00000  Uiso   1.00
C755   C     0.85953   0.30941   0.77943   0.00000  Uiso   1.00
C756   C     0.68782   0.12598   0.75040   0.00000  Uiso   1.00
F757   F     0.70739   0.08586   0.75144   0.00000  Uiso   1.00
F758   F     0.95928   0.24755   0.74902   0.00000  Uiso   1.00
F759   F     0.95924   0.08587   0.74829   0.00000  Uiso   1.00
F760   F     0.70743   0.24754   0.75132   0.00000  Uiso   1.00
H761   H     0.85801   0.23421   0.53157   0.00000  Uiso   1.00
H762   H     0.88288   0.03848   0.84687   0.00000  Uiso   1.00
H763   H     0.92186   0.03787   0.80653   0.00000  Uiso   1.00
H764   H     0.77781   0.24964   0.68983   0.00000  Uiso   1.00
H765   H     0.74552   0.29601   0.69090   0.00000  Uiso   1.00
H766   H     0.78625   0.29354   0.65251   0.00000  Uiso   1.00
H767   H     0.77782   0.08359   0.68968   0.00000  Uiso   1.00
H768   H     0.78381   0.03848   0.65312   0.00000  Uiso   1.00
H769   H     0.74482   0.03784   0.69345   0.00000  Uiso   1.00
H770   H     0.88887   0.24965   0.81016   0.00000  Uiso   1.00
H771   H     0.92113   0.29605   0.80916   0.00000  Uiso   1.00
H772   H     0.86035   0.10119   0.97273   0.00000  Uiso   1.00
H773   H     0.88035   0.29352   0.84750   0.00000  Uiso   1.00
H774   H     0.80639   0.23330   0.96815   0.00000  Uiso   1.00
H775   H     0.80798   0.10031   0.52739   0.00000  Uiso   1.00
H776   H     0.85744   0.23424   0.61259   0.00000  Uiso   1.00
H777   H     0.85981   0.10059   0.89170   0.00000  Uiso   1.00
H778   H     0.80715   0.23336   0.88711   0.00000  Uiso   1.00
H779   H     0.80871   0.09970   0.60841   0.00000  Uiso   1.00
H780   H     0.88884   0.08360   0.81032   0.00000  Uiso   1.00
N781   N     0.83333   0.28573   0.75000   0.00000  Uiso   1.00
N782   N     0.83333   0.04760   0.75000   0.00000  Uiso   1.00
O783   O     0.77226   0.20487   0.74999   0.00000  Uiso   1.00
O784   O     0.89441   0.12846   0.75000   0.00000  Uiso   1.00
O785   O     0.89441   0.20487   0.75000   0.00000  Uiso   1.00
O786   O     0.77226   0.12846   0.74999   0.00000  Uiso   1.00
O787   O     0.83333   0.20489   0.68453   0.00000  Uiso   1.00
O788   O     0.83334   0.12845   0.81547   0.00000  Uiso   1.00
O789   O     0.83334   0.20489   0.81547   0.00000  Uiso   1.00
O790   O     0.83333   0.12845   0.68453   0.00000  Uiso   1.00
Zn791  Zn    0.83333   0.21771   0.75000   0.00000  Uiso   1.00
Zn792  Zn    0.83333   0.11563   0.75000   0.00000  Uiso   1.00
C793   C     0.08677   0.50000   0.75019   0.00000  Uiso   1.00
C794   C     0.31219   0.54076   0.74973   0.00000  Uiso   1.00
C795   C     0.31217   0.45931   0.74947   0.00000  Uiso   1.00
C796   C     0.02117   0.54076   0.75045   0.00000  Uiso   1.00
C797   C     0.18009   0.53833   0.54820   0.00000  Uiso   1.00
C798   C     0.18158   0.46322   0.95414   0.00000  Uiso   1.00
C799   C     0.15187   0.53783   0.95160   0.00000  Uiso   1.00
C800   C     0.15258   0.46274   0.54590   0.00000  Uiso   1.00
C801   C     0.17990   0.53825   0.59420   0.00000  Uiso   1.00
C802   C     0.18139   0.46293   0.90814   0.00000  Uiso   1.00
C803   C     0.15217   0.53776   0.90562   0.00000  Uiso   1.00
C804   C     0.24656   0.50001   0.74982   0.00000  Uiso   1.00
C805   C     0.15288   0.46245   0.59190   0.00000  Uiso   1.00
C806   C     0.16646   0.50021   0.61609   0.00000  Uiso   1.00
C807   C     0.16676   0.50021   0.88386   0.00000  Uiso   1.00
C808   C     0.16638   0.50059   0.52403   0.00000  Uiso   1.00
C809   C     0.16663   0.50057   0.97589   0.00000  Uiso   1.00
C810   C     0.29077   0.50003   0.74952   0.00000  Uiso   1.00
C811   C     0.04256   0.50003   0.75049   0.00000  Uiso   1.00
C812   C     0.22293   0.38081   0.81228   0.00000  Uiso   1.00
C813   C     0.11125   0.61902   0.68689   0.00000  Uiso   1.00
C814   C     0.11041   0.38079   0.68772   0.00000  Uiso   1.00
C815   C     0.16653   0.50003   0.66406   0.00000  Uiso   1.00
C816   C     0.22206   0.61903   0.81313   0.00000  Uiso   1.00
C817   C     0.16679   0.50003   0.83592   0.00000  Uiso   1.00
C818   C     0.19300   0.35722   0.77929   0.00000  Uiso   1.00
C819   C     0.14047   0.64274   0.72057   0.00000  Uiso   1.00
C820   C     0.14033   0.35721   0.72071   0.00000  Uiso   1.00
C821   C     0.19286   0.64274   0.77943   0.00000  Uiso   1.00
C822   C     0.02115   0.45931   0.75040   0.00000  Uiso   1.00
F823   F     0.04072   0.41919   0.75144   0.00000  Uiso   1.00
F824   F     0.29261   0.58088   0.74902   0.00000  Uiso   1.00
F825   F     0.29258   0.41920   0.74829   0.00000  Uiso   1.00
F826   F     0.04077   0.58088   0.75132   0.00000  Uiso   1.00
H827   H     0.19135   0.56754   0.53157   0.00000  Uiso   1.00
H828   H     0.21621   0.37181   0.84687   0.00000  Uiso   1.00
H829   H     0.25519   0.37120   0.80653   0.00000  Uiso   1.00
H830   H     0.11114   0.58297   0.68983   0.00000  Uiso   1.00
H831   H     0.07885   0.62934   0.69090   0.00000  Uiso   1.00
H832   H     0.11959   0.62687   0.65251   0.00000  Uiso   1.00
H833   H     0.11115   0.41692   0.68968   0.00000  Uiso   1.00
H834   H     0.11714   0.37181   0.65312   0.00000  Uiso   1.00
H835   H     0.07815   0.37117   0.69345   0.00000  Uiso   1.00
H836   H     0.22220   0.58298   0.81016   0.00000  Uiso   1.00
H837   H     0.25446   0.62939   0.80916   0.00000  Uiso   1.00
H838   H     0.19368   0.43452   0.97273   0.00000  Uiso   1.00
H839   H     0.21369   0.62685   0.84750   0.00000  Uiso   1.00
H840   H     0.13973   0.56664   0.96815   0.00000  Uiso   1.00
H841   H     0.14132   0.43364   0.52739   0.00000  Uiso   1.00
H842   H     0.19077   0.56758   0.61259   0.00000  Uiso   1.00
H843   H     0.19314   0.43392   0.89170   0.00000  Uiso   1.00
H844   H     0.14048   0.56669   0.88711   0.00000  Uiso   1.00
H845   H     0.14204   0.43303   0.60841   0.00000  Uiso   1.00
H846   H     0.22218   0.41693   0.81032   0.00000  Uiso   1.00
N847   N     0.16667   0.61907   0.75000   0.00000  Uiso   1.00
N848   N     0.16667   0.38093   0.75000   0.00000  Uiso   1.00
O849   O     0.10559   0.53821   0.74999   0.00000  Uiso   1.00
O850   O     0.22774   0.46179   0.75000   0.00000  Uiso   1.00
O851   O     0.22774   0.53821   0.75000   0.00000  Uiso   1.00
O852   O     0.10559   0.46179   0.74999   0.00000  Uiso   1.00
O853   O     0.16666   0.53822   0.68453   0.00000  Uiso   1.00
O854   O     0.16667   0.46178   0.81547   0.00000  Uiso   1.00
O855   O     0.16667   0.53822   0.81547   0.00000  Uiso   1.00
O856   O     0.16666   0.46178   0.68453   0.00000  Uiso   1.00
Zn857  Zn    0.16667   0.55104   0.75000   0.00000  Uiso   1.00
Zn858  Zn    0.16667   0.44896   0.75000   0.00000  Uiso   1.00
C859   C     0.42011   0.50000   0.75019   0.00000  Uiso   1.00
C860   C     0.64552   0.54076   0.74973   0.00000  Uiso   1.00
C861   C     0.64550   0.45931   0.74947   0.00000  Uiso   1.00
C862   C     0.35450   0.54076   0.75045   0.00000  Uiso   1.00
C863   C     0.51343   0.53833   0.54820   0.00000  Uiso   1.00
C864   C     0.51491   0.46322   0.95414   0.00000  Uiso   1.00
C865   C     0.48520   0.53783   0.95160   0.00000  Uiso   1.00
C866   C     0.48591   0.46274   0.54590   0.00000  Uiso   1.00
C867   C     0.51324   0.53825   0.59420   0.00000  Uiso   1.00
C868   C     0.51472   0.46293   0.90814   0.00000  Uiso   1.00
C869   C     0.48550   0.53776   0.90562   0.00000  Uiso   1.00
C870   C     0.57990   0.50001   0.74982   0.00000  Uiso   1.00
C871   C     0.48621   0.46245   0.59190   0.00000  Uiso   1.00
C872   C     0.49980   0.50021   0.61609   0.00000  Uiso   1.00
C873   C     0.50010   0.50021   0.88386   0.00000  Uiso   1.00
C874   C     0.49972   0.50059   0.52403   0.00000  Uiso   1.00
C875   C     0.49997   0.50057   0.97589   0.00000  Uiso   1.00
C876   C     0.62411   0.50003   0.74952   0.00000  Uiso   1.00
C877   C     0.37590   0.50003   0.75049   0.00000  Uiso   1.00
C878   C     0.55627   0.38081   0.81228   0.00000  Uiso   1.00
C879   C     0.44459   0.61902   0.68689   0.00000  Uiso   1.00
C880   C     0.44374   0.38079   0.68772   0.00000  Uiso   1.00
C881   C     0.49987   0.50003   0.66406   0.00000  Uiso   1.00
C882   C     0.55539   0.61903   0.81313   0.00000  Uiso   1.00
C883   C     0.50012   0.50003   0.83592   0.00000  Uiso   1.00
C884   C     0.52633   0.35722   0.77929   0.00000  Uiso   1.00
C885   C     0.47380   0.64274   0.72057   0.00000  Uiso   1.00
C886   C     0.47367   0.35721   0.72071   0.00000  Uiso   1.00
C887   C     0.52620   0.64274   0.77943   0.00000  Uiso   1.00
C888   C     0.35448   0.45931   0.75040   0.00000  Uiso   1.00
F889   F     0.37405   0.41919   0.75144   0.00000  Uiso   1.00
F890   F     0.62594   0.58088   0.74902   0.00000  Uiso   1.00
F891   F     0.62591   0.41920   0.74829   0.00000  Uiso   1.00
F892   F     0.37410   0.58088   0.75132   0.00000  Uiso   1.00
H893   H     0.52468   0.56754   0.53157   0.00000  Uiso   1.00
H894   H     0.54954   0.37181   0.84687   0.00000  Uiso   1.00
H895   H     0.58852   0.37120   0.80653   0.00000  Uiso   1.00
H896   H     0.44447   0.58297   0.68983   0.00000  Uiso   1.00
H897   H     0.41218   0.62934   0.69090   0.00000  Uiso   1.00
H898   H     0.45292   0.62687   0.65251   0.00000  Uiso   1.00
H899   H     0.44449   0.41692   0.68968   0.00000  Uiso   1.00
H900   H     0.45047   0.37181   0.65312   0.00000  Uiso   1.00
H901   H     0.41148   0.37117   0.69345   0.00000  Uiso   1.00
H902   H     0.55553   0.58298   0.81016   0.00000  Uiso   1.00
H903   H     0.58780   0.62939   0.80916   0.00000  Uiso   1.00
H904   H     0.52701   0.43452   0.97273   0.00000  Uiso   1.00
H905   H     0.54702   0.62685   0.84750   0.00000  Uiso   1.00
H906   H     0.47306   0.56664   0.96815   0.00000  Uiso   1.00
H907   H     0.47465   0.43364   0.52739   0.00000  Uiso   1.00
H908   H     0.52411   0.56758   0.61259   0.00000  Uiso   1.00
H909   H     0.52648   0.43392   0.89170   0.00000  Uiso   1.00
H910   H     0.47381   0.56669   0.88711   0.00000  Uiso   1.00
H911   H     0.47538   0.43303   0.60841   0.00000  Uiso   1.00
H912   H     0.55551   0.41693   0.81032   0.00000  Uiso   1.00
N913   N     0.50000   0.61907   0.75000   0.00000  Uiso   1.00
N914   N     0.50000   0.38093   0.75000   0.00000  Uiso   1.00
O915   O     0.43892   0.53821   0.74999   0.00000  Uiso   1.00
O916   O     0.56108   0.46179   0.75000   0.00000  Uiso   1.00
O917   O     0.56108   0.53821   0.75000   0.00000  Uiso   1.00
O918   O     0.43892   0.46179   0.74999   0.00000  Uiso   1.00
O919   O     0.50000   0.53822   0.68453   0.00000  Uiso   1.00
O920   O     0.50000   0.46178   0.81547   0.00000  Uiso   1.00
O921   O     0.50000   0.53822   0.81547   0.00000  Uiso   1.00
O922   O     0.50000   0.46178   0.68453   0.00000  Uiso   1.00
Zn923  Zn    0.50000   0.55104   0.75000   0.00000  Uiso   1.00
Zn924  Zn    0.50000   0.44896   0.75000   0.00000  Uiso   1.00
C925   C     0.75344   0.50000   0.75019   0.00000  Uiso   1.00
C926   C     0.97885   0.54076   0.74973   0.00000  Uiso   1.00
C927   C     0.97883   0.45931   0.74947   0.00000  Uiso   1.00
C928   C     0.68784   0.54076   0.75045   0.00000  Uiso   1.00
C929   C     0.84676   0.53833   0.54820   0.00000  Uiso   1.00
C930   C     0.84825   0.46322   0.95414   0.00000  Uiso   1.00
C931   C     0.81853   0.53783   0.95160   0.00000  Uiso   1.00
C932   C     0.81925   0.46274   0.54590   0.00000  Uiso   1.00
C933   C     0.84657   0.53825   0.59420   0.00000  Uiso   1.00
C934   C     0.84806   0.46293   0.90814   0.00000  Uiso   1.00
C935   C     0.81884   0.53776   0.90562   0.00000  Uiso   1.00
C936   C     0.91323   0.50001   0.74982   0.00000  Uiso   1.00
C937   C     0.81954   0.46245   0.59190   0.00000  Uiso   1.00
C938   C     0.83313   0.50021   0.61609   0.00000  Uiso   1.00
C939   C     0.83343   0.50021   0.88386   0.00000  Uiso   1.00
C940   C     0.83305   0.50059   0.52403   0.00000  Uiso   1.00
C941   C     0.83330   0.50057   0.97589   0.00000  Uiso   1.00
C942   C     0.95744   0.50003   0.74952   0.00000  Uiso   1.00
C943   C     0.70923   0.50003   0.75049   0.00000  Uiso   1.00
C944   C     0.88960   0.38081   0.81228   0.00000  Uiso   1.00
C945   C     0.77792   0.61902   0.68689   0.00000  Uiso   1.00
C946   C     0.77707   0.38079   0.68772   0.00000  Uiso   1.00
C947   C     0.83320   0.50003   0.66406   0.00000  Uiso   1.00
C948   C     0.88873   0.61903   0.81313   0.00000  Uiso   1.00
C949   C     0.83345   0.50003   0.83592   0.00000  Uiso   1.00
C950   C     0.85967   0.35722   0.77929   0.00000  Uiso   1.00
C951   C     0.80713   0.64274   0.72057   0.00000  Uiso   1.00
C952   C     0.80700   0.35721   0.72071   0.00000  Uiso   1.00
C953   C     0.85953   0.64274   0.77943   0.00000  Uiso   1.00
C954   C     0.68782   0.45931   0.75040   0.00000  Uiso   1.00
F955   F     0.70739   0.41919   0.75144   0.00000  Uiso   1.00
F956   F     0.95928   0.58088   0.74902   0.00000  Uiso   1.00
F957   F     0.95924   0.41920   0.74829   0.00000  Uiso   1.00
F958   F     0.70743   0.58088   0.75132   0.00000  Uiso   1.00
H959   H     0.85801   0.56754   0.53157   0.00000  Uiso   1.00
H960   H     0.88288   0.37181   0.84687   0.00000  Uiso   1.00
H961   H     0.92186   0.37120   0.80653   0.00000  Uiso   1.00
H962   H     0.77781   0.58297   0.68983   0.00000  Uiso   1.00
H963   H     0.74552   0.62934   0.69090   0.00000  Uiso   1.00
H964   H     0.78625   0.62687   0.65251   0.00000  Uiso   1.00
H965   H     0.77782   0.41692   0.68968   0.00000  Uiso   1.00
H966   H     0.78381   0.37181   0.65312   0.00000  Uiso   1.00
H967   H     0.74482   0.37117   0.69345   0.00000  Uiso   1.00
H968   H     0.88887   0.58298   0.81016   0.00000  Uiso   1.00
H969   H     0.92113   0.62939   0.80916   0.00000  Uiso   1.00
H970   H     0.86035   0.43452   0.97273   0.00000  Uiso   1.00
H971   H     0.88035   0.62685   0.84750   0.00000  Uiso   1.00
H972   H     0.80639   0.56664   0.96815   0.00000  Uiso   1.00
H973   H     0.80798   0.43364   0.52739   0.00000  Uiso   1.00
H974   H     0.85744   0.56758   0.61259   0.00000  Uiso   1.00
H975   H     0.85981   0.43392   0.89170   0.00000  Uiso   1.00
H976   H     0.80715   0.56669   0.88711   0.00000  Uiso   1.00
H977   H     0.80871   0.43303   0.60841   0.00000  Uiso   1.00
H978   H     0.88884   0.41693   0.81032   0.00000  Uiso   1.00
N979   N     0.83333   0.61907   0.75000   0.00000  Uiso   1.00
N980   N     0.83333   0.38093   0.75000   0.00000  Uiso   1.00
O981   O     0.77226   0.53821   0.74999   0.00000  Uiso   1.00
O982   O     0.89441   0.46179   0.75000   0.00000  Uiso   1.00
O983   O     0.89441   0.53821   0.75000   0.00000  Uiso   1.00
O984   O     0.77226   0.46179   0.74999   0.00000  Uiso   1.00
O985   O     0.83333   0.53822   0.68453   0.00000  Uiso   1.00
O986   O     0.83334   0.46178   0.81547   0.00000  Uiso   1.00
O987   O     0.83334   0.53822   0.81547   0.00000  Uiso   1.00
O988   O     0.83333   0.46178   0.68453   0.00000  Uiso   1.00
Zn989  Zn    0.83333   0.55104   0.75000   0.00000  Uiso   1.00
Zn990  Zn    0.83333   0.44896   0.75000   0.00000  Uiso   1.00
C991   C     0.08677   0.83334   0.75019   0.00000  Uiso   1.00
C992   C     0.31219   0.87410   0.74973   0.00000  Uiso   1.00
C993   C     0.31217   0.79265   0.74947   0.00000  Uiso   1.00
C994   C     0.02117   0.87409   0.75045   0.00000  Uiso   1.00
C995   C     0.18009   0.87166   0.54820   0.00000  Uiso   1.00
C996   C     0.18158   0.79655   0.95414   0.00000  Uiso   1.00
C997   C     0.15187   0.87116   0.95160   0.00000  Uiso   1.00
C998   C     0.15258   0.79607   0.54590   0.00000  Uiso   1.00
C999   C     0.17990   0.87158   0.59420   0.00000  Uiso   1.00
C1000  C     0.18139   0.79626   0.90814   0.00000  Uiso   1.00
C1001  C     0.15217   0.87110   0.90562   0.00000  Uiso   1.00
C1002  C     0.24656   0.83334   0.74982   0.00000  Uiso   1.00
C1003  C     0.15288   0.79579   0.59190   0.00000  Uiso   1.00
C1004  C     0.16646   0.83355   0.61609   0.00000  Uiso   1.00
C1005  C     0.16676   0.83354   0.88386   0.00000  Uiso   1.00
C1006  C     0.16638   0.83392   0.52403   0.00000  Uiso   1.00
C1007  C     0.16663   0.83391   0.97589   0.00000  Uiso   1.00
C1008  C     0.29077   0.83336   0.74952   0.00000  Uiso   1.00
C1009  C     0.04256   0.83336   0.75049   0.00000  Uiso   1.00
C1010  C     0.22293   0.71414   0.81228   0.00000  Uiso   1.00
C1011  C     0.11125   0.95235   0.68689   0.00000  Uiso   1.00
C1012  C     0.11041   0.71413   0.68772   0.00000  Uiso   1.00
C1013  C     0.16653   0.83336   0.66406   0.00000  Uiso   1.00
C1014  C     0.22206   0.95237   0.81313   0.00000  Uiso   1.00
C1015  C     0.16679   0.83336   0.83592   0.00000  Uiso   1.00
C1016  C     0.19300   0.69055   0.77929   0.00000  Uiso   1.00
C1017  C     0.14047   0.97607   0.72057   0.00000  Uiso   1.00
C1018  C     0.14033   0.69054   0.72071   0.00000  Uiso   1.00
C1019  C     0.19286   0.97608   0.77943   0.00000  Uiso   1.00
C1020  C     0.02115   0.79264   0.75040   0.00000  Uiso   1.00
F1021  F     0.04072   0.75253   0.75144   0.00000  Uiso   1.00
F1022  F     0.29261   0.91422   0.74902   0.00000  Uiso   1.00
F1023  F     0.29258   0.75253   0.74829   0.00000  Uiso   1.00
F1024  F     0.04077   0.91421   0.75132   0.00000  Uiso   1.00
H1025  H     0.19135   0.90087   0.53157   0.00000  Uiso   1.00
H1026  H     0.21621   0.70514   0.84687   0.00000  Uiso   1.00
H1027  H     0.25519   0.70454   0.80653   0.00000  Uiso   1.00
H1028  H     0.11114   0.91630   0.68983   0.00000  Uiso   1.00
H1029  H     0.07885   0.96267   0.69090   0.00000  Uiso   1.00
H1030  H     0.11959   0.96020   0.65251   0.00000  Uiso   1.00
H1031  H     0.11115   0.75025   0.68968   0.00000  Uiso   1.00
H1032  H     0.11714   0.70514   0.65312   0.00000  Uiso   1.00
H1033  H     0.07815   0.70450   0.69345   0.00000  Uiso   1.00
H1034  H     0.22220   0.91632   0.81016   0.00000  Uiso   1.00
H1035  H     0.25446   0.96272   0.80916   0.00000  Uiso   1.00
H1036  H     0.19368   0.76786   0.97273   0.00000  Uiso   1.00
H1037  H     0.21369   0.96019   0.84750   0.00000  Uiso   1.00
H1038  H     0.13973   0.89997   0.96815   0.00000  Uiso   1.00
H1039  H     0.14132   0.76697   0.52739   0.00000  Uiso   1.00
H1040  H     0.19077   0.90091   0.61259   0.00000  Uiso   1.00
H1041  H     0.19314   0.76725   0.89170   0.00000  Uiso   1.00
H1042  H     0.14048   0.90002   0.88711   0.00000  Uiso   1.00
H1043  H     0.14204   0.76636   0.60841   0.00000  Uiso   1.00
H1044  H     0.22218   0.75027   0.81032   0.00000  Uiso   1.00
N1045  N     0.16667   0.95240   0.75000   0.00000  Uiso   1.00
N1046  N     0.16667   0.71427   0.75000   0.00000  Uiso   1.00
O1047  O     0.10559   0.87154   0.74999   0.00000  Uiso   1.00
O1048  O     0.22774   0.79513   0.75000   0.00000  Uiso   1.00
O1049  O     0.22774   0.87154   0.75000   0.00000  Uiso   1.00
O1050  O     0.10559   0.79513   0.74999   0.00000  Uiso   1.00
O1051  O     0.16666   0.87155   0.68453   0.00000  Uiso   1.00
O1052  O     0.16667   0.79511   0.81547   0.00000  Uiso   1.00
O1053  O     0.16667   0.87155   0.81547   0.00000  Uiso   1.00
O1054  O     0.16666   0.79511   0.68453   0.00000  Uiso   1.00
Zn1055 Zn    0.16667   0.88437   0.75000   0.00000  Uiso   1.00
Zn1056 Zn    0.16667   0.78229   0.75000   0.00000  Uiso   1.00
C1057  C     0.42011   0.83334   0.75019   0.00000  Uiso   1.00
C1058  C     0.64552   0.87410   0.74973   0.00000  Uiso   1.00
C1059  C     0.64550   0.79265   0.74947   0.00000  Uiso   1.00
C1060  C     0.35450   0.87409   0.75045   0.00000  Uiso   1.00
C1061  C     0.51343   0.87166   0.54820   0.00000  Uiso   1.00
C1062  C     0.51491   0.79655   0.95414   0.00000  Uiso   1.00
C1063  C     0.48520   0.87116   0.95160   0.00000  Uiso   1.00
C1064  C     0.48591   0.79607   0.54590   0.00000  Uiso   1.00
C1065  C     0.51324   0.87158   0.59420   0.00000  Uiso   1.00
C1066  C     0.51472   0.79626   0.90814   0.00000  Uiso   1.00
C1067  C     0.48550   0.87110   0.90562   0.00000  Uiso   1.00
C1068  C     0.57990   0.83334   0.74982   0.00000  Uiso   1.00
C1069  C     0.48621   0.79579   0.59190   0.00000  Uiso   1.00
C1070  C     0.49980   0.83355   0.61609   0.00000  Uiso   1.00
C1071  C     0.50010   0.83354   0.88386   0.00000  Uiso   1.00
C1072  C     0.49972   0.83392   0.52403   0.00000  Uiso   1.00
C1073  C     0.49997   0.83391   0.97589   0.00000  Uiso   1.00
C1074  C     0.62411   0.83336   0.74952   0.00000  Uiso   1.00
C1075  C     0.37590   0.83336   0.75049   0.00000  Uiso   1.00
C1076  C     0.55627   0.71414   0.81228   0.00000  Uiso   1.00
C1077  C     0.44459   0.95235   0.68689   0.00000  Uiso   1.00
C1078  C     0.44374   0.71413   0.68772   0.00000  Uiso   1.00
C1079  C     0.49987   0.83336   0.66406   0.00000  Uiso   1.00
C1080  C     0.55539   0.95237   0.81313   0.00000  Uiso   1.00
C1081  C     0.50012   0.83336   0.83592   0.00000  Uiso   1.00
C1082  C     0.52633   0.69055   0.77929   0.00000  Uiso   1.00
C1083  C     0.47380   0.97607   0.72057   0.00000  Uiso   1.00
C1084  C     0.47367   0.69054   0.72071   0.00000  Uiso   1.00
C1085  C     0.52620   0.97608   0.77943   0.00000  Uiso   1.00
C1086  C     0.35448   0.79264   0.75040   0.00000  Uiso   1.00
F1087  F     0.37405   0.75253   0.75144   0.00000  Uiso   1.00
F1088  F     0.62594   0.91422   0.74902   0.00000  Uiso   1.00
F1089  F     0.62591   0.75253   0.74829   0.00000  Uiso   1.00
F1090  F     0.37410   0.91421   0.75132   0.00000  Uiso   1.00
H1091  H     0.52468   0.90087   0.53157   0.00000  Uiso   1.00
H1092  H     0.54954   0.70514   0.84687   0.00000  Uiso   1.00
H1093  H     0.58852   0.70454   0.80653   0.00000  Uiso   1.00
H1094  H     0.44447   0.91630   0.68983   0.00000  Uiso   1.00
H1095  H     0.41218   0.96267   0.69090   0.00000  Uiso   1.00
H1096  H     0.45292   0.96020   0.65251   0.00000  Uiso   1.00
H1097  H     0.44449   0.75025   0.68968   0.00000  Uiso   1.00
H1098  H     0.45047   0.70514   0.65312   0.00000  Uiso   1.00
H1099  H     0.41148   0.70450   0.69345   0.00000  Uiso   1.00
H1100  H     0.55553   0.91632   0.81016   0.00000  Uiso   1.00
H1101  H     0.58780   0.96272   0.80916   0.00000  Uiso   1.00
H1102  H     0.52701   0.76786   0.97273   0.00000  Uiso   1.00
H1103  H     0.54702   0.96019   0.84750   0.00000  Uiso   1.00
H1104  H     0.47306   0.89997   0.96815   0.00000  Uiso   1.00
H1105  H     0.47465   0.76697   0.52739   0.00000  Uiso   1.00
H1106  H     0.52411   0.90091   0.61259   0.00000  Uiso   1.00
H1107  H     0.52648   0.76725   0.89170   0.00000  Uiso   1.00
H1108  H     0.47381   0.90002   0.88711   0.00000  Uiso   1.00
H1109  H     0.47538   0.76636   0.60841   0.00000  Uiso   1.00
H1110  H     0.55551   0.75027   0.81032   0.00000  Uiso   1.00
N1111  N     0.50000   0.95240   0.75000   0.00000  Uiso   1.00
N1112  N     0.50000   0.71427   0.75000   0.00000  Uiso   1.00
O1113  O     0.43892   0.87154   0.74999   0.00000  Uiso   1.00
O1114  O     0.56108   0.79513   0.75000   0.00000  Uiso   1.00
O1115  O     0.56108   0.87154   0.75000   0.00000  Uiso   1.00
O1116  O     0.43892   0.79513   0.74999   0.00000  Uiso   1.00
O1117  O     0.50000   0.87155   0.68453   0.00000  Uiso   1.00
O1118  O     0.50000   0.79511   0.81547   0.00000  Uiso   1.00
O1119  O     0.50000   0.87155   0.81547   0.00000  Uiso   1.00
O1120  O     0.50000   0.79511   0.68453   0.00000  Uiso   1.00
Zn1121 Zn    0.50000   0.88437   0.75000   0.00000  Uiso   1.00
Zn1122 Zn    0.50000   0.78229   0.75000   0.00000  Uiso   1.00
C1123  C     0.75344   0.83334   0.75019   0.00000  Uiso   1.00
C1124  C     0.97885   0.87410   0.74973   0.00000  Uiso   1.00
C1125  C     0.97883   0.79265   0.74947   0.00000  Uiso   1.00
C1126  C     0.68784   0.87409   0.75045   0.00000  Uiso   1.00
C1127  C     0.84676   0.87166   0.54820   0.00000  Uiso   1.00
C1128  C     0.84825   0.79655   0.95414   0.00000  Uiso   1.00
C1129  C     0.81853   0.87116   0.95160   0.00000  Uiso   1.00
C1130  C     0.81925   0.79607   0.54590   0.00000  Uiso   1.00
C1131  C     0.84657   0.87158   0.59420   0.00000  Uiso   1.00
C1132  C     0.84806   0.79626   0.90814   0.00000  Uiso   1.00
C1133  C     0.81884   0.87110   0.90562   0.00000  Uiso   1.00
C1134  C     0.91323   0.83334   0.74982   0.00000  Uiso   1.00
C1135  C     0.81954   0.79579   0.59190   0.00000  Uiso   1.00
C1136  C     0.83313   0.83355   0.61609   0.00000  Uiso   1.00
C1137  C     0.83343   0.83354   0.88386   0.00000  Uiso   1.00
C1138  C     0.83305   0.83392   0.52403   0.00000  Uiso   1.00
C1139  C     0.83330   0.83391   0.97589   0.00000  Uiso   1.00
C1140  C     0.95744   0.83336   0.74952   0.00000  Uiso   1.00
C1141  C     0.70923   0.83336   0.75049   0.00000  Uiso   1.00
C1142  C     0.88960   0.71414   0.81228   0.00000  Uiso   1.00
C1143  C     0.77792   0.95235   0.68689   0.00000  Uiso   1.00
C1144  C     0.77707   0.71413   0.68772   0.00000  Uiso   1.00
C1145  C     0.83320   0.83336   0.66406   0.00000  Uiso   1.00
C1146  C     0.88873   0.95237   0.81313   0.00000  Uiso   1.00
C1147  C     0.83345   0.83336   0.83592   0.00000  Uiso   1.00
C1148  C     0.85967   0.69055   0.77929   0.00000  Uiso   1.00
C1149  C     0.80713   0.97607   0.72057   0.00000  Uiso   1.00
C1150  C     0.80700   0.69054   0.72071   0.00000  Uiso   1.00
C1151  C     0.85953   0.97608   0.77943   0.00000  Uiso   1.00
C1152  C     0.68782   0.79264   0.75040   0.00000  Uiso   1.00
F1153  F     0.70739   0.75253   0.75144   0.00000  Uiso   1.00
F1154  F     0.95928   0.91422   0.74902   0.00000  Uiso   1.00
F1155  F     0.95924   0.75253   0.74829   0.00000  Uiso   1.00
F1156  F     0.70743   0.91421   0.75132   0.00000  Uiso   1.00
H1157  H     0.85801   0.90087   0.53157   0.00000  Uiso   1.00
H1158  H     0.88288   0.70514   0.84687   0.00000  Uiso   1.00
H1159  H     0.92186   0.70454   0.80653   0.00000  Uiso   1.00
H1160  H     0.77781   0.91630   0.68983   0.00000  Uiso   1.00
H1161  H     0.74552   0.96267   0.69090   0.00000  Uiso   1.00
H1162  H     0.78625   0.96020   0.65251   0.00000  Uiso   1.00
H1163  H     0.77782   0.75025   0.68968   0.00000  Uiso   1.00
H1164  H     0.78381   0.70514   0.65312   0.00000  Uiso   1.00
H1165  H     0.74482   0.70450   0.69345   0.00000  Uiso   1.00
H1166  H     0.88887   0.91632   0.81016   0.00000  Uiso   1.00
H1167  H     0.92113   0.96272   0.80916   0.00000  Uiso   1.00
H1168  H     0.86035   0.76786   0.97273   0.00000  Uiso   1.00
H1169  H     0.88035   0.96019   0.84750   0.00000  Uiso   1.00
H1170  H     0.80639   0.89997   0.96815   0.00000  Uiso   1.00
H1171  H     0.80798   0.76697   0.52739   0.00000  Uiso   1.00
H1172  H     0.85744   0.90091   0.61259   0.00000  Uiso   1.00
H1173  H     0.85981   0.76725   0.89170   0.00000  Uiso   1.00
H1174  H     0.80715   0.90002   0.88711   0.00000  Uiso   1.00
H1175  H     0.80871   0.76636   0.60841   0.00000  Uiso   1.00
H1176  H     0.88884   0.75027   0.81032   0.00000  Uiso   1.00
N1177  N     0.83333   0.95240   0.75000   0.00000  Uiso   1.00
N1178  N     0.83333   0.71427   0.75000   0.00000  Uiso   1.00
O1179  O     0.77226   0.87154   0.74999   0.00000  Uiso   1.00
O1180  O     0.89441   0.79513   0.75000   0.00000  Uiso   1.00
O1181  O     0.89441   0.87154   0.75000   0.00000  Uiso   1.00
O1182  O     0.77226   0.79513   0.74999   0.00000  Uiso   1.00
O1183  O     0.83333   0.87155   0.68453   0.00000  Uiso   1.00
O1184  O     0.83334   0.79511   0.81547   0.00000  Uiso   1.00
O1185  O     0.83334   0.87155   0.81547   0.00000  Uiso   1.00
O1186  O     0.83333   0.79511   0.68453   0.00000  Uiso   1.00
Zn1187 Zn    0.83333   0.88437   0.75000   0.00000  Uiso   1.00
Zn1188 Zn    0.83333   0.78229   0.75000   0.00000  Uiso   1.00
loop_
_geom_bond_atom_site_label_1
_geom_bond_atom_site_label_2
_geom_bond_distance
_geom_bond_site_symmetry_2
_ccdc_geom_bond_type
C1     O57     1.297   .     A
C1     C19     1.432   .     S
C1     O60     1.297   .     A
C2     C18     1.403   .     A
C2     F32     1.359   .     S
C2     C70     1.369   .     S
C3     F33     1.358   .     S
C3     C18     1.403   .     A
C3     C96     1.369   .     S
C4     F34     1.359   .     S
C4     C19     1.404   .     A
C4     C134    1.369   1_455 S
C5     C9      1.381   .     A
C5     H35     1.083   .     S
C5     C16     1.399   .     A
C6     C10     1.380   .     A
C6     C17     1.399   .     A
C6     H46     1.083   .     S
C7     H48     1.083   .     S
C7     C11     1.381   .     A
C7     C17     1.399   .     A
C8     C13     1.380   .     A
C8     C16     1.399   .     A
C8     H49     1.083   .     S
C9     C14     1.400   .     A
C9     H50     1.084   .     S
C10    C15     1.398   .     A
C10    H51     1.082   .     S
C11    H52     1.084   .     S
C11    C15     1.400   .     A
C12    O58     1.297   .     A
C12    O59     1.297   .     A
C12    C18     1.432   .     S
C13    C14     1.399   .     A
C13    H53     1.082   .     S
C14    C23     1.440   .     S
C15    C25     1.439   .     S
C16    C611    1.446   1_554 S
C17    C610    1.446   .     S
C19    C30     1.403   .     A
C20    H37     1.109   .     S
C20    C26     1.512   .     S
C20    H36     1.109   .     S
C20    H54     1.084   .     S
C21    H39     1.109   .     S
C21    H40     1.110   .     S
C21    C27     1.513   .     S
C21    H38     1.084   .     S
C22    H43     1.108   .     S
C22    C28     1.512   .     S
C22    H42     1.109   .     S
C22    H41     1.084   .     S
C23    O64     1.300   .     A
C23    O61     1.299   .     A
C24    H47     1.110   .     S
C24    H45     1.109   .     S
C24    H44     1.084   .     S
C24    C29     1.513   .     S
C25    O62     1.300   .     A
C25    O63     1.299   .     A
C26    N56     1.379   .     A
C26    C425    1.433   1_545 S
C27    N55     1.378   .     A
C27    C226    1.433   .     S
C28    N56     1.379   .     A
C28    C423    1.433   1_545 S
C29    N55     1.378   .     A
C29    C224    1.433   .     S
C30    F31     1.358   .     S
C30    C135    1.369   1_455 S
N55    Zn65    2.038   .     S
N56    Zn66    2.038   .     S
O57    Zn65    2.015   .     S
O58    Zn66    2.015   .     S
O59    Zn65    2.015   .     S
O60    Zn66    2.015   .     S
O61    Zn65    2.003   .     S
O62    Zn66    2.003   .     S
O63    Zn65    2.003   .     S
O64    Zn66    2.003   .     S
C67    O123    1.297   .     A
C67    C85     1.432   .     S
C67    O126    1.297   .     A
C68    C84     1.403   .     A
C68    F98     1.359   .     S
C68    C136    1.369   .     S
C69    F99     1.358   .     S
C69    C84     1.403   .     A
C69    C162    1.369   .     S
C70    F100    1.359   .     S
C70    C85     1.404   .     A
C71    C75     1.381   .     A
C71    H101    1.083   .     S
C71    C82     1.399   .     A
C72    C76     1.380   .     A
C72    C83     1.399   .     A
C72    H112    1.083   .     S
C73    H114    1.083   .     S
C73    C77     1.381   .     A
C73    C83     1.399   .     A
C74    C79     1.380   .     A
C74    C82     1.399   .     A
C74    H115    1.083   .     S
C75    C80     1.400   .     A
C75    H116    1.084   .     S
C76    C81     1.398   .     A
C76    H117    1.082   .     S
C77    H118    1.084   .     S
C77    C81     1.400   .     A
C78    O124    1.297   .     A
C78    O125    1.297   .     A
C78    C84     1.432   .     S
C79    C80     1.399   .     A
C79    H119    1.082   .     S
C80    C89     1.440   .     S
C81    C91     1.439   .     S
C82    C677    1.446   1_554 S
C83    C676    1.446   .     S
C85    C96     1.403   .     A
C86    H103    1.109   .     S
C86    C92     1.512   .     S
C86    H102    1.109   .     S
C86    H120    1.084   .     S
C87    H105    1.109   .     S
C87    H106    1.110   .     S
C87    C93     1.513   .     S
C87    H104    1.084   .     S
C88    H109    1.108   .     S
C88    C94     1.512   .     S
C88    H108    1.109   .     S
C88    H107    1.084   .     S
C89    O130    1.300   .     A
C89    O127    1.299   .     A
C90    H113    1.110   .     S
C90    H111    1.109   .     S
C90    H110    1.084   .     S
C90    C95     1.513   .     S
C91    O128    1.300   .     A
C91    O129    1.299   .     A
C92    N122    1.379   .     A
C92    C491    1.433   1_545 S
C93    N121    1.378   .     A
C93    C292    1.433   .     S
C94    N122    1.379   .     A
C94    C489    1.433   1_545 S
C95    N121    1.378   .     A
C95    C290    1.433   .     S
C96    F97     1.358   .     S
N121   Zn131   2.038   .     S
N122   Zn132   2.038   .     S
O123   Zn131   2.015   .     S
O124   Zn132   2.015   .     S
O125   Zn131   2.015   .     S
O126   Zn132   2.015   .     S
O127   Zn131   2.003   .     S
O128   Zn132   2.003   .     S
O129   Zn131   2.003   .     S
O130   Zn132   2.003   .     S
C133   O189    1.297   .     A
C133   C151    1.432   .     S
C133   O192    1.297   .     A
C134   C150    1.403   .     A
C134   F164    1.359   .     S
C134   C4      1.369   1_655 S
C135   F165    1.358   .     S
C135   C150    1.403   .     A
C135   C30     1.369   1_655 S
C136   F166    1.359   .     S
C136   C151    1.404   .     A
C137   C141    1.381   .     A
C137   H167    1.083   .     S
C137   C148    1.399   .     A
C138   C142    1.380   .     A
C138   C149    1.399   .     A
C138   H178    1.083   .     S
C139   H180    1.083   .     S
C139   C143    1.381   .     A
C139   C149    1.399   .     A
C140   C145    1.380   .     A
C140   C148    1.399   .     A
C140   H181    1.083   .     S
C141   C146    1.400   .     A
C141   H182    1.084   .     S
C142   C147    1.398   .     A
C142   H183    1.082   .     S
C143   H184    1.084   .     S
C143   C147    1.400   .     A
C144   O190    1.297   .     A
C144   O191    1.297   .     A
C144   C150    1.432   .     S
C145   C146    1.399   .     A
C145   H185    1.082   .     S
C146   C155    1.440   .     S
C147   C157    1.439   .     S
C148   C743    1.446   1_554 S
C149   C742    1.446   .     S
C151   C162    1.403   .     A
C152   H169    1.109   .     S
C152   C158    1.512   .     S
C152   H168    1.109   .     S
C152   H186    1.084   .     S
C153   H171    1.109   .     S
C153   H172    1.110   .     S
C153   C159    1.513   .     S
C153   H170    1.084   .     S
C154   H175    1.108   .     S
C154   C160    1.512   .     S
C154   H174    1.109   .     S
C154   H173    1.084   .     S
C155   O196    1.300   .     A
C155   O193    1.299   .     A
C156   H179    1.110   .     S
C156   H177    1.109   .     S
C156   H176    1.084   .     S
C156   C161    1.513   .     S
C157   O194    1.300   .     A
C157   O195    1.299   .     A
C158   N188    1.379   .     A
C158   C557    1.433   1_545 S
C159   N187    1.378   .     A
C159   C358    1.433   .     S
C160   N188    1.379   .     A
C160   C555    1.433   1_545 S
C161   N187    1.378   .     A
C161   C356    1.433   .     S
C162   F163    1.358   .     S
N187   Zn197   2.038   .     S
N188   Zn198   2.038   .     S
O189   Zn197   2.015   .     S
O190   Zn198   2.015   .     S
O191   Zn197   2.015   .     S
O192   Zn198   2.015   .     S
O193   Zn197   2.003   .     S
O194   Zn198   2.003   .     S
O195   Zn197   2.003   .     S
O196   Zn198   2.003   .     S
C199   O255    1.297   .     A
C199   C217    1.432   .     S
C199   O258    1.297   .     A
C200   C216    1.403   .     A
C200   F230    1.359   .     S
C200   C268    1.369   .     S
C201   F231    1.358   .     S
C201   C216    1.403   .     A
C201   C294    1.369   .     S
C202   F232    1.359   .     S
C202   C217    1.404   .     A
C202   C332    1.369   1_455 S
C203   C207    1.381   .     A
C203   H233    1.083   .     S
C203   C214    1.399   .     A
C204   C208    1.380   .     A
C204   C215    1.399   .     A
C204   H244    1.083   .     S
C205   H246    1.083   .     S
C205   C209    1.381   .     A
C205   C215    1.399   .     A
C206   C211    1.380   .     A
C206   C214    1.399   .     A
C206   H247    1.083   .     S
C207   C212    1.400   .     A
C207   H248    1.084   .     S
C208   C213    1.398   .     A
C208   H249    1.082   .     S
C209   H250    1.084   .     S
C209   C213    1.400   .     A
C210   O256    1.297   .     A
C210   O257    1.297   .     A
C210   C216    1.432   .     S
C211   C212    1.399   .     A
C211   H251    1.082   .     S
C212   C221    1.440   .     S
C213   C223    1.439   .     S
C214   C809    1.446   1_554 S
C215   C808    1.446   .     S
C217   C228    1.403   .     A
C218   H235    1.109   .     S
C218   C224    1.512   .     S
C218   H234    1.109   .     S
C218   H252    1.084   .     S
C219   H237    1.109   .     S
C219   H238    1.110   .     S
C219   C225    1.513   .     S
C219   H236    1.084   .     S
C220   H241    1.108   .     S
C220   C226    1.512   .     S
C220   H240    1.109   .     S
C220   H239    1.084   .     S
C221   O262    1.300   .     A
C221   O259    1.299   .     A
C222   H245    1.110   .     S
C222   H243    1.109   .     S
C222   H242    1.084   .     S
C222   C227    1.513   .     S
C223   O260    1.300   .     A
C223   O261    1.299   .     A
C224   N254    1.379   .     A
C225   N253    1.378   .     A
C225   C424    1.433   .     S
C226   N254    1.379   .     A
C227   N253    1.378   .     A
C227   C422    1.433   .     S
C228   F229    1.358   .     S
C228   C333    1.369   1_455 S
N253   Zn263   2.038   .     S
N254   Zn264   2.038   .     S
O255   Zn263   2.015   .     S
O256   Zn264   2.015   .     S
O257   Zn263   2.015   .     S
O258   Zn264   2.015   .     S
O259   Zn263   2.003   .     S
O260   Zn264   2.003   .     S
O261   Zn263   2.003   .     S
O262   Zn264   2.003   .     S
C265   O321    1.297   .     A
C265   C283    1.432   .     S
C265   O324    1.297   .     A
C266   C282    1.403   .     A
C266   F296    1.359   .     S
C266   C334    1.369   .     S
C267   F297    1.358   .     S
C267   C282    1.403   .     A
C267   C360    1.369   .     S
C268   F298    1.359   .     S
C268   C283    1.404   .     A
C269   C273    1.381   .     A
C269   H299    1.083   .     S
C269   C280    1.399   .     A
C270   C274    1.380   .     A
C270   C281    1.399   .     A
C270   H310    1.083   .     S
C271   H312    1.083   .     S
C271   C275    1.381   .     A
C271   C281    1.399   .     A
C272   C277    1.380   .     A
C272   C280    1.399   .     A
C272   H313    1.083   .     S
C273   C278    1.400   .     A
C273   H314    1.084   .     S
C274   C279    1.398   .     A
C274   H315    1.082   .     S
C275   H316    1.084   .     S
C275   C279    1.400   .     A
C276   O322    1.297   .     A
C276   O323    1.297   .     A
C276   C282    1.432   .     S
C277   C278    1.399   .     A
C277   H317    1.082   .     S
C278   C287    1.440   .     S
C279   C289    1.439   .     S
C280   C875    1.446   1_554 S
C281   C874    1.446   .     S
C283   C294    1.403   .     A
C284   H301    1.109   .     S
C284   C290    1.512   .     S
C284   H300    1.109   .     S
C284   H318    1.084   .     S
C285   H303    1.109   .     S
C285   H304    1.110   .     S
C285   C291    1.513   .     S
C285   H302    1.084   .     S
C286   H307    1.108   .     S
C286   C292    1.512   .     S
C286   H306    1.109   .     S
C286   H305    1.084   .     S
C287   O328    1.300   .     A
C287   O325    1.299   .     A
C288   H311    1.110   .     S
C288   H309    1.109   .     S
C288   H308    1.084   .     S
C288   C293    1.513   .     S
C289   O326    1.300   .     A
C289   O327    1.299   .     A
C290   N320    1.379   .     A
C291   N319    1.378   .     A
C291   C490    1.433   .     S
C292   N320    1.379   .     A
C293   N319    1.378   .     A
C293   C488    1.433   .     S
C294   F295    1.358   .     S
N319   Zn329   2.038   .     S
N320   Zn330   2.038   .     S
O321   Zn329   2.015   .     S
O322   Zn330   2.015   .     S
O323   Zn329   2.015   .     S
O324   Zn330   2.015   .     S
O325   Zn329   2.003   .     S
O326   Zn330   2.003   .     S
O327   Zn329   2.003   .     S
O328   Zn330   2.003   .     S
C331   O387    1.297   .     A
C331   C349    1.432   .     S
C331   O390    1.297   .     A
C332   C348    1.403   .     A
C332   F362    1.359   .     S
C332   C202    1.369   1_655 S
C333   F363    1.358   .     S
C333   C348    1.403   .     A
C333   C228    1.369   1_655 S
C334   F364    1.359   .     S
C334   C349    1.404   .     A
C335   C339    1.381   .     A
C335   H365    1.083   .     S
C335   C346    1.399   .     A
C336   C340    1.380   .     A
C336   C347    1.399   .     A
C336   H376    1.083   .     S
C337   H378    1.083   .     S
C337   C341    1.381   .     A
C337   C347    1.399   .     A
C338   C343    1.380   .     A
C338   C346    1.399   .     A
C338   H379    1.083   .     S
C339   C344    1.400   .     A
C339   H380    1.084   .     S
C340   C345    1.398   .     A
C340   H381    1.082   .     S
C341   H382    1.084   .     S
C341   C345    1.400   .     A
C342   O388    1.297   .     A
C342   O389    1.297   .     A
C342   C348    1.432   .     S
C343   C344    1.399   .     A
C343   H383    1.082   .     S
C344   C353    1.440   .     S
C345   C355    1.439   .     S
C346   C941    1.446   1_554 S
C347   C940    1.446   .     S
C349   C360    1.403   .     A
C350   H367    1.109   .     S
C350   C356    1.512   .     S
C350   H366    1.109   .     S
C350   H384    1.084   .     S
C351   H369    1.109   .     S
C351   H370    1.110   .     S
C351   C357    1.513   .     S
C351   H368    1.084   .     S
C352   H373    1.108   .     S
C352   C358    1.512   .     S
C352   H372    1.109   .     S
C352   H371    1.084   .     S
C353   O394    1.300   .     A
C353   O391    1.299   .     A
C354   H377    1.110   .     S
C354   H375    1.109   .     S
C354   H374    1.084   .     S
C354   C359    1.513   .     S
C355   O392    1.300   .     A
C355   O393    1.299   .     A
C356   N386    1.379   .     A
C357   N385    1.378   .     A
C357   C556    1.433   .     S
C358   N386    1.379   .     A
C359   N385    1.378   .     A
C359   C554    1.433   .     S
C360   F361    1.358   .     S
N385   Zn395   2.038   .     S
N386   Zn396   2.038   .     S
O387   Zn395   2.015   .     S
O388   Zn396   2.015   .     S
O389   Zn395   2.015   .     S
O390   Zn396   2.015   .     S
O391   Zn395   2.003   .     S
O392   Zn396   2.003   .     S
O393   Zn395   2.003   .     S
O394   Zn396   2.003   .     S
C397   O453    1.297   .     A
C397   C415    1.432   .     S
C397   O456    1.297   .     A
C398   C414    1.403   .     A
C398   F428    1.359   .     S
C398   C466    1.369   .     S
C399   F429    1.358   .     S
C399   C414    1.403   .     A
C399   C492    1.369   .     S
C400   F430    1.359   .     S
C400   C415    1.404   .     A
C400   C530    1.369   1_455 S
C401   C405    1.381   .     A
C401   H431    1.083   .     S
C401   C412    1.399   .     A
C402   C406    1.380   .     A
C402   C413    1.399   .     A
C402   H442    1.083   .     S
C403   H444    1.083   .     S
C403   C407    1.381   .     A
C403   C413    1.399   .     A
C404   C409    1.380   .     A
C404   C412    1.399   .     A
C404   H445    1.083   .     S
C405   C410    1.400   .     A
C405   H446    1.084   .     S
C406   C411    1.398   .     A
C406   H447    1.082   .     S
C407   H448    1.084   .     S
C407   C411    1.400   .     A
C408   O454    1.297   .     A
C408   O455    1.297   .     A
C408   C414    1.432   .     S
C409   C410    1.399   .     A
C409   H449    1.082   .     S
C410   C419    1.440   .     S
C411   C421    1.439   .     S
C412   C1007   1.446   1_554 S
C413   C1006   1.446   .     S
C415   C426    1.403   .     A
C416   H433    1.109   .     S
C416   C422    1.512   .     S
C416   H432    1.109   .     S
C416   H450    1.084   .     S
C417   H435    1.109   .     S
C417   H436    1.110   .     S
C417   C423    1.513   .     S
C417   H434    1.084   .     S
C418   H439    1.108   .     S
C418   C424    1.512   .     S
C418   H438    1.109   .     S
C418   H437    1.084   .     S
C419   O460    1.300   .     A
C419   O457    1.299   .     A
C420   H443    1.110   .     S
C420   H441    1.109   .     S
C420   H440    1.084   .     S
C420   C425    1.513   .     S
C421   O458    1.300   .     A
C421   O459    1.299   .     A
C422   N452    1.379   .     A
C423   N451    1.378   .     A
C423   C28     1.433   1_565 S
C424   N452    1.379   .     A
C425   N451    1.378   .     A
C425   C26     1.433   1_565 S
C426   F427    1.358   .     S
C426   C531    1.369   1_455 S
N451   Zn461   2.038   .     S
N452   Zn462   2.038   .     S
O453   Zn461   2.015   .     S
O454   Zn462   2.015   .     S
O455   Zn461   2.015   .     S
O456   Zn462   2.015   .     S
O457   Zn461   2.003   .     S
O458   Zn462   2.003   .     S
O459   Zn461   2.003   .     S
O460   Zn462   2.003   .     S
C463   O519    1.297   .     A
C463   C481    1.432   .     S
C463   O522    1.297   .     A
C464   C480    1.403   .     A
C464   F494    1.359   .     S
C464   C532    1.369   .     S
C465   F495    1.358   .     S
C465   C480    1.403   .     A
C465   C558    1.369   .     S
C466   F496    1.359   .     S
C466   C481    1.404   .     A
C467   C471    1.381   .     A
C467   H497    1.083   .     S
C467   C478    1.399   .     A
C468   C472    1.380   .     A
C468   C479    1.399   .     A
C468   H508    1.083   .     S
C469   H510    1.083   .     S
C469   C473    1.381   .     A
C469   C479    1.399   .     A
C470   C475    1.380   .     A
C470   C478    1.399   .     A
C470   H511    1.083   .     S
C471   C476    1.400   .     A
C471   H512    1.084   .     S
C472   C477    1.398   .     A
C472   H513    1.082   .     S
C473   H514    1.084   .     S
C473   C477    1.400   .     A
C474   O520    1.297   .     A
C474   O521    1.297   .     A
C474   C480    1.432   .     S
C475   C476    1.399   .     A
C475   H515    1.082   .     S
C476   C485    1.440   .     S
C477   C487    1.439   .     S
C478   C1073   1.446   1_554 S
C479   C1072   1.446   .     S
C481   C492    1.403   .     A
C482   H499    1.109   .     S
C482   C488    1.512   .     S
C482   H498    1.109   .     S
C482   H516    1.084   .     S
C483   H501    1.109   .     S
C483   H502    1.110   .     S
C483   C489    1.513   .     S
C483   H500    1.084   .     S
C484   H505    1.108   .     S
C484   C490    1.512   .     S
C484   H504    1.109   .     S
C484   H503    1.084   .     S
C485   O526    1.300   .     A
C485   O523    1.299   .     A
C486   H509    1.110   .     S
C486   H507    1.109   .     S
C486   H506    1.084   .     S
C486   C491    1.513   .     S
C487   O524    1.300   .     A
C487   O525    1.299   .     A
C488   N518    1.379   .     A
C489   N517    1.378   .     A
C489   C94     1.433   1_565 S
C490   N518    1.379   .     A
C491   N517    1.378   .     A
C491   C92     1.433   1_565 S
C492   F493    1.358   .     S
N517   Zn527   2.038   .     S
N518   Zn528   2.038   .     S
O519   Zn527   2.015   .     S
O520   Zn528   2.015   .     S
O521   Zn527   2.015   .     S
O522   Zn528   2.015   .     S
O523   Zn527   2.003   .     S
O524   Zn528   2.003   .     S
O525   Zn527   2.003   .     S
O526   Zn528   2.003   .     S
C529   O585    1.297   .     A
C529   C547    1.432   .     S
C529   O588    1.297   .     A
C530   C546    1.403   .     A
C530   F560    1.359   .     S
C530   C400    1.369   1_655 S
C531   F561    1.358   .     S
C531   C546    1.403   .     A
C531   C426    1.369   1_655 S
C532   F562    1.359   .     S
C532   C547    1.404   .     A
C533   C537    1.381   .     A
C533   H563    1.083   .     S
C533   C544    1.399   .     A
C534   C538    1.380   .     A
C534   C545    1.399   .     A
C534   H574    1.083   .     S
C535   H576    1.083   .     S
C535   C539    1.381   .     A
C535   C545    1.399   .     A
C536   C541    1.380   .     A
C536   C544    1.399   .     A
C536   H577    1.083   .     S
C537   C542    1.400   .     A
C537   H578    1.084   .     S
C538   C543    1.398   .     A
C538   H579    1.082   .     S
C539   H580    1.084   .     S
C539   C543    1.400   .     A
C540   O586    1.297   .     A
C540   O587    1.297   .     A
C540   C546    1.432   .     S
C541   C542    1.399   .     A
C541   H581    1.082   .     S
C542   C551    1.440   .     S
C543   C553    1.439   .     S
C544   C1139   1.446   1_554 S
C545   C1138   1.446   .     S
C547   C558    1.403   .     A
C548   H565    1.109   .     S
C548   C554    1.512   .     S
C548   H564    1.109   .     S
C548   H582    1.084   .     S
C549   H567    1.109   .     S
C549   H568    1.110   .     S
C549   C555    1.513   .     S
C549   H566    1.084   .     S
C550   H571    1.108   .     S
C550   C556    1.512   .     S
C550   H570    1.109   .     S
C550   H569    1.084   .     S
C551   O592    1.300   .     A
C551   O589    1.299   .     A
C552   H575    1.110   .     S
C552   H573    1.109   .     S
C552   H572    1.084   .     S
C552   C557    1.513   .     S
C553   O590    1.300   .     A
C553   O591    1.299   .     A
C554   N584    1.379   .     A
C555   N583    1.378   .     A
C555   C160    1.433   1_565 S
C556   N584    1.379   .     A
C557   N583    1.378   .     A
C557   C158    1.433   1_565 S
C558   F559    1.358   .     S
N583   Zn593   2.038   .     S
N584   Zn594   2.038   .     S
O585   Zn593   2.015   .     S
O586   Zn594   2.015   .     S
O587   Zn593   2.015   .     S
O588   Zn594   2.015   .     S
O589   Zn593   2.003   .     S
O590   Zn594   2.003   .     S
O591   Zn593   2.003   .     S
O592   Zn594   2.003   .     S
C595   O651    1.297   .     A
C595   C613    1.432   .     S
C595   O654    1.297   .     A
C596   C612    1.403   .     A
C596   F626    1.359   .     S
C596   C664    1.369   .     S
C597   F627    1.358   .     S
C597   C612    1.403   .     A
C597   C690    1.369   .     S
C598   F628    1.359   .     S
C598   C613    1.404   .     A
C598   C728    1.369   1_455 S
C599   C603    1.381   .     A
C599   H629    1.083   .     S
C599   C610    1.399   .     A
C600   C604    1.380   .     A
C600   C611    1.399   .     A
C600   H640    1.083   .     S
C601   H642    1.083   .     S
C601   C605    1.381   .     A
C601   C611    1.399   .     A
C602   C607    1.380   .     A
C602   C610    1.399   .     A
C602   H643    1.083   .     S
C603   C608    1.400   .     A
C603   H644    1.084   .     S
C604   C609    1.398   .     A
C604   H645    1.082   .     S
C605   H646    1.084   .     S
C605   C609    1.400   .     A
C606   O652    1.297   .     A
C606   O653    1.297   .     A
C606   C612    1.432   .     S
C607   C608    1.399   .     A
C607   H647    1.082   .     S
C608   C617    1.440   .     S
C609   C619    1.439   .     S
C611   C16     1.446   1_556 S
C613   C624    1.403   .     A
C614   H631    1.109   .     S
C614   C620    1.512   .     S
C614   H630    1.109   .     S
C614   H648    1.084   .     S
C615   H633    1.109   .     S
C615   H634    1.110   .     S
C615   C621    1.513   .     S
C615   H632    1.084   .     S
C616   H637    1.108   .     S
C616   C622    1.512   .     S
C616   H636    1.109   .     S
C616   H635    1.084   .     S
C617   O658    1.300   .     A
C617   O655    1.299   .     A
C618   H641    1.110   .     S
C618   H639    1.109   .     S
C618   H638    1.084   .     S
C618   C623    1.513   .     S
C619   O656    1.300   .     A
C619   O657    1.299   .     A
C620   N650    1.379   .     A
C620   C1019   1.433   1_545 S
C621   N649    1.378   .     A
C621   C820    1.433   .     S
C622   N650    1.379   .     A
C622   C1017   1.433   1_545 S
C623   N649    1.378   .     A
C623   C818    1.433   .     S
C624   F625    1.358   .     S
C624   C729    1.369   1_455 S
N649   Zn659   2.038   .     S
N650   Zn660   2.038   .     S
O651   Zn659   2.015   .     S
O652   Zn660   2.015   .     S
O653   Zn659   2.015   .     S
O654   Zn660   2.015   .     S
O655   Zn659   2.003   .     S
O656   Zn660   2.003   .     S
O657   Zn659   2.003   .     S
O658   Zn660   2.003   .     S
C661   O717    1.297   .     A
C661   C679    1.432   .     S
C661   O720    1.297   .     A
C662   C678    1.403   .     A
C662   F692    1.359   .     S
C662   C730    1.369   .     S
C663   F693    1.358   .     S
C663   C678    1.403   .     A
C663   C756    1.369   .     S
C664   F694    1.359   .     S
C664   C679    1.404   .     A
C665   C669    1.381   .     A
C665   H695    1.083   .     S
C665   C676    1.399   .     A
C666   C670    1.380   .     A
C666   C677    1.399   .     A
C666   H706    1.083   .     S
C667   H708    1.083   .     S
C667   C671    1.381   .     A
C667   C677    1.399   .     A
C668   C673    1.380   .     A
C668   C676    1.399   .     A
C668   H709    1.083   .     S
C669   C674    1.400   .     A
C669   H710    1.084   .     S
C670   C675    1.398   .     A
C670   H711    1.082   .     S
C671   H712    1.084   .     S
C671   C675    1.400   .     A
C672   O718    1.297   .     A
C672   O719    1.297   .     A
C672   C678    1.432   .     S
C673   C674    1.399   .     A
C673   H713    1.082   .     S
C674   C683    1.440   .     S
C675   C685    1.439   .     S
C677   C82     1.446   1_556 S
C679   C690    1.403   .     A
C680   H697    1.109   .     S
C680   C686    1.512   .     S
C680   H696    1.109   .     S
C680   H714    1.084   .     S
C681   H699    1.109   .     S
C681   H700    1.110   .     S
C681   C687    1.513   .     S
C681   H698    1.084   .     S
C682   H703    1.108   .     S
C682   C688    1.512   .     S
C682   H702    1.109   .     S
C682   H701    1.084   .     S
C683   O724    1.300   .     A
C683   O721    1.299   .     A
C684   H707    1.110   .     S
C684   H705    1.109   .     S
C684   H704    1.084   .     S
C684   C689    1.513   .     S
C685   O722    1.300   .     A
C685   O723    1.299   .     A
C686   N716    1.379   .     A
C686   C1085   1.433   1_545 S
C687   N715    1.378   .     A
C687   C886    1.433   .     S
C688   N716    1.379   .     A
C688   C1083   1.433   1_545 S
C689   N715    1.378   .     A
C689   C884    1.433   .     S
C690   F691    1.358   .     S
N715   Zn725   2.038   .     S
N716   Zn726   2.038   .     S
O717   Zn725   2.015   .     S
O718   Zn726   2.015   .     S
O719   Zn725   2.015   .     S
O720   Zn726   2.015   .     S
O721   Zn725   2.003   .     S
O722   Zn726   2.003   .     S
O723   Zn725   2.003   .     S
O724   Zn726   2.003   .     S
C727   O783    1.297   .     A
C727   C745    1.432   .     S
C727   O786    1.297   .     A
C728   C744    1.403   .     A
C728   F758    1.359   .     S
C728   C598    1.369   1_655 S
C729   F759    1.358   .     S
C729   C744    1.403   .     A
C729   C624    1.369   1_655 S
C730   F760    1.359   .     S
C730   C745    1.404   .     A
C731   C735    1.381   .     A
C731   H761    1.083   .     S
C731   C742    1.399   .     A
C732   C736    1.380   .     A
C732   C743    1.399   .     A
C732   H772    1.083   .     S
C733   H774    1.083   .     S
C733   C737    1.381   .     A
C733   C743    1.399   .     A
C734   C739    1.380   .     A
C734   C742    1.399   .     A
C734   H775    1.083   .     S
C735   C740    1.400   .     A
C735   H776    1.084   .     S
C736   C741    1.398   .     A
C736   H777    1.082   .     S
C737   H778    1.084   .     S
C737   C741    1.400   .     A
C738   O784    1.297   .     A
C738   O785    1.297   .     A
C738   C744    1.432   .     S
C739   C740    1.399   .     A
C739   H779    1.082   .     S
C740   C749    1.440   .     S
C741   C751    1.439   .     S
C743   C148    1.446   1_556 S
C745   C756    1.403   .     A
C746   H763    1.109   .     S
C746   C752    1.512   .     S
C746   H762    1.109   .     S
C746   H780    1.084   .     S
C747   H765    1.109   .     S
C747   H766    1.110   .     S
C747   C753    1.513   .     S
C747   H764    1.084   .     S
C748   H769    1.108   .     S
C748   C754    1.512   .     S
C748   H768    1.109   .     S
C748   H767    1.084   .     S
C749   O790    1.300   .     A
C749   O787    1.299   .     A
C750   H773    1.110   .     S
C750   H771    1.109   .     S
C750   H770    1.084   .     S
C750   C755    1.513   .     S
C751   O788    1.300   .     A
C751   O789    1.299   .     A
C752   N782    1.379   .     A
C752   C1151   1.433   1_545 S
C753   N781    1.378   .     A
C753   C952    1.433   .     S
C754   N782    1.379   .     A
C754   C1149   1.433   1_545 S
C755   N781    1.378   .     A
C755   C950    1.433   .     S
C756   F757    1.358   .     S
N781   Zn791   2.038   .     S
N782   Zn792   2.038   .     S
O783   Zn791   2.015   .     S
O784   Zn792   2.015   .     S
O785   Zn791   2.015   .     S
O786   Zn792   2.015   .     S
O787   Zn791   2.003   .     S
O788   Zn792   2.003   .     S
O789   Zn791   2.003   .     S
O790   Zn792   2.003   .     S
C793   O849    1.297   .     A
C793   C811    1.432   .     S
C793   O852    1.297   .     A
C794   C810    1.403   .     A
C794   F824    1.359   .     S
C794   C862    1.369   .     S
C795   F825    1.358   .     S
C795   C810    1.403   .     A
C795   C888    1.369   .     S
C796   F826    1.359   .     S
C796   C811    1.404   .     A
C796   C926    1.369   1_455 S
C797   C801    1.381   .     A
C797   H827    1.083   .     S
C797   C808    1.399   .     A
C798   C802    1.380   .     A
C798   C809    1.399   .     A
C798   H838    1.083   .     S
C799   H840    1.083   .     S
C799   C803    1.381   .     A
C799   C809    1.399   .     A
C800   C805    1.380   .     A
C800   C808    1.399   .     A
C800   H841    1.083   .     S
C801   C806    1.400   .     A
C801   H842    1.084   .     S
C802   C807    1.398   .     A
C802   H843    1.082   .     S
C803   H844    1.084   .     S
C803   C807    1.400   .     A
C804   O850    1.297   .     A
C804   O851    1.297   .     A
C804   C810    1.432   .     S
C805   C806    1.399   .     A
C805   H845    1.082   .     S
C806   C815    1.440   .     S
C807   C817    1.439   .     S
C809   C214    1.446   1_556 S
C811   C822    1.403   .     A
C812   H829    1.109   .     S
C812   C818    1.512   .     S
C812   H828    1.109   .     S
C812   H846    1.084   .     S
C813   H831    1.109   .     S
C813   H832    1.110   .     S
C813   C819    1.513   .     S
C813   H830    1.084   .     S
C814   H835    1.108   .     S
C814   C820    1.512   .     S
C814   H834    1.109   .     S
C814   H833    1.084   .     S
C815   O856    1.300   .     A
C815   O853    1.299   .     A
C816   H839    1.110   .     S
C816   H837    1.109   .     S
C816   H836    1.084   .     S
C816   C821    1.513   .     S
C817   O854    1.300   .     A
C817   O855    1.299   .     A
C818   N848    1.379   .     A
C819   N847    1.378   .     A
C819   C1018   1.433   .     S
C820   N848    1.379   .     A
C821   N847    1.378   .     A
C821   C1016   1.433   .     S
C822   F823    1.358   .     S
C822   C927    1.369   1_455 S
N847   Zn857   2.038   .     S
N848   Zn858   2.038   .     S
O849   Zn857   2.015   .     S
O850   Zn858   2.015   .     S
O851   Zn857   2.015   .     S
O852   Zn858   2.015   .     S
O853   Zn857   2.003   .     S
O854   Zn858   2.003   .     S
O855   Zn857   2.003   .     S
O856   Zn858   2.003   .     S
C859   O915    1.297   .     A
C859   C877    1.432   .     S
C859   O918    1.297   .     A
C860   C876    1.403   .     A
C860   F890    1.359   .     S
C860   C928    1.369   .     S
C861   F891    1.358   .     S
C861   C876    1.403   .     A
C861   C954    1.369   .     S
C862   F892    1.359   .     S
C862   C877    1.404   .     A
C863   C867    1.381   .     A
C863   H893    1.083   .     S
C863   C874    1.399   .     A
C864   C868    1.380   .     A
C864   C875    1.399   .     A
C864   H904    1.083   .     S
C865   H906    1.083   .     S
C865   C869    1.381   .     A
C865   C875    1.399   .     A
C866   C871    1.380   .     A
C866   C874    1.399   .     A
C866   H907    1.083   .     S
C867   C872    1.400   .     A
C867   H908    1.084   .     S
C868   C873    1.398   .     A
C868   H909    1.082   .     S
C869   H910    1.084   .     S
C869   C873    1.400   .     A
C870   O916    1.297   .     A
C870   O917    1.297   .     A
C870   C876    1.432   .     S
C871   C872    1.399   .     A
C871   H911    1.082   .     S
C872   C881    1.440   .     S
C873   C883    1.439   .     S
C875   C280    1.446   1_556 S
C877   C888    1.403   .     A
C878   H895    1.109   .     S
C878   C884    1.512   .     S
C878   H894    1.109   .     S
C878   H912    1.084   .     S
C879   H897    1.109   .     S
C879   H898    1.110   .     S
C879   C885    1.513   .     S
C879   H896    1.084   .     S
C880   H901    1.108   .     S
C880   C886    1.512   .     S
C880   H900    1.109   .     S
C880   H899    1.084   .     S
C881   O922    1.300   .     A
C881   O919    1.299   .     A
C882   H905    1.110   .     S
C882   H903    1.109   .     S
C882   H902    1.084   .     S
C882   C887    1.513   .     S
C883   O920    1.300   .     A
C883   O921    1.299   .     A
C884   N914    1.379   .     A
C885   N913    1.378   .     A
C885   C1084   1.433   .     S
C886   N914    1.379   .     A
C887   N913    1.378   .     A
C887   C1082   1.433   .     S
C888   F889    1.358   .     S
N913   Zn923   2.038   .     S
N914   Zn924   2.038   .     S
O915   Zn923   2.015   .     S
O916   Zn924   2.015   .     S
O917   Zn923   2.015   .     S
O918   Zn924   2.015   .     S
O919   Zn923   2.003   .     S
O920   Zn924   2.003   .     S
O921   Zn923   2.003   .     S
O922   Zn924   2.003   .     S
C925   O981    1.297   .     A
C925   C943    1.432   .     S
C925   O984    1.297   .     A
C926   C942    1.403   .     A
C926   F956    1.359   .     S
C926   C796    1.369   1_655 S
C927   F957    1.358   .     S
C927   C942    1.403   .     A
C927   C822    1.369   1_655 S
C928   F958    1.359   .     S
C928   C943    1.404   .     A
C929   C933    1.381   .     A
C929   H959    1.083   .     S
C929   C940    1.399   .     A
C930   C934    1.380   .     A
C930   C941    1.399   .     A
C930   H970    1.083   .     S
C931   H972    1.083   .     S
C931   C935    1.381   .     A
C931   C941    1.399   .     A
C932   C937    1.380   .     A
C932   C940    1.399   .     A
C932   H973    1.083   .     S
C933   C938    1.400   .     A
C933   H974    1.084   .     S
C934   C939    1.398   .     A
C934   H975    1.082   .     S
C935   H976    1.084   .     S
C935   C939    1.400   .     A
C936   O982    1.297   .     A
C936   O983    1.297   .     A
C936   C942    1.432   .     S
C937   C938    1.399   .     A
C937   H977    1.082   .     S
C938   C947    1.440   .     S
C939   C949    1.439   .     S
C941   C346    1.446   1_556 S
C943   C954    1.403   .     A
C944   H961    1.109   .     S
C944   C950    1.512   .     S
C944   H960    1.109   .     S
C944   H978    1.084   .     S
C945   H963    1.109   .     S
C945   H964    1.110   .     S
C945   C951    1.513   .     S
C945   H962    1.084   .     S
C946   H967    1.108   .     S
C946   C952    1.512   .     S
C946   H966    1.109   .     S
C946   H965    1.084   .     S
C947   O988    1.300   .     A
C947   O985    1.299   .     A
C948   H971    1.110   .     S
C948   H969    1.109   .     S
C948   H968    1.084   .     S
C948   C953    1.513   .     S
C949   O986    1.300   .     A
C949   O987    1.299   .     A
C950   N980    1.379   .     A
C951   N979    1.378   .     A
C951   C1150   1.433   .     S
C952   N980    1.379   .     A
C953   N979    1.378   .     A
C953   C1148   1.433   .     S
C954   F955    1.358   .     S
N979   Zn989   2.038   .     S
N980   Zn990   2.038   .     S
O981   Zn989   2.015   .     S
O982   Zn990   2.015   .     S
O983   Zn989   2.015   .     S
O984   Zn990   2.015   .     S
O985   Zn989   2.003   .     S
O986   Zn990   2.003   .     S
O987   Zn989   2.003   .     S
O988   Zn990   2.003   .     S
C991   O1047   1.297   .     A
C991   C1009   1.432   .     S
C991   O1050   1.297   .     A
C992   C1008   1.403   .     A
C992   F1022   1.359   .     S
C992   C1060   1.369   .     S
C993   F1023   1.358   .     S
C993   C1008   1.403   .     A
C993   C1086   1.369   .     S
C994   F1024   1.359   .     S
C994   C1009   1.404   .     A
C994   C1124   1.369   1_455 S
C995   C999    1.381   .     A
C995   H1025   1.083   .     S
C995   C1006   1.399   .     A
C996   C1000   1.380   .     A
C996   C1007   1.399   .     A
C996   H1036   1.083   .     S
C997   H1038   1.083   .     S
C997   C1001   1.381   .     A
C997   C1007   1.399   .     A
C998   C1003   1.380   .     A
C998   C1006   1.399   .     A
C998   H1039   1.083   .     S
C999   C1004   1.400   .     A
C999   H1040   1.084   .     S
C1000  C1005   1.398   .     A
C1000  H1041   1.082   .     S
C1001  H1042   1.084   .     S
C1001  C1005   1.400   .     A
C1002  O1048   1.297   .     A
C1002  O1049   1.297   .     A
C1002  C1008   1.432   .     S
C1003  C1004   1.399   .     A
C1003  H1043   1.082   .     S
C1004  C1013   1.440   .     S
C1005  C1015   1.439   .     S
C1007  C412    1.446   1_556 S
C1009  C1020   1.403   .     A
C1010  H1027   1.109   .     S
C1010  C1016   1.512   .     S
C1010  H1026   1.109   .     S
C1010  H1044   1.084   .     S
C1011  H1029   1.109   .     S
C1011  H1030   1.110   .     S
C1011  C1017   1.513   .     S
C1011  H1028   1.084   .     S
C1012  H1033   1.108   .     S
C1012  C1018   1.512   .     S
C1012  H1032   1.109   .     S
C1012  H1031   1.084   .     S
C1013  O1054   1.300   .     A
C1013  O1051   1.299   .     A
C1014  H1037   1.110   .     S
C1014  H1035   1.109   .     S
C1014  H1034   1.084   .     S
C1014  C1019   1.513   .     S
C1015  O1052   1.300   .     A
C1015  O1053   1.299   .     A
C1016  N1046   1.379   .     A
C1017  N1045   1.378   .     A
C1017  C622    1.433   1_565 S
C1018  N1046   1.379   .     A
C1019  N1045   1.378   .     A
C1019  C620    1.433   1_565 S
C1020  F1021   1.358   .     S
C1020  C1125   1.369   1_455 S
N1045  Zn1055  2.038   .     S
N1046  Zn1056  2.038   .     S
O1047  Zn1055  2.015   .     S
O1048  Zn1056  2.015   .     S
O1049  Zn1055  2.015   .     S
O1050  Zn1056  2.015   .     S
O1051  Zn1055  2.003   .     S
O1052  Zn1056  2.003   .     S
O1053  Zn1055  2.003   .     S
O1054  Zn1056  2.003   .     S
C1057  O1113   1.297   .     A
C1057  C1075   1.432   .     S
C1057  O1116   1.297   .     A
C1058  C1074   1.403   .     A
C1058  F1088   1.359   .     S
C1058  C1126   1.369   .     S
C1059  F1089   1.358   .     S
C1059  C1074   1.403   .     A
C1059  C1152   1.369   .     S
C1060  F1090   1.359   .     S
C1060  C1075   1.404   .     A
C1061  C1065   1.381   .     A
C1061  H1091   1.083   .     S
C1061  C1072   1.399   .     A
C1062  C1066   1.380   .     A
C1062  C1073   1.399   .     A
C1062  H1102   1.083   .     S
C1063  H1104   1.083   .     S
C1063  C1067   1.381   .     A
C1063  C1073   1.399   .     A
C1064  C1069   1.380   .     A
C1064  C1072   1.399   .     A
C1064  H1105   1.083   .     S
C1065  C1070   1.400   .     A
C1065  H1106   1.084   .     S
C1066  C1071   1.398   .     A
C1066  H1107   1.082   .     S
C1067  H1108   1.084   .     S
C1067  C1071   1.400   .     A
C1068  O1114   1.297   .     A
C1068  O1115   1.297   .     A
C1068  C1074   1.432   .     S
C1069  C1070   1.399   .     A
C1069  H1109   1.082   .     S
C1070  C1079   1.440   .     S
C1071  C1081   1.439   .     S
C1073  C478    1.446   1_556 S
C1075  C1086   1.403   .     A
C1076  H1093   1.109   .     S
C1076  C1082   1.512   .     S
C1076  H1092   1.109   .     S
C1076  H1110   1.084   .     S
C1077  H1095   1.109   .     S
C1077  H1096   1.110   .     S
C1077  C1083   1.513   .     S
C1077  H1094   1.084   .     S
C1078  H1099   1.108   .     S
C1078  C1084   1.512   .     S
C1078  H1098   1.109   .     S
C1078  H1097   1.084   .     S
C1079  O1120   1.300   .     A
C1079  O1117   1.299   .     A
C1080  H1103   1.110   .     S
C1080  H1101   1.109   .     S
C1080  H1100   1.084   .     S
C1080  C1085   1.513   .     S
C1081  O1118   1.300   .     A
C1081  O1119   1.299   .     A
C1082  N1112   1.379   .     A
C1083  N1111   1.378   .     A
C1083  C688    1.433   1_565 S
C1084  N1112   1.379   .     A
C1085  N1111   1.378   .     A
C1085  C686    1.433   1_565 S
C1086  F1087   1.358   .     S
N1111  Zn1121  2.038   .     S
N1112  Zn1122  2.038   .     S
O1113  Zn1121  2.015   .     S
O1114  Zn1122  2.015   .     S
O1115  Zn1121  2.015   .     S
O1116  Zn1122  2.015   .     S
O1117  Zn1121  2.003   .     S
O1118  Zn1122  2.003   .     S
O1119  Zn1121  2.003   .     S
O1120  Zn1122  2.003   .     S
C1123  O1179   1.297   .     A
C1123  C1141   1.432   .     S
C1123  O1182   1.297   .     A
C1124  C1140   1.403   .     A
C1124  F1154   1.359   .     S
C1124  C994    1.369   1_655 S
C1125  F1155   1.358   .     S
C1125  C1140   1.403   .     A
C1125  C1020   1.369   1_655 S
C1126  F1156   1.359   .     S
C1126  C1141   1.404   .     A
C1127  C1131   1.381   .     A
C1127  H1157   1.083   .     S
C1127  C1138   1.399   .     A
C1128  C1132   1.380   .     A
C1128  C1139   1.399   .     A
C1128  H1168   1.083   .     S
C1129  H1170   1.083   .     S
C1129  C1133   1.381   .     A
C1129  C1139   1.399   .     A
C1130  C1135   1.380   .     A
C1130  C1138   1.399   .     A
C1130  H1171   1.083   .     S
C1131  C1136   1.400   .     A
C1131  H1172   1.084   .     S
C1132  C1137   1.398   .     A
C1132  H1173   1.082   .     S
C1133  H1174   1.084   .     S
C1133  C1137   1.400   .     A
C1134  O1180   1.297   .     A
C1134  O1181   1.297   .     A
C1134  C1140   1.432   .     S
C1135  C1136   1.399   .     A
C1135  H1175   1.082   .     S
C1136  C1145   1.440   .     S
C1137  C1147   1.439   .     S
C1139  C544    1.446   1_556 S
C1141  C1152   1.403   .     A
C1142  H1159   1.109   .     S
C1142  C1148   1.512   .     S
C1142  H1158   1.109   .     S
C1142  H1176   1.084   .     S
C1143  H1161   1.109   .     S
C1143  H1162   1.110   .     S
C1143  C1149   1.513   .     S
C1143  H1160   1.084   .     S
C1144  H1165   1.108   .     S
C1144  C1150   1.512   .     S
C1144  H1164   1.109   .     S
C1144  H1163   1.084   .     S
C1145  O1186   1.300   .     A
C1145  O1183   1.299   .     A
C1146  H1169   1.110   .     S
C1146  H1167   1.109   .     S
C1146  H1166   1.084   .     S
C1146  C1151   1.513   .     S
C1147  O1184   1.300   .     A
C1147  O1185   1.299   .     A
C1148  N1178   1.379   .     A
C1149  N1177   1.378   .     A
C1149  C754    1.433   1_565 S
C1150  N1178   1.379   .     A
C1151  N1177   1.378   .     A
C1151  C752    1.433   1_565 S
C1152  F1153   1.358   .     S
N1177  Zn1187  2.038   .     S
N1178  Zn1188  2.038   .     S
O1179  Zn1187  2.015   .     S
O1180  Zn1188  2.015   .     S
O1181  Zn1187  2.015   .     S
O1182  Zn1188  2.015   .     S
O1183  Zn1187  2.003   .     S
O1184  Zn1188  2.003   .     S
O1185  Zn1187  2.003   .     S
O1186  Zn1188  2.003   .     S
