data_str_m2_o10_o16_pcu_sym.136
_audit_creation_date              2020-01-03
_audit_creation_method            'Materials Studio'
_symmetry_space_group_name_H-M    'P1'
_symmetry_Int_Tables_number       1
_symmetry_cell_setting            triclinic
loop_
_symmetry_equiv_pos_as_xyz
  x,y,z
_cell_length_a                    22.2900
_cell_length_b                    26.0603
_cell_length_c                    26.8047
_cell_angle_alpha                 94.0403
_cell_angle_beta                  77.3819
_cell_angle_gamma                 103.1538
loop_
_atom_site_label
_atom_site_type_symbol
_atom_site_fract_x
_atom_site_fract_y
_atom_site_fract_z
_atom_site_U_iso_or_equiv
_atom_site_adp_type
_atom_site_occupancy
C1     C     0.18177   0.26674   0.25156   0.00000  Uiso   1.00
C2     C     0.13912   0.16823   0.48778   0.00000  Uiso   1.00
C3     C     0.15503   0.18409   0.43614   0.00000  Uiso   1.00
C4     C     0.18619   0.18118   0.01785   0.00000  Uiso   1.00
C5     C     0.24585   0.21363   0.49754   0.00000  Uiso   1.00
C6     C     0.25782   0.23361   0.44870   0.00000  Uiso   1.00
C7     C     0.21287   0.21979   0.41876   0.00000  Uiso   1.00
C8     C     0.17594   0.16273   0.06756   0.00000  Uiso   1.00
C9     C     0.27992   0.20996   0.07699   0.00000  Uiso   1.00
C10    C     0.11233   0.16435   0.40337   0.00000  Uiso   1.00
C11    C     0.19027   0.32270   0.25234   0.00000  Uiso   1.00
C12    C     0.13315   0.16589   0.34725   0.00000  Uiso   1.00
C13    C     0.14300   0.01063   0.24783   0.00000  Uiso   1.00
C14    C     0.15154   0.06660   0.24853   0.00000  Uiso   1.00
C15    C     0.20056   0.17037   0.15294   0.00000  Uiso   1.00
C16    C     0.29250   0.22690   0.02686   0.00000  Uiso   1.00
C17    C     0.22085   0.17905   0.09787   0.00000  Uiso   1.00
C18    C     0.05105   0.13696   0.42409   0.00000  Uiso   1.00
C19    C     0.03312   0.12531   0.47588   0.00000  Uiso   1.00
C20    C     0.07663   0.14064   0.00739   0.00000  Uiso   1.00
Cu21   Cu    0.10710   0.16105   0.24436   0.00000  Uiso   1.00
Cu22   Cu    0.22623   0.17228   0.25565   0.00000  Uiso   1.00
H23    H     0.31513   0.22297   0.10002   0.00000  Uiso   1.00
H24    H     0.09745   0.32014   0.24356   0.00000  Uiso   1.00
H25    H     0.00363   0.20590   0.28969   0.00000  Uiso   1.00
H26    H     0.32968   0.12741   0.21033   0.00000  Uiso   1.00
H27    H     0.30219   0.26017   0.43351   0.00000  Uiso   1.00
H28    H     0.00477   0.25164   0.01146   0.00000  Uiso   1.00
H29    H     0.13263   0.13633   0.08436   0.00000  Uiso   1.00
H30    H     0.01738   0.12295   0.39985   0.00000  Uiso   1.00
H31    H     0.05936   0.13118   0.04716   0.00000  Uiso   1.00
H32    H     0.22369   0.23860   0.38224   0.00000  Uiso   1.00
H33    H     0.23582   0.01319   0.25662   0.00000  Uiso   1.00
N34    N     0.31574   0.18074   0.26416   0.00000  Uiso   1.00
N35    N     0.01759   0.15259   0.23584   0.00000  Uiso   1.00
O36    O     0.12797   0.23807   0.24633   0.00000  Uiso   1.00
O37    O     0.22858   0.24755   0.25587   0.00000  Uiso   1.00
O38    O     0.09181   0.15960   0.31840   0.00000  Uiso   1.00
O39    O     0.19242   0.16908   0.32793   0.00000  Uiso   1.00
O40    O     0.10476   0.08578   0.24414   0.00000  Uiso   1.00
O41    O     0.20536   0.09526   0.25367   0.00000  Uiso   1.00
O42    O     0.14092   0.16425   0.17207   0.00000  Uiso   1.00
O43    O     0.24152   0.17373   0.18161   0.00000  Uiso   1.00
O44    O     0.30539   0.09993   0.49646   0.00000  Uiso   1.00
C45    C     0.30020   0.04519   0.48832   0.00000  Uiso   1.00
H46    H     0.33318   0.03065   0.00677   0.00000  Uiso   1.00
H47    H     0.30823   0.03457   0.44681   0.00000  Uiso   1.00
H48    H     0.25164   0.02466   0.00602   0.00000  Uiso   1.00
C49    C     0.51510   0.26674   0.25156   0.00000  Uiso   1.00
C50    C     0.47245   0.16823   0.48778   0.00000  Uiso   1.00
C51    C     0.48837   0.18409   0.43614   0.00000  Uiso   1.00
C52    C     0.51952   0.18118   0.01785   0.00000  Uiso   1.00
C53    C     0.57919   0.21363   0.49754   0.00000  Uiso   1.00
C54    C     0.59115   0.23361   0.44870   0.00000  Uiso   1.00
C55    C     0.54620   0.21979   0.41876   0.00000  Uiso   1.00
C56    C     0.50927   0.16273   0.06756   0.00000  Uiso   1.00
C57    C     0.61325   0.20996   0.07699   0.00000  Uiso   1.00
C58    C     0.44566   0.16435   0.40337   0.00000  Uiso   1.00
C59    C     0.52361   0.32270   0.25234   0.00000  Uiso   1.00
C60    C     0.46649   0.16589   0.34725   0.00000  Uiso   1.00
C61    C     0.47633   0.01063   0.24783   0.00000  Uiso   1.00
C62    C     0.48487   0.06660   0.24853   0.00000  Uiso   1.00
C63    C     0.53389   0.17037   0.15294   0.00000  Uiso   1.00
C64    C     0.62584   0.22690   0.02686   0.00000  Uiso   1.00
C65    C     0.55418   0.17905   0.09787   0.00000  Uiso   1.00
C66    C     0.38439   0.13696   0.42409   0.00000  Uiso   1.00
C67    C     0.36645   0.12531   0.47588   0.00000  Uiso   1.00
C68    C     0.40997   0.14064   0.00739   0.00000  Uiso   1.00
Cu69   Cu    0.44043   0.16105   0.24436   0.00000  Uiso   1.00
Cu70   Cu    0.55957   0.17228   0.25565   0.00000  Uiso   1.00
H71    H     0.64846   0.22297   0.10002   0.00000  Uiso   1.00
H72    H     0.43078   0.32014   0.24356   0.00000  Uiso   1.00
H73    H     0.33696   0.20590   0.28969   0.00000  Uiso   1.00
H74    H     0.66302   0.12741   0.21033   0.00000  Uiso   1.00
H75    H     0.63553   0.26017   0.43351   0.00000  Uiso   1.00
H76    H     0.33810   0.25164   0.01146   0.00000  Uiso   1.00
H77    H     0.46597   0.13633   0.08436   0.00000  Uiso   1.00
H78    H     0.35071   0.12295   0.39985   0.00000  Uiso   1.00
H79    H     0.39270   0.13118   0.04716   0.00000  Uiso   1.00
H80    H     0.55702   0.23860   0.38224   0.00000  Uiso   1.00
H81    H     0.56915   0.01319   0.25662   0.00000  Uiso   1.00
N82    N     0.64908   0.18074   0.26416   0.00000  Uiso   1.00
N83    N     0.35092   0.15259   0.23584   0.00000  Uiso   1.00
O84    O     0.46131   0.23807   0.24633   0.00000  Uiso   1.00
O85    O     0.56191   0.24755   0.25587   0.00000  Uiso   1.00
O86    O     0.42515   0.15960   0.31840   0.00000  Uiso   1.00
O87    O     0.52575   0.16908   0.32793   0.00000  Uiso   1.00
O88    O     0.43809   0.08578   0.24414   0.00000  Uiso   1.00
O89    O     0.53869   0.09526   0.25367   0.00000  Uiso   1.00
O90    O     0.47425   0.16425   0.17207   0.00000  Uiso   1.00
O91    O     0.57485   0.17373   0.18161   0.00000  Uiso   1.00
O92    O     0.63873   0.09993   0.49646   0.00000  Uiso   1.00
C93    C     0.63353   0.04519   0.48832   0.00000  Uiso   1.00
H94    H     0.66651   0.03065   0.00677   0.00000  Uiso   1.00
H95    H     0.64156   0.03457   0.44681   0.00000  Uiso   1.00
H96    H     0.58497   0.02466   0.00602   0.00000  Uiso   1.00
C97    C     0.84843   0.26674   0.25156   0.00000  Uiso   1.00
C98    C     0.80579   0.16823   0.48778   0.00000  Uiso   1.00
C99    C     0.82170   0.18409   0.43614   0.00000  Uiso   1.00
C100   C     0.85286   0.18118   0.01785   0.00000  Uiso   1.00
C101   C     0.91252   0.21363   0.49754   0.00000  Uiso   1.00
C102   C     0.92448   0.23361   0.44870   0.00000  Uiso   1.00
C103   C     0.87953   0.21979   0.41876   0.00000  Uiso   1.00
C104   C     0.84261   0.16273   0.06756   0.00000  Uiso   1.00
C105   C     0.94659   0.20996   0.07699   0.00000  Uiso   1.00
C106   C     0.77899   0.16435   0.40337   0.00000  Uiso   1.00
C107   C     0.85694   0.32270   0.25234   0.00000  Uiso   1.00
C108   C     0.79982   0.16589   0.34725   0.00000  Uiso   1.00
C109   C     0.80967   0.01063   0.24783   0.00000  Uiso   1.00
C110   C     0.81820   0.06660   0.24853   0.00000  Uiso   1.00
C111   C     0.86722   0.17037   0.15294   0.00000  Uiso   1.00
C112   C     0.95917   0.22690   0.02686   0.00000  Uiso   1.00
C113   C     0.88751   0.17905   0.09787   0.00000  Uiso   1.00
C114   C     0.71772   0.13696   0.42409   0.00000  Uiso   1.00
C115   C     0.69979   0.12531   0.47588   0.00000  Uiso   1.00
C116   C     0.74330   0.14064   0.00739   0.00000  Uiso   1.00
Cu117  Cu    0.77377   0.16105   0.24436   0.00000  Uiso   1.00
Cu118  Cu    0.89290   0.17228   0.25565   0.00000  Uiso   1.00
H119   H     0.98179   0.22297   0.10002   0.00000  Uiso   1.00
H120   H     0.76412   0.32014   0.24356   0.00000  Uiso   1.00
H121   H     0.67029   0.20590   0.28969   0.00000  Uiso   1.00
H122   H     0.99635   0.12741   0.21033   0.00000  Uiso   1.00
H123   H     0.96886   0.26017   0.43351   0.00000  Uiso   1.00
H124   H     0.67143   0.25164   0.01146   0.00000  Uiso   1.00
H125   H     0.79930   0.13633   0.08436   0.00000  Uiso   1.00
H126   H     0.68404   0.12295   0.39985   0.00000  Uiso   1.00
H127   H     0.72603   0.13118   0.04716   0.00000  Uiso   1.00
H128   H     0.89035   0.23860   0.38224   0.00000  Uiso   1.00
H129   H     0.90248   0.01319   0.25662   0.00000  Uiso   1.00
N130   N     0.98241   0.18074   0.26416   0.00000  Uiso   1.00
N131   N     0.68426   0.15259   0.23584   0.00000  Uiso   1.00
O132   O     0.79464   0.23807   0.24633   0.00000  Uiso   1.00
O133   O     0.89524   0.24755   0.25587   0.00000  Uiso   1.00
O134   O     0.75848   0.15960   0.31840   0.00000  Uiso   1.00
O135   O     0.85908   0.16908   0.32793   0.00000  Uiso   1.00
O136   O     0.77142   0.08578   0.24414   0.00000  Uiso   1.00
O137   O     0.87203   0.09526   0.25367   0.00000  Uiso   1.00
O138   O     0.80758   0.16425   0.17207   0.00000  Uiso   1.00
O139   O     0.90819   0.17373   0.18161   0.00000  Uiso   1.00
O140   O     0.97206   0.09993   0.49646   0.00000  Uiso   1.00
C141   C     0.96686   0.04519   0.48832   0.00000  Uiso   1.00
H142   H     0.99985   0.03065   0.00677   0.00000  Uiso   1.00
H143   H     0.97490   0.03457   0.44681   0.00000  Uiso   1.00
H144   H     0.91830   0.02466   0.00602   0.00000  Uiso   1.00
C145   C     0.18177   0.60007   0.25156   0.00000  Uiso   1.00
C146   C     0.13912   0.50156   0.48778   0.00000  Uiso   1.00
C147   C     0.15503   0.51742   0.43614   0.00000  Uiso   1.00
C148   C     0.18619   0.51451   0.01785   0.00000  Uiso   1.00
C149   C     0.24585   0.54697   0.49754   0.00000  Uiso   1.00
C150   C     0.25782   0.56695   0.44870   0.00000  Uiso   1.00
C151   C     0.21287   0.55312   0.41876   0.00000  Uiso   1.00
C152   C     0.17594   0.49607   0.06756   0.00000  Uiso   1.00
C153   C     0.27992   0.54329   0.07699   0.00000  Uiso   1.00
C154   C     0.11233   0.49768   0.40337   0.00000  Uiso   1.00
C155   C     0.19027   0.65604   0.25234   0.00000  Uiso   1.00
C156   C     0.13315   0.49923   0.34725   0.00000  Uiso   1.00
C157   C     0.14300   0.34396   0.24783   0.00000  Uiso   1.00
C158   C     0.15154   0.39993   0.24853   0.00000  Uiso   1.00
C159   C     0.20056   0.50370   0.15294   0.00000  Uiso   1.00
C160   C     0.29250   0.56023   0.02686   0.00000  Uiso   1.00
C161   C     0.22085   0.51238   0.09787   0.00000  Uiso   1.00
C162   C     0.05105   0.47029   0.42409   0.00000  Uiso   1.00
C163   C     0.03312   0.45864   0.47588   0.00000  Uiso   1.00
C164   C     0.07663   0.47397   0.00739   0.00000  Uiso   1.00
Cu165  Cu    0.10710   0.49439   0.24436   0.00000  Uiso   1.00
Cu166  Cu    0.22623   0.50561   0.25565   0.00000  Uiso   1.00
H167   H     0.31513   0.55631   0.10002   0.00000  Uiso   1.00
H168   H     0.09745   0.65347   0.24356   0.00000  Uiso   1.00
H169   H     0.00363   0.53924   0.28969   0.00000  Uiso   1.00
H170   H     0.32968   0.46074   0.21033   0.00000  Uiso   1.00
H171   H     0.30219   0.59351   0.43351   0.00000  Uiso   1.00
H172   H     0.00477   0.58497   0.01146   0.00000  Uiso   1.00
H173   H     0.13263   0.46966   0.08436   0.00000  Uiso   1.00
H174   H     0.01738   0.45628   0.39985   0.00000  Uiso   1.00
H175   H     0.05936   0.46451   0.04716   0.00000  Uiso   1.00
H176   H     0.22369   0.57193   0.38224   0.00000  Uiso   1.00
H177   H     0.23582   0.34653   0.25662   0.00000  Uiso   1.00
N178   N     0.31574   0.51407   0.26416   0.00000  Uiso   1.00
N179   N     0.01759   0.48593   0.23584   0.00000  Uiso   1.00
O180   O     0.12797   0.57141   0.24633   0.00000  Uiso   1.00
O181   O     0.22858   0.58089   0.25587   0.00000  Uiso   1.00
O182   O     0.09181   0.49293   0.31840   0.00000  Uiso   1.00
O183   O     0.19242   0.50241   0.32793   0.00000  Uiso   1.00
O184   O     0.10476   0.41911   0.24414   0.00000  Uiso   1.00
O185   O     0.20536   0.42859   0.25367   0.00000  Uiso   1.00
O186   O     0.14092   0.49759   0.17207   0.00000  Uiso   1.00
O187   O     0.24152   0.50707   0.18161   0.00000  Uiso   1.00
O188   O     0.30539   0.43326   0.49646   0.00000  Uiso   1.00
C189   C     0.30020   0.37852   0.48832   0.00000  Uiso   1.00
H190   H     0.33318   0.36398   0.00677   0.00000  Uiso   1.00
H191   H     0.30823   0.36790   0.44681   0.00000  Uiso   1.00
H192   H     0.25164   0.35799   0.00602   0.00000  Uiso   1.00
C193   C     0.51510   0.60007   0.25156   0.00000  Uiso   1.00
C194   C     0.47245   0.50156   0.48778   0.00000  Uiso   1.00
C195   C     0.48837   0.51742   0.43614   0.00000  Uiso   1.00
C196   C     0.51952   0.51451   0.01785   0.00000  Uiso   1.00
C197   C     0.57919   0.54697   0.49754   0.00000  Uiso   1.00
C198   C     0.59115   0.56695   0.44870   0.00000  Uiso   1.00
C199   C     0.54620   0.55312   0.41876   0.00000  Uiso   1.00
C200   C     0.50927   0.49607   0.06756   0.00000  Uiso   1.00
C201   C     0.61325   0.54329   0.07699   0.00000  Uiso   1.00
C202   C     0.44566   0.49768   0.40337   0.00000  Uiso   1.00
C203   C     0.52361   0.65604   0.25234   0.00000  Uiso   1.00
C204   C     0.46649   0.49923   0.34725   0.00000  Uiso   1.00
C205   C     0.47633   0.34396   0.24783   0.00000  Uiso   1.00
C206   C     0.48487   0.39993   0.24853   0.00000  Uiso   1.00
C207   C     0.53389   0.50370   0.15294   0.00000  Uiso   1.00
C208   C     0.62584   0.56023   0.02686   0.00000  Uiso   1.00
C209   C     0.55418   0.51238   0.09787   0.00000  Uiso   1.00
C210   C     0.38439   0.47029   0.42409   0.00000  Uiso   1.00
C211   C     0.36645   0.45864   0.47588   0.00000  Uiso   1.00
C212   C     0.40997   0.47397   0.00739   0.00000  Uiso   1.00
Cu213  Cu    0.44043   0.49439   0.24436   0.00000  Uiso   1.00
Cu214  Cu    0.55957   0.50561   0.25565   0.00000  Uiso   1.00
H215   H     0.64846   0.55631   0.10002   0.00000  Uiso   1.00
H216   H     0.43078   0.65347   0.24356   0.00000  Uiso   1.00
H217   H     0.33696   0.53924   0.28969   0.00000  Uiso   1.00
H218   H     0.66302   0.46074   0.21033   0.00000  Uiso   1.00
H219   H     0.63553   0.59351   0.43351   0.00000  Uiso   1.00
H220   H     0.33810   0.58497   0.01146   0.00000  Uiso   1.00
H221   H     0.46597   0.46966   0.08436   0.00000  Uiso   1.00
H222   H     0.35071   0.45628   0.39985   0.00000  Uiso   1.00
H223   H     0.39270   0.46451   0.04716   0.00000  Uiso   1.00
H224   H     0.55702   0.57193   0.38224   0.00000  Uiso   1.00
H225   H     0.56915   0.34653   0.25662   0.00000  Uiso   1.00
N226   N     0.64908   0.51407   0.26416   0.00000  Uiso   1.00
N227   N     0.35092   0.48593   0.23584   0.00000  Uiso   1.00
O228   O     0.46131   0.57141   0.24633   0.00000  Uiso   1.00
O229   O     0.56191   0.58089   0.25587   0.00000  Uiso   1.00
O230   O     0.42515   0.49293   0.31840   0.00000  Uiso   1.00
O231   O     0.52575   0.50241   0.32793   0.00000  Uiso   1.00
O232   O     0.43809   0.41911   0.24414   0.00000  Uiso   1.00
O233   O     0.53869   0.42859   0.25367   0.00000  Uiso   1.00
O234   O     0.47425   0.49759   0.17207   0.00000  Uiso   1.00
O235   O     0.57485   0.50707   0.18161   0.00000  Uiso   1.00
O236   O     0.63873   0.43326   0.49646   0.00000  Uiso   1.00
C237   C     0.63353   0.37852   0.48832   0.00000  Uiso   1.00
H238   H     0.66651   0.36398   0.00677   0.00000  Uiso   1.00
H239   H     0.64156   0.36790   0.44681   0.00000  Uiso   1.00
H240   H     0.58497   0.35799   0.00602   0.00000  Uiso   1.00
C241   C     0.84843   0.60007   0.25156   0.00000  Uiso   1.00
C242   C     0.80579   0.50156   0.48778   0.00000  Uiso   1.00
C243   C     0.82170   0.51742   0.43614   0.00000  Uiso   1.00
C244   C     0.85286   0.51451   0.01785   0.00000  Uiso   1.00
C245   C     0.91252   0.54697   0.49754   0.00000  Uiso   1.00
C246   C     0.92448   0.56695   0.44870   0.00000  Uiso   1.00
C247   C     0.87953   0.55312   0.41876   0.00000  Uiso   1.00
C248   C     0.84261   0.49607   0.06756   0.00000  Uiso   1.00
C249   C     0.94659   0.54329   0.07699   0.00000  Uiso   1.00
C250   C     0.77899   0.49768   0.40337   0.00000  Uiso   1.00
C251   C     0.85694   0.65604   0.25234   0.00000  Uiso   1.00
C252   C     0.79982   0.49923   0.34725   0.00000  Uiso   1.00
C253   C     0.80967   0.34396   0.24783   0.00000  Uiso   1.00
C254   C     0.81820   0.39993   0.24853   0.00000  Uiso   1.00
C255   C     0.86722   0.50370   0.15294   0.00000  Uiso   1.00
C256   C     0.95917   0.56023   0.02686   0.00000  Uiso   1.00
C257   C     0.88751   0.51238   0.09787   0.00000  Uiso   1.00
C258   C     0.71772   0.47029   0.42409   0.00000  Uiso   1.00
C259   C     0.69979   0.45864   0.47588   0.00000  Uiso   1.00
C260   C     0.74330   0.47397   0.00739   0.00000  Uiso   1.00
Cu261  Cu    0.77377   0.49439   0.24436   0.00000  Uiso   1.00
Cu262  Cu    0.89290   0.50561   0.25565   0.00000  Uiso   1.00
H263   H     0.98179   0.55631   0.10002   0.00000  Uiso   1.00
H264   H     0.76412   0.65347   0.24356   0.00000  Uiso   1.00
H265   H     0.67029   0.53924   0.28969   0.00000  Uiso   1.00
H266   H     0.99635   0.46074   0.21033   0.00000  Uiso   1.00
H267   H     0.96886   0.59351   0.43351   0.00000  Uiso   1.00
H268   H     0.67143   0.58497   0.01146   0.00000  Uiso   1.00
H269   H     0.79930   0.46966   0.08436   0.00000  Uiso   1.00
H270   H     0.68404   0.45628   0.39985   0.00000  Uiso   1.00
H271   H     0.72603   0.46451   0.04716   0.00000  Uiso   1.00
H272   H     0.89035   0.57193   0.38224   0.00000  Uiso   1.00
H273   H     0.90248   0.34653   0.25662   0.00000  Uiso   1.00
N274   N     0.98241   0.51407   0.26416   0.00000  Uiso   1.00
N275   N     0.68426   0.48593   0.23584   0.00000  Uiso   1.00
O276   O     0.79464   0.57141   0.24633   0.00000  Uiso   1.00
O277   O     0.89524   0.58089   0.25587   0.00000  Uiso   1.00
O278   O     0.75848   0.49293   0.31840   0.00000  Uiso   1.00
O279   O     0.85908   0.50241   0.32793   0.00000  Uiso   1.00
O280   O     0.77142   0.41911   0.24414   0.00000  Uiso   1.00
O281   O     0.87203   0.42859   0.25367   0.00000  Uiso   1.00
O282   O     0.80758   0.49759   0.17207   0.00000  Uiso   1.00
O283   O     0.90819   0.50707   0.18161   0.00000  Uiso   1.00
O284   O     0.97206   0.43326   0.49646   0.00000  Uiso   1.00
C285   C     0.96686   0.37852   0.48832   0.00000  Uiso   1.00
H286   H     0.99985   0.36398   0.00677   0.00000  Uiso   1.00
H287   H     0.97490   0.36790   0.44681   0.00000  Uiso   1.00
H288   H     0.91830   0.35799   0.00602   0.00000  Uiso   1.00
C289   C     0.18177   0.93341   0.25156   0.00000  Uiso   1.00
C290   C     0.13912   0.83490   0.48778   0.00000  Uiso   1.00
C291   C     0.15503   0.85076   0.43614   0.00000  Uiso   1.00
C292   C     0.18619   0.84784   0.01785   0.00000  Uiso   1.00
C293   C     0.24585   0.88030   0.49754   0.00000  Uiso   1.00
C294   C     0.25782   0.90028   0.44870   0.00000  Uiso   1.00
C295   C     0.21287   0.88645   0.41876   0.00000  Uiso   1.00
C296   C     0.17594   0.82940   0.06756   0.00000  Uiso   1.00
C297   C     0.27992   0.87662   0.07699   0.00000  Uiso   1.00
C298   C     0.11233   0.83102   0.40337   0.00000  Uiso   1.00
C299   C     0.19027   0.98937   0.25234   0.00000  Uiso   1.00
C300   C     0.13315   0.83256   0.34725   0.00000  Uiso   1.00
C301   C     0.14300   0.67729   0.24783   0.00000  Uiso   1.00
C302   C     0.15154   0.73326   0.24853   0.00000  Uiso   1.00
C303   C     0.20056   0.83703   0.15294   0.00000  Uiso   1.00
C304   C     0.29250   0.89357   0.02686   0.00000  Uiso   1.00
C305   C     0.22085   0.84571   0.09787   0.00000  Uiso   1.00
C306   C     0.05105   0.80363   0.42409   0.00000  Uiso   1.00
C307   C     0.03312   0.79197   0.47588   0.00000  Uiso   1.00
C308   C     0.07663   0.80730   0.00739   0.00000  Uiso   1.00
Cu309  Cu    0.10710   0.82772   0.24436   0.00000  Uiso   1.00
Cu310  Cu    0.22623   0.83895   0.25565   0.00000  Uiso   1.00
H311   H     0.31513   0.88964   0.10002   0.00000  Uiso   1.00
H312   H     0.09745   0.98680   0.24356   0.00000  Uiso   1.00
H313   H     0.00363   0.87257   0.28969   0.00000  Uiso   1.00
H314   H     0.32968   0.79408   0.21033   0.00000  Uiso   1.00
H315   H     0.30219   0.92684   0.43351   0.00000  Uiso   1.00
H316   H     0.00477   0.91831   0.01146   0.00000  Uiso   1.00
H317   H     0.13263   0.80300   0.08436   0.00000  Uiso   1.00
H318   H     0.01738   0.78961   0.39985   0.00000  Uiso   1.00
H319   H     0.05936   0.79785   0.04716   0.00000  Uiso   1.00
H320   H     0.22369   0.90526   0.38224   0.00000  Uiso   1.00
H321   H     0.23582   0.67986   0.25662   0.00000  Uiso   1.00
N322   N     0.31574   0.84741   0.26416   0.00000  Uiso   1.00
N323   N     0.01759   0.81926   0.23584   0.00000  Uiso   1.00
O324   O     0.12797   0.90474   0.24633   0.00000  Uiso   1.00
O325   O     0.22858   0.91422   0.25587   0.00000  Uiso   1.00
O326   O     0.09181   0.82627   0.31840   0.00000  Uiso   1.00
O327   O     0.19242   0.83575   0.32793   0.00000  Uiso   1.00
O328   O     0.10476   0.75245   0.24414   0.00000  Uiso   1.00
O329   O     0.20536   0.76193   0.25367   0.00000  Uiso   1.00
O330   O     0.14092   0.83092   0.17207   0.00000  Uiso   1.00
O331   O     0.24152   0.84040   0.18161   0.00000  Uiso   1.00
O332   O     0.30539   0.76660   0.49646   0.00000  Uiso   1.00
C333   C     0.30020   0.71186   0.48832   0.00000  Uiso   1.00
H334   H     0.33318   0.69731   0.00677   0.00000  Uiso   1.00
H335   H     0.30823   0.70124   0.44681   0.00000  Uiso   1.00
H336   H     0.25164   0.69132   0.00602   0.00000  Uiso   1.00
C337   C     0.51510   0.93341   0.25156   0.00000  Uiso   1.00
C338   C     0.47245   0.83490   0.48778   0.00000  Uiso   1.00
C339   C     0.48837   0.85076   0.43614   0.00000  Uiso   1.00
C340   C     0.51952   0.84784   0.01785   0.00000  Uiso   1.00
C341   C     0.57919   0.88030   0.49754   0.00000  Uiso   1.00
C342   C     0.59115   0.90028   0.44870   0.00000  Uiso   1.00
C343   C     0.54620   0.88645   0.41876   0.00000  Uiso   1.00
C344   C     0.50927   0.82940   0.06756   0.00000  Uiso   1.00
C345   C     0.61325   0.87662   0.07699   0.00000  Uiso   1.00
C346   C     0.44566   0.83102   0.40337   0.00000  Uiso   1.00
C347   C     0.52361   0.98937   0.25234   0.00000  Uiso   1.00
C348   C     0.46649   0.83256   0.34725   0.00000  Uiso   1.00
C349   C     0.47633   0.67729   0.24783   0.00000  Uiso   1.00
C350   C     0.48487   0.73326   0.24853   0.00000  Uiso   1.00
C351   C     0.53389   0.83703   0.15294   0.00000  Uiso   1.00
C352   C     0.62584   0.89357   0.02686   0.00000  Uiso   1.00
C353   C     0.55418   0.84571   0.09787   0.00000  Uiso   1.00
C354   C     0.38439   0.80363   0.42409   0.00000  Uiso   1.00
C355   C     0.36645   0.79197   0.47588   0.00000  Uiso   1.00
C356   C     0.40997   0.80730   0.00739   0.00000  Uiso   1.00
Cu357  Cu    0.44043   0.82772   0.24436   0.00000  Uiso   1.00
Cu358  Cu    0.55957   0.83895   0.25565   0.00000  Uiso   1.00
H359   H     0.64846   0.88964   0.10002   0.00000  Uiso   1.00
H360   H     0.43078   0.98680   0.24356   0.00000  Uiso   1.00
H361   H     0.33696   0.87257   0.28969   0.00000  Uiso   1.00
H362   H     0.66302   0.79408   0.21033   0.00000  Uiso   1.00
H363   H     0.63553   0.92684   0.43351   0.00000  Uiso   1.00
H364   H     0.33810   0.91831   0.01146   0.00000  Uiso   1.00
H365   H     0.46597   0.80300   0.08436   0.00000  Uiso   1.00
H366   H     0.35071   0.78961   0.39985   0.00000  Uiso   1.00
H367   H     0.39270   0.79785   0.04716   0.00000  Uiso   1.00
H368   H     0.55702   0.90526   0.38224   0.00000  Uiso   1.00
H369   H     0.56915   0.67986   0.25662   0.00000  Uiso   1.00
N370   N     0.64908   0.84741   0.26416   0.00000  Uiso   1.00
N371   N     0.35092   0.81926   0.23584   0.00000  Uiso   1.00
O372   O     0.46131   0.90474   0.24633   0.00000  Uiso   1.00
O373   O     0.56191   0.91422   0.25587   0.00000  Uiso   1.00
O374   O     0.42515   0.82627   0.31840   0.00000  Uiso   1.00
O375   O     0.52575   0.83575   0.32793   0.00000  Uiso   1.00
O376   O     0.43809   0.75245   0.24414   0.00000  Uiso   1.00
O377   O     0.53869   0.76193   0.25367   0.00000  Uiso   1.00
O378   O     0.47425   0.83092   0.17207   0.00000  Uiso   1.00
O379   O     0.57485   0.84040   0.18161   0.00000  Uiso   1.00
O380   O     0.63873   0.76660   0.49646   0.00000  Uiso   1.00
C381   C     0.63353   0.71186   0.48832   0.00000  Uiso   1.00
H382   H     0.66651   0.69731   0.00677   0.00000  Uiso   1.00
H383   H     0.64156   0.70124   0.44681   0.00000  Uiso   1.00
H384   H     0.58497   0.69132   0.00602   0.00000  Uiso   1.00
C385   C     0.84843   0.93341   0.25156   0.00000  Uiso   1.00
C386   C     0.80579   0.83490   0.48778   0.00000  Uiso   1.00
C387   C     0.82170   0.85076   0.43614   0.00000  Uiso   1.00
C388   C     0.85286   0.84784   0.01785   0.00000  Uiso   1.00
C389   C     0.91252   0.88030   0.49754   0.00000  Uiso   1.00
C390   C     0.92448   0.90028   0.44870   0.00000  Uiso   1.00
C391   C     0.87953   0.88645   0.41876   0.00000  Uiso   1.00
C392   C     0.84261   0.82940   0.06756   0.00000  Uiso   1.00
C393   C     0.94659   0.87662   0.07699   0.00000  Uiso   1.00
C394   C     0.77899   0.83102   0.40337   0.00000  Uiso   1.00
C395   C     0.85694   0.98937   0.25234   0.00000  Uiso   1.00
C396   C     0.79982   0.83256   0.34725   0.00000  Uiso   1.00
C397   C     0.80967   0.67729   0.24783   0.00000  Uiso   1.00
C398   C     0.81820   0.73326   0.24853   0.00000  Uiso   1.00
C399   C     0.86722   0.83703   0.15294   0.00000  Uiso   1.00
C400   C     0.95917   0.89357   0.02686   0.00000  Uiso   1.00
C401   C     0.88751   0.84571   0.09787   0.00000  Uiso   1.00
C402   C     0.71772   0.80363   0.42409   0.00000  Uiso   1.00
C403   C     0.69979   0.79197   0.47588   0.00000  Uiso   1.00
C404   C     0.74330   0.80730   0.00739   0.00000  Uiso   1.00
Cu405  Cu    0.77377   0.82772   0.24436   0.00000  Uiso   1.00
Cu406  Cu    0.89290   0.83895   0.25565   0.00000  Uiso   1.00
H407   H     0.98179   0.88964   0.10002   0.00000  Uiso   1.00
H408   H     0.76412   0.98680   0.24356   0.00000  Uiso   1.00
H409   H     0.67029   0.87257   0.28969   0.00000  Uiso   1.00
H410   H     0.99635   0.79408   0.21033   0.00000  Uiso   1.00
H411   H     0.96886   0.92684   0.43351   0.00000  Uiso   1.00
H412   H     0.67143   0.91831   0.01146   0.00000  Uiso   1.00
H413   H     0.79930   0.80300   0.08436   0.00000  Uiso   1.00
H414   H     0.68404   0.78961   0.39985   0.00000  Uiso   1.00
H415   H     0.72603   0.79785   0.04716   0.00000  Uiso   1.00
H416   H     0.89035   0.90526   0.38224   0.00000  Uiso   1.00
H417   H     0.90248   0.67986   0.25662   0.00000  Uiso   1.00
N418   N     0.98241   0.84741   0.26416   0.00000  Uiso   1.00
N419   N     0.68426   0.81926   0.23584   0.00000  Uiso   1.00
O420   O     0.79464   0.90474   0.24633   0.00000  Uiso   1.00
O421   O     0.89524   0.91422   0.25587   0.00000  Uiso   1.00
O422   O     0.75848   0.82627   0.31840   0.00000  Uiso   1.00
O423   O     0.85908   0.83575   0.32793   0.00000  Uiso   1.00
O424   O     0.77142   0.75245   0.24414   0.00000  Uiso   1.00
O425   O     0.87203   0.76193   0.25367   0.00000  Uiso   1.00
O426   O     0.80758   0.83092   0.17207   0.00000  Uiso   1.00
O427   O     0.90819   0.84040   0.18161   0.00000  Uiso   1.00
O428   O     0.97206   0.76660   0.49646   0.00000  Uiso   1.00
C429   C     0.96686   0.71186   0.48832   0.00000  Uiso   1.00
H430   H     0.99985   0.69731   0.00677   0.00000  Uiso   1.00
H431   H     0.97490   0.70124   0.44681   0.00000  Uiso   1.00
H432   H     0.91830   0.69132   0.00602   0.00000  Uiso   1.00
C433   C     0.18177   0.26674   0.75156   0.00000  Uiso   1.00
C434   C     0.13912   0.16823   0.98778   0.00000  Uiso   1.00
C435   C     0.15503   0.18409   0.93614   0.00000  Uiso   1.00
C436   C     0.18619   0.18118   0.51785   0.00000  Uiso   1.00
C437   C     0.24585   0.21363   0.99754   0.00000  Uiso   1.00
C438   C     0.25782   0.23361   0.94870   0.00000  Uiso   1.00
C439   C     0.21287   0.21979   0.91876   0.00000  Uiso   1.00
C440   C     0.17594   0.16273   0.56756   0.00000  Uiso   1.00
C441   C     0.27992   0.20996   0.57699   0.00000  Uiso   1.00
C442   C     0.11233   0.16435   0.90337   0.00000  Uiso   1.00
C443   C     0.19027   0.32270   0.75234   0.00000  Uiso   1.00
C444   C     0.13315   0.16589   0.84725   0.00000  Uiso   1.00
C445   C     0.14300   0.01063   0.74783   0.00000  Uiso   1.00
C446   C     0.15154   0.06660   0.74853   0.00000  Uiso   1.00
C447   C     0.20056   0.17037   0.65294   0.00000  Uiso   1.00
C448   C     0.29250   0.22690   0.52686   0.00000  Uiso   1.00
C449   C     0.22085   0.17905   0.59787   0.00000  Uiso   1.00
C450   C     0.05105   0.13696   0.92409   0.00000  Uiso   1.00
C451   C     0.03312   0.12531   0.97588   0.00000  Uiso   1.00
C452   C     0.07663   0.14064   0.50739   0.00000  Uiso   1.00
Cu453  Cu    0.10710   0.16105   0.74436   0.00000  Uiso   1.00
Cu454  Cu    0.22623   0.17228   0.75565   0.00000  Uiso   1.00
H455   H     0.31513   0.22297   0.60002   0.00000  Uiso   1.00
H456   H     0.09745   0.32014   0.74356   0.00000  Uiso   1.00
H457   H     0.00363   0.20590   0.78969   0.00000  Uiso   1.00
H458   H     0.32968   0.12741   0.71033   0.00000  Uiso   1.00
H459   H     0.30219   0.26017   0.93351   0.00000  Uiso   1.00
H460   H     0.00477   0.25164   0.51146   0.00000  Uiso   1.00
H461   H     0.13263   0.13633   0.58436   0.00000  Uiso   1.00
H462   H     0.01738   0.12295   0.89985   0.00000  Uiso   1.00
H463   H     0.05936   0.13118   0.54716   0.00000  Uiso   1.00
H464   H     0.22369   0.23860   0.88224   0.00000  Uiso   1.00
H465   H     0.23582   0.01319   0.75662   0.00000  Uiso   1.00
N466   N     0.31574   0.18074   0.76416   0.00000  Uiso   1.00
N467   N     0.01759   0.15259   0.73584   0.00000  Uiso   1.00
O468   O     0.12797   0.23807   0.74633   0.00000  Uiso   1.00
O469   O     0.22858   0.24755   0.75587   0.00000  Uiso   1.00
O470   O     0.09181   0.15960   0.81840   0.00000  Uiso   1.00
O471   O     0.19242   0.16908   0.82793   0.00000  Uiso   1.00
O472   O     0.10476   0.08578   0.74414   0.00000  Uiso   1.00
O473   O     0.20536   0.09526   0.75367   0.00000  Uiso   1.00
O474   O     0.14092   0.16425   0.67207   0.00000  Uiso   1.00
O475   O     0.24152   0.17373   0.68161   0.00000  Uiso   1.00
O476   O     0.30539   0.09993   0.99646   0.00000  Uiso   1.00
C477   C     0.30020   0.04519   0.98832   0.00000  Uiso   1.00
H478   H     0.33318   0.03065   0.50677   0.00000  Uiso   1.00
H479   H     0.30823   0.03457   0.94681   0.00000  Uiso   1.00
H480   H     0.25164   0.02466   0.50602   0.00000  Uiso   1.00
C481   C     0.51510   0.26674   0.75156   0.00000  Uiso   1.00
C482   C     0.47245   0.16823   0.98778   0.00000  Uiso   1.00
C483   C     0.48837   0.18409   0.93614   0.00000  Uiso   1.00
C484   C     0.51952   0.18118   0.51785   0.00000  Uiso   1.00
C485   C     0.57919   0.21363   0.99754   0.00000  Uiso   1.00
C486   C     0.59115   0.23361   0.94870   0.00000  Uiso   1.00
C487   C     0.54620   0.21979   0.91876   0.00000  Uiso   1.00
C488   C     0.50927   0.16273   0.56756   0.00000  Uiso   1.00
C489   C     0.61325   0.20996   0.57699   0.00000  Uiso   1.00
C490   C     0.44566   0.16435   0.90337   0.00000  Uiso   1.00
C491   C     0.52361   0.32270   0.75234   0.00000  Uiso   1.00
C492   C     0.46649   0.16589   0.84725   0.00000  Uiso   1.00
C493   C     0.47633   0.01063   0.74783   0.00000  Uiso   1.00
C494   C     0.48487   0.06660   0.74853   0.00000  Uiso   1.00
C495   C     0.53389   0.17037   0.65294   0.00000  Uiso   1.00
C496   C     0.62584   0.22690   0.52686   0.00000  Uiso   1.00
C497   C     0.55418   0.17905   0.59787   0.00000  Uiso   1.00
C498   C     0.38439   0.13696   0.92409   0.00000  Uiso   1.00
C499   C     0.36645   0.12531   0.97588   0.00000  Uiso   1.00
C500   C     0.40997   0.14064   0.50739   0.00000  Uiso   1.00
Cu501  Cu    0.44043   0.16105   0.74436   0.00000  Uiso   1.00
Cu502  Cu    0.55957   0.17228   0.75565   0.00000  Uiso   1.00
H503   H     0.64846   0.22297   0.60002   0.00000  Uiso   1.00
H504   H     0.43078   0.32014   0.74356   0.00000  Uiso   1.00
H505   H     0.33696   0.20590   0.78969   0.00000  Uiso   1.00
H506   H     0.66302   0.12741   0.71033   0.00000  Uiso   1.00
H507   H     0.63553   0.26017   0.93351   0.00000  Uiso   1.00
H508   H     0.33810   0.25164   0.51146   0.00000  Uiso   1.00
H509   H     0.46597   0.13633   0.58436   0.00000  Uiso   1.00
H510   H     0.35071   0.12295   0.89985   0.00000  Uiso   1.00
H511   H     0.39270   0.13118   0.54716   0.00000  Uiso   1.00
H512   H     0.55702   0.23860   0.88224   0.00000  Uiso   1.00
H513   H     0.56915   0.01319   0.75662   0.00000  Uiso   1.00
N514   N     0.64908   0.18074   0.76416   0.00000  Uiso   1.00
N515   N     0.35092   0.15259   0.73584   0.00000  Uiso   1.00
O516   O     0.46131   0.23807   0.74633   0.00000  Uiso   1.00
O517   O     0.56191   0.24755   0.75587   0.00000  Uiso   1.00
O518   O     0.42515   0.15960   0.81840   0.00000  Uiso   1.00
O519   O     0.52575   0.16908   0.82793   0.00000  Uiso   1.00
O520   O     0.43809   0.08578   0.74414   0.00000  Uiso   1.00
O521   O     0.53869   0.09526   0.75367   0.00000  Uiso   1.00
O522   O     0.47425   0.16425   0.67207   0.00000  Uiso   1.00
O523   O     0.57485   0.17373   0.68161   0.00000  Uiso   1.00
O524   O     0.63873   0.09993   0.99646   0.00000  Uiso   1.00
C525   C     0.63353   0.04519   0.98832   0.00000  Uiso   1.00
H526   H     0.66651   0.03065   0.50677   0.00000  Uiso   1.00
H527   H     0.64156   0.03457   0.94681   0.00000  Uiso   1.00
H528   H     0.58497   0.02466   0.50602   0.00000  Uiso   1.00
C529   C     0.84843   0.26674   0.75156   0.00000  Uiso   1.00
C530   C     0.80579   0.16823   0.98778   0.00000  Uiso   1.00
C531   C     0.82170   0.18409   0.93614   0.00000  Uiso   1.00
C532   C     0.85286   0.18118   0.51785   0.00000  Uiso   1.00
C533   C     0.91252   0.21363   0.99754   0.00000  Uiso   1.00
C534   C     0.92448   0.23361   0.94870   0.00000  Uiso   1.00
C535   C     0.87953   0.21979   0.91876   0.00000  Uiso   1.00
C536   C     0.84261   0.16273   0.56756   0.00000  Uiso   1.00
C537   C     0.94659   0.20996   0.57699   0.00000  Uiso   1.00
C538   C     0.77899   0.16435   0.90337   0.00000  Uiso   1.00
C539   C     0.85694   0.32270   0.75234   0.00000  Uiso   1.00
C540   C     0.79982   0.16589   0.84725   0.00000  Uiso   1.00
C541   C     0.80967   0.01063   0.74783   0.00000  Uiso   1.00
C542   C     0.81820   0.06660   0.74853   0.00000  Uiso   1.00
C543   C     0.86722   0.17037   0.65294   0.00000  Uiso   1.00
C544   C     0.95917   0.22690   0.52686   0.00000  Uiso   1.00
C545   C     0.88751   0.17905   0.59787   0.00000  Uiso   1.00
C546   C     0.71772   0.13696   0.92409   0.00000  Uiso   1.00
C547   C     0.69979   0.12531   0.97588   0.00000  Uiso   1.00
C548   C     0.74330   0.14064   0.50739   0.00000  Uiso   1.00
Cu549  Cu    0.77377   0.16105   0.74436   0.00000  Uiso   1.00
Cu550  Cu    0.89290   0.17228   0.75565   0.00000  Uiso   1.00
H551   H     0.98179   0.22297   0.60002   0.00000  Uiso   1.00
H552   H     0.76412   0.32014   0.74356   0.00000  Uiso   1.00
H553   H     0.67029   0.20590   0.78969   0.00000  Uiso   1.00
H554   H     0.99635   0.12741   0.71033   0.00000  Uiso   1.00
H555   H     0.96886   0.26017   0.93351   0.00000  Uiso   1.00
H556   H     0.67143   0.25164   0.51146   0.00000  Uiso   1.00
H557   H     0.79930   0.13633   0.58436   0.00000  Uiso   1.00
H558   H     0.68404   0.12295   0.89985   0.00000  Uiso   1.00
H559   H     0.72603   0.13118   0.54716   0.00000  Uiso   1.00
H560   H     0.89035   0.23860   0.88224   0.00000  Uiso   1.00
H561   H     0.90248   0.01319   0.75662   0.00000  Uiso   1.00
N562   N     0.98241   0.18074   0.76416   0.00000  Uiso   1.00
N563   N     0.68426   0.15259   0.73584   0.00000  Uiso   1.00
O564   O     0.79464   0.23807   0.74633   0.00000  Uiso   1.00
O565   O     0.89524   0.24755   0.75587   0.00000  Uiso   1.00
O566   O     0.75848   0.15960   0.81840   0.00000  Uiso   1.00
O567   O     0.85908   0.16908   0.82793   0.00000  Uiso   1.00
O568   O     0.77142   0.08578   0.74414   0.00000  Uiso   1.00
O569   O     0.87203   0.09526   0.75367   0.00000  Uiso   1.00
O570   O     0.80758   0.16425   0.67207   0.00000  Uiso   1.00
O571   O     0.90819   0.17373   0.68161   0.00000  Uiso   1.00
O572   O     0.97206   0.09993   0.99646   0.00000  Uiso   1.00
C573   C     0.96686   0.04519   0.98832   0.00000  Uiso   1.00
H574   H     0.99985   0.03065   0.50677   0.00000  Uiso   1.00
H575   H     0.97490   0.03457   0.94681   0.00000  Uiso   1.00
H576   H     0.91830   0.02466   0.50602   0.00000  Uiso   1.00
C577   C     0.18177   0.60007   0.75156   0.00000  Uiso   1.00
C578   C     0.13912   0.50156   0.98778   0.00000  Uiso   1.00
C579   C     0.15503   0.51742   0.93614   0.00000  Uiso   1.00
C580   C     0.18619   0.51451   0.51785   0.00000  Uiso   1.00
C581   C     0.24585   0.54697   0.99754   0.00000  Uiso   1.00
C582   C     0.25782   0.56695   0.94870   0.00000  Uiso   1.00
C583   C     0.21287   0.55312   0.91876   0.00000  Uiso   1.00
C584   C     0.17594   0.49607   0.56756   0.00000  Uiso   1.00
C585   C     0.27992   0.54329   0.57699   0.00000  Uiso   1.00
C586   C     0.11233   0.49768   0.90337   0.00000  Uiso   1.00
C587   C     0.19027   0.65604   0.75234   0.00000  Uiso   1.00
C588   C     0.13315   0.49923   0.84725   0.00000  Uiso   1.00
C589   C     0.14300   0.34396   0.74783   0.00000  Uiso   1.00
C590   C     0.15154   0.39993   0.74853   0.00000  Uiso   1.00
C591   C     0.20056   0.50370   0.65294   0.00000  Uiso   1.00
C592   C     0.29250   0.56023   0.52686   0.00000  Uiso   1.00
C593   C     0.22085   0.51238   0.59787   0.00000  Uiso   1.00
C594   C     0.05105   0.47029   0.92409   0.00000  Uiso   1.00
C595   C     0.03312   0.45864   0.97588   0.00000  Uiso   1.00
C596   C     0.07663   0.47397   0.50739   0.00000  Uiso   1.00
Cu597  Cu    0.10710   0.49439   0.74436   0.00000  Uiso   1.00
Cu598  Cu    0.22623   0.50561   0.75565   0.00000  Uiso   1.00
H599   H     0.31513   0.55631   0.60002   0.00000  Uiso   1.00
H600   H     0.09745   0.65347   0.74356   0.00000  Uiso   1.00
H601   H     0.00363   0.53924   0.78969   0.00000  Uiso   1.00
H602   H     0.32968   0.46074   0.71033   0.00000  Uiso   1.00
H603   H     0.30219   0.59351   0.93351   0.00000  Uiso   1.00
H604   H     0.00477   0.58497   0.51146   0.00000  Uiso   1.00
H605   H     0.13263   0.46966   0.58436   0.00000  Uiso   1.00
H606   H     0.01738   0.45628   0.89985   0.00000  Uiso   1.00
H607   H     0.05936   0.46451   0.54716   0.00000  Uiso   1.00
H608   H     0.22369   0.57193   0.88224   0.00000  Uiso   1.00
H609   H     0.23582   0.34653   0.75662   0.00000  Uiso   1.00
N610   N     0.31574   0.51407   0.76416   0.00000  Uiso   1.00
N611   N     0.01759   0.48593   0.73584   0.00000  Uiso   1.00
O612   O     0.12797   0.57141   0.74633   0.00000  Uiso   1.00
O613   O     0.22858   0.58089   0.75587   0.00000  Uiso   1.00
O614   O     0.09181   0.49293   0.81840   0.00000  Uiso   1.00
O615   O     0.19242   0.50241   0.82793   0.00000  Uiso   1.00
O616   O     0.10476   0.41911   0.74414   0.00000  Uiso   1.00
O617   O     0.20536   0.42859   0.75367   0.00000  Uiso   1.00
O618   O     0.14092   0.49759   0.67207   0.00000  Uiso   1.00
O619   O     0.24152   0.50707   0.68161   0.00000  Uiso   1.00
O620   O     0.30539   0.43326   0.99646   0.00000  Uiso   1.00
C621   C     0.30020   0.37852   0.98832   0.00000  Uiso   1.00
H622   H     0.33318   0.36398   0.50677   0.00000  Uiso   1.00
H623   H     0.30823   0.36790   0.94681   0.00000  Uiso   1.00
H624   H     0.25164   0.35799   0.50602   0.00000  Uiso   1.00
C625   C     0.51510   0.60007   0.75156   0.00000  Uiso   1.00
C626   C     0.47245   0.50156   0.98778   0.00000  Uiso   1.00
C627   C     0.48837   0.51742   0.93614   0.00000  Uiso   1.00
C628   C     0.51952   0.51451   0.51785   0.00000  Uiso   1.00
C629   C     0.57919   0.54697   0.99754   0.00000  Uiso   1.00
C630   C     0.59115   0.56695   0.94870   0.00000  Uiso   1.00
C631   C     0.54620   0.55312   0.91876   0.00000  Uiso   1.00
C632   C     0.50927   0.49607   0.56756   0.00000  Uiso   1.00
C633   C     0.61325   0.54329   0.57699   0.00000  Uiso   1.00
C634   C     0.44566   0.49768   0.90337   0.00000  Uiso   1.00
C635   C     0.52361   0.65604   0.75234   0.00000  Uiso   1.00
C636   C     0.46649   0.49923   0.84725   0.00000  Uiso   1.00
C637   C     0.47633   0.34396   0.74783   0.00000  Uiso   1.00
C638   C     0.48487   0.39993   0.74853   0.00000  Uiso   1.00
C639   C     0.53389   0.50370   0.65294   0.00000  Uiso   1.00
C640   C     0.62584   0.56023   0.52686   0.00000  Uiso   1.00
C641   C     0.55418   0.51238   0.59787   0.00000  Uiso   1.00
C642   C     0.38439   0.47029   0.92409   0.00000  Uiso   1.00
C643   C     0.36645   0.45864   0.97588   0.00000  Uiso   1.00
C644   C     0.40997   0.47397   0.50739   0.00000  Uiso   1.00
Cu645  Cu    0.44043   0.49439   0.74436   0.00000  Uiso   1.00
Cu646  Cu    0.55957   0.50561   0.75565   0.00000  Uiso   1.00
H647   H     0.64846   0.55631   0.60002   0.00000  Uiso   1.00
H648   H     0.43078   0.65347   0.74356   0.00000  Uiso   1.00
H649   H     0.33696   0.53924   0.78969   0.00000  Uiso   1.00
H650   H     0.66302   0.46074   0.71033   0.00000  Uiso   1.00
H651   H     0.63553   0.59351   0.93351   0.00000  Uiso   1.00
H652   H     0.33810   0.58497   0.51146   0.00000  Uiso   1.00
H653   H     0.46597   0.46966   0.58436   0.00000  Uiso   1.00
H654   H     0.35071   0.45628   0.89985   0.00000  Uiso   1.00
H655   H     0.39270   0.46451   0.54716   0.00000  Uiso   1.00
H656   H     0.55702   0.57193   0.88224   0.00000  Uiso   1.00
H657   H     0.56915   0.34653   0.75662   0.00000  Uiso   1.00
N658   N     0.64908   0.51407   0.76416   0.00000  Uiso   1.00
N659   N     0.35092   0.48593   0.73584   0.00000  Uiso   1.00
O660   O     0.46131   0.57141   0.74633   0.00000  Uiso   1.00
O661   O     0.56191   0.58089   0.75587   0.00000  Uiso   1.00
O662   O     0.42515   0.49293   0.81840   0.00000  Uiso   1.00
O663   O     0.52575   0.50241   0.82793   0.00000  Uiso   1.00
O664   O     0.43809   0.41911   0.74414   0.00000  Uiso   1.00
O665   O     0.53869   0.42859   0.75367   0.00000  Uiso   1.00
O666   O     0.47425   0.49759   0.67207   0.00000  Uiso   1.00
O667   O     0.57485   0.50707   0.68161   0.00000  Uiso   1.00
O668   O     0.63873   0.43326   0.99646   0.00000  Uiso   1.00
C669   C     0.63353   0.37852   0.98832   0.00000  Uiso   1.00
H670   H     0.66651   0.36398   0.50677   0.00000  Uiso   1.00
H671   H     0.64156   0.36790   0.94681   0.00000  Uiso   1.00
H672   H     0.58497   0.35799   0.50602   0.00000  Uiso   1.00
C673   C     0.84843   0.60007   0.75156   0.00000  Uiso   1.00
C674   C     0.80579   0.50156   0.98778   0.00000  Uiso   1.00
C675   C     0.82170   0.51742   0.93614   0.00000  Uiso   1.00
C676   C     0.85286   0.51451   0.51785   0.00000  Uiso   1.00
C677   C     0.91252   0.54697   0.99754   0.00000  Uiso   1.00
C678   C     0.92448   0.56695   0.94870   0.00000  Uiso   1.00
C679   C     0.87953   0.55312   0.91876   0.00000  Uiso   1.00
C680   C     0.84261   0.49607   0.56756   0.00000  Uiso   1.00
C681   C     0.94659   0.54329   0.57699   0.00000  Uiso   1.00
C682   C     0.77899   0.49768   0.90337   0.00000  Uiso   1.00
C683   C     0.85694   0.65604   0.75234   0.00000  Uiso   1.00
C684   C     0.79982   0.49923   0.84725   0.00000  Uiso   1.00
C685   C     0.80967   0.34396   0.74783   0.00000  Uiso   1.00
C686   C     0.81820   0.39993   0.74853   0.00000  Uiso   1.00
C687   C     0.86722   0.50370   0.65294   0.00000  Uiso   1.00
C688   C     0.95917   0.56023   0.52686   0.00000  Uiso   1.00
C689   C     0.88751   0.51238   0.59787   0.00000  Uiso   1.00
C690   C     0.71772   0.47029   0.92409   0.00000  Uiso   1.00
C691   C     0.69979   0.45864   0.97588   0.00000  Uiso   1.00
C692   C     0.74330   0.47397   0.50739   0.00000  Uiso   1.00
Cu693  Cu    0.77377   0.49439   0.74436   0.00000  Uiso   1.00
Cu694  Cu    0.89290   0.50561   0.75565   0.00000  Uiso   1.00
H695   H     0.98179   0.55631   0.60002   0.00000  Uiso   1.00
H696   H     0.76412   0.65347   0.74356   0.00000  Uiso   1.00
H697   H     0.67029   0.53924   0.78969   0.00000  Uiso   1.00
H698   H     0.99635   0.46074   0.71033   0.00000  Uiso   1.00
H699   H     0.96886   0.59351   0.93351   0.00000  Uiso   1.00
H700   H     0.67143   0.58497   0.51146   0.00000  Uiso   1.00
H701   H     0.79930   0.46966   0.58436   0.00000  Uiso   1.00
H702   H     0.68404   0.45628   0.89985   0.00000  Uiso   1.00
H703   H     0.72603   0.46451   0.54716   0.00000  Uiso   1.00
H704   H     0.89035   0.57193   0.88224   0.00000  Uiso   1.00
H705   H     0.90248   0.34653   0.75662   0.00000  Uiso   1.00
N706   N     0.98241   0.51407   0.76416   0.00000  Uiso   1.00
N707   N     0.68426   0.48593   0.73584   0.00000  Uiso   1.00
O708   O     0.79464   0.57141   0.74633   0.00000  Uiso   1.00
O709   O     0.89524   0.58089   0.75587   0.00000  Uiso   1.00
O710   O     0.75848   0.49293   0.81840   0.00000  Uiso   1.00
O711   O     0.85908   0.50241   0.82793   0.00000  Uiso   1.00
O712   O     0.77142   0.41911   0.74414   0.00000  Uiso   1.00
O713   O     0.87203   0.42859   0.75367   0.00000  Uiso   1.00
O714   O     0.80758   0.49759   0.67207   0.00000  Uiso   1.00
O715   O     0.90819   0.50707   0.68161   0.00000  Uiso   1.00
O716   O     0.97206   0.43326   0.99646   0.00000  Uiso   1.00
C717   C     0.96686   0.37852   0.98832   0.00000  Uiso   1.00
H718   H     0.99985   0.36398   0.50677   0.00000  Uiso   1.00
H719   H     0.97490   0.36790   0.94681   0.00000  Uiso   1.00
H720   H     0.91830   0.35799   0.50602   0.00000  Uiso   1.00
C721   C     0.18177   0.93341   0.75156   0.00000  Uiso   1.00
C722   C     0.13912   0.83490   0.98778   0.00000  Uiso   1.00
C723   C     0.15503   0.85076   0.93614   0.00000  Uiso   1.00
C724   C     0.18619   0.84784   0.51785   0.00000  Uiso   1.00
C725   C     0.24585   0.88030   0.99754   0.00000  Uiso   1.00
C726   C     0.25782   0.90028   0.94870   0.00000  Uiso   1.00
C727   C     0.21287   0.88645   0.91876   0.00000  Uiso   1.00
C728   C     0.17594   0.82940   0.56756   0.00000  Uiso   1.00
C729   C     0.27992   0.87662   0.57699   0.00000  Uiso   1.00
C730   C     0.11233   0.83102   0.90337   0.00000  Uiso   1.00
C731   C     0.19027   0.98937   0.75234   0.00000  Uiso   1.00
C732   C     0.13315   0.83256   0.84725   0.00000  Uiso   1.00
C733   C     0.14300   0.67729   0.74783   0.00000  Uiso   1.00
C734   C     0.15154   0.73326   0.74853   0.00000  Uiso   1.00
C735   C     0.20056   0.83703   0.65294   0.00000  Uiso   1.00
C736   C     0.29250   0.89357   0.52686   0.00000  Uiso   1.00
C737   C     0.22085   0.84571   0.59787   0.00000  Uiso   1.00
C738   C     0.05105   0.80363   0.92409   0.00000  Uiso   1.00
C739   C     0.03312   0.79197   0.97588   0.00000  Uiso   1.00
C740   C     0.07663   0.80730   0.50739   0.00000  Uiso   1.00
Cu741  Cu    0.10710   0.82772   0.74436   0.00000  Uiso   1.00
Cu742  Cu    0.22623   0.83895   0.75565   0.00000  Uiso   1.00
H743   H     0.31513   0.88964   0.60002   0.00000  Uiso   1.00
H744   H     0.09745   0.98680   0.74356   0.00000  Uiso   1.00
H745   H     0.00363   0.87257   0.78969   0.00000  Uiso   1.00
H746   H     0.32968   0.79408   0.71033   0.00000  Uiso   1.00
H747   H     0.30219   0.92684   0.93351   0.00000  Uiso   1.00
H748   H     0.00477   0.91831   0.51146   0.00000  Uiso   1.00
H749   H     0.13263   0.80300   0.58436   0.00000  Uiso   1.00
H750   H     0.01738   0.78961   0.89985   0.00000  Uiso   1.00
H751   H     0.05936   0.79785   0.54716   0.00000  Uiso   1.00
H752   H     0.22369   0.90526   0.88224   0.00000  Uiso   1.00
H753   H     0.23582   0.67986   0.75662   0.00000  Uiso   1.00
N754   N     0.31574   0.84741   0.76416   0.00000  Uiso   1.00
N755   N     0.01759   0.81926   0.73584   0.00000  Uiso   1.00
O756   O     0.12797   0.90474   0.74633   0.00000  Uiso   1.00
O757   O     0.22858   0.91422   0.75587   0.00000  Uiso   1.00
O758   O     0.09181   0.82627   0.81840   0.00000  Uiso   1.00
O759   O     0.19242   0.83575   0.82793   0.00000  Uiso   1.00
O760   O     0.10476   0.75245   0.74414   0.00000  Uiso   1.00
O761   O     0.20536   0.76193   0.75367   0.00000  Uiso   1.00
O762   O     0.14092   0.83092   0.67207   0.00000  Uiso   1.00
O763   O     0.24152   0.84040   0.68161   0.00000  Uiso   1.00
O764   O     0.30539   0.76660   0.99646   0.00000  Uiso   1.00
C765   C     0.30020   0.71186   0.98832   0.00000  Uiso   1.00
H766   H     0.33318   0.69731   0.50677   0.00000  Uiso   1.00
H767   H     0.30823   0.70124   0.94681   0.00000  Uiso   1.00
H768   H     0.25164   0.69132   0.50602   0.00000  Uiso   1.00
C769   C     0.51510   0.93341   0.75156   0.00000  Uiso   1.00
C770   C     0.47245   0.83490   0.98778   0.00000  Uiso   1.00
C771   C     0.48837   0.85076   0.93614   0.00000  Uiso   1.00
C772   C     0.51952   0.84784   0.51785   0.00000  Uiso   1.00
C773   C     0.57919   0.88030   0.99754   0.00000  Uiso   1.00
C774   C     0.59115   0.90028   0.94870   0.00000  Uiso   1.00
C775   C     0.54620   0.88645   0.91876   0.00000  Uiso   1.00
C776   C     0.50927   0.82940   0.56756   0.00000  Uiso   1.00
C777   C     0.61325   0.87662   0.57699   0.00000  Uiso   1.00
C778   C     0.44566   0.83102   0.90337   0.00000  Uiso   1.00
C779   C     0.52361   0.98937   0.75234   0.00000  Uiso   1.00
C780   C     0.46649   0.83256   0.84725   0.00000  Uiso   1.00
C781   C     0.47633   0.67729   0.74783   0.00000  Uiso   1.00
C782   C     0.48487   0.73326   0.74853   0.00000  Uiso   1.00
C783   C     0.53389   0.83703   0.65294   0.00000  Uiso   1.00
C784   C     0.62584   0.89357   0.52686   0.00000  Uiso   1.00
C785   C     0.55418   0.84571   0.59787   0.00000  Uiso   1.00
C786   C     0.38439   0.80363   0.92409   0.00000  Uiso   1.00
C787   C     0.36645   0.79197   0.97588   0.00000  Uiso   1.00
C788   C     0.40997   0.80730   0.50739   0.00000  Uiso   1.00
Cu789  Cu    0.44043   0.82772   0.74436   0.00000  Uiso   1.00
Cu790  Cu    0.55957   0.83895   0.75565   0.00000  Uiso   1.00
H791   H     0.64846   0.88964   0.60002   0.00000  Uiso   1.00
H792   H     0.43078   0.98680   0.74356   0.00000  Uiso   1.00
H793   H     0.33696   0.87257   0.78969   0.00000  Uiso   1.00
H794   H     0.66302   0.79408   0.71033   0.00000  Uiso   1.00
H795   H     0.63553   0.92684   0.93351   0.00000  Uiso   1.00
H796   H     0.33810   0.91831   0.51146   0.00000  Uiso   1.00
H797   H     0.46597   0.80300   0.58436   0.00000  Uiso   1.00
H798   H     0.35071   0.78961   0.89985   0.00000  Uiso   1.00
H799   H     0.39270   0.79785   0.54716   0.00000  Uiso   1.00
H800   H     0.55702   0.90526   0.88224   0.00000  Uiso   1.00
H801   H     0.56915   0.67986   0.75662   0.00000  Uiso   1.00
N802   N     0.64908   0.84741   0.76416   0.00000  Uiso   1.00
N803   N     0.35092   0.81926   0.73584   0.00000  Uiso   1.00
O804   O     0.46131   0.90474   0.74633   0.00000  Uiso   1.00
O805   O     0.56191   0.91422   0.75587   0.00000  Uiso   1.00
O806   O     0.42515   0.82627   0.81840   0.00000  Uiso   1.00
O807   O     0.52575   0.83575   0.82793   0.00000  Uiso   1.00
O808   O     0.43809   0.75245   0.74414   0.00000  Uiso   1.00
O809   O     0.53869   0.76193   0.75367   0.00000  Uiso   1.00
O810   O     0.47425   0.83092   0.67207   0.00000  Uiso   1.00
O811   O     0.57485   0.84040   0.68161   0.00000  Uiso   1.00
O812   O     0.63873   0.76660   0.99646   0.00000  Uiso   1.00
C813   C     0.63353   0.71186   0.98832   0.00000  Uiso   1.00
H814   H     0.66651   0.69731   0.50677   0.00000  Uiso   1.00
H815   H     0.64156   0.70124   0.94681   0.00000  Uiso   1.00
H816   H     0.58497   0.69132   0.50602   0.00000  Uiso   1.00
C817   C     0.84843   0.93341   0.75156   0.00000  Uiso   1.00
C818   C     0.80579   0.83490   0.98778   0.00000  Uiso   1.00
C819   C     0.82170   0.85076   0.93614   0.00000  Uiso   1.00
C820   C     0.85286   0.84784   0.51785   0.00000  Uiso   1.00
C821   C     0.91252   0.88030   0.99754   0.00000  Uiso   1.00
C822   C     0.92448   0.90028   0.94870   0.00000  Uiso   1.00
C823   C     0.87953   0.88645   0.91876   0.00000  Uiso   1.00
C824   C     0.84261   0.82940   0.56756   0.00000  Uiso   1.00
C825   C     0.94659   0.87662   0.57699   0.00000  Uiso   1.00
C826   C     0.77899   0.83102   0.90337   0.00000  Uiso   1.00
C827   C     0.85694   0.98937   0.75234   0.00000  Uiso   1.00
C828   C     0.79982   0.83256   0.84725   0.00000  Uiso   1.00
C829   C     0.80967   0.67729   0.74783   0.00000  Uiso   1.00
C830   C     0.81820   0.73326   0.74853   0.00000  Uiso   1.00
C831   C     0.86722   0.83703   0.65294   0.00000  Uiso   1.00
C832   C     0.95917   0.89357   0.52686   0.00000  Uiso   1.00
C833   C     0.88751   0.84571   0.59787   0.00000  Uiso   1.00
C834   C     0.71772   0.80363   0.92409   0.00000  Uiso   1.00
C835   C     0.69979   0.79197   0.97588   0.00000  Uiso   1.00
C836   C     0.74330   0.80730   0.50739   0.00000  Uiso   1.00
Cu837  Cu    0.77377   0.82772   0.74436   0.00000  Uiso   1.00
Cu838  Cu    0.89290   0.83895   0.75565   0.00000  Uiso   1.00
H839   H     0.98179   0.88964   0.60002   0.00000  Uiso   1.00
H840   H     0.76412   0.98680   0.74356   0.00000  Uiso   1.00
H841   H     0.67029   0.87257   0.78969   0.00000  Uiso   1.00
H842   H     0.99635   0.79408   0.71033   0.00000  Uiso   1.00
H843   H     0.96886   0.92684   0.93351   0.00000  Uiso   1.00
H844   H     0.67143   0.91831   0.51146   0.00000  Uiso   1.00
H845   H     0.79930   0.80300   0.58436   0.00000  Uiso   1.00
H846   H     0.68404   0.78961   0.89985   0.00000  Uiso   1.00
H847   H     0.72603   0.79785   0.54716   0.00000  Uiso   1.00
H848   H     0.89035   0.90526   0.88224   0.00000  Uiso   1.00
H849   H     0.90248   0.67986   0.75662   0.00000  Uiso   1.00
N850   N     0.98241   0.84741   0.76416   0.00000  Uiso   1.00
N851   N     0.68426   0.81926   0.73584   0.00000  Uiso   1.00
O852   O     0.79464   0.90474   0.74633   0.00000  Uiso   1.00
O853   O     0.89524   0.91422   0.75587   0.00000  Uiso   1.00
O854   O     0.75848   0.82627   0.81840   0.00000  Uiso   1.00
O855   O     0.85908   0.83575   0.82793   0.00000  Uiso   1.00
O856   O     0.77142   0.75245   0.74414   0.00000  Uiso   1.00
O857   O     0.87203   0.76193   0.75367   0.00000  Uiso   1.00
O858   O     0.80758   0.83092   0.67207   0.00000  Uiso   1.00
O859   O     0.90819   0.84040   0.68161   0.00000  Uiso   1.00
O860   O     0.97206   0.76660   0.99646   0.00000  Uiso   1.00
C861   C     0.96686   0.71186   0.98832   0.00000  Uiso   1.00
H862   H     0.99985   0.69731   0.50677   0.00000  Uiso   1.00
H863   H     0.97490   0.70124   0.94681   0.00000  Uiso   1.00
H864   H     0.91830   0.69132   0.50602   0.00000  Uiso   1.00
loop_
_geom_bond_atom_site_label_1
_geom_bond_atom_site_label_2
_geom_bond_distance
_geom_bond_site_symmetry_2
_ccdc_geom_bond_type
C1     C11     1.427   .     S
C1     O37     1.285   .     A
C1     O36     1.291   .     A
C2     C3      1.418   .     A
C2     C436    1.426   .     S
C2     C452    1.418   .     S
C3     C7      1.413   .     A
C3     C10     1.422   .     A
C4     C8      1.402   .     A
C4     C434    1.426   1_554 S
C4     C437    1.420   1_554 S
C5     C6      1.392   .     A
C5     C436    1.420   .     S
C5     C448    1.405   .     S
C6     C7      1.387   .     A
C6     H27     1.084   .     S
C7     H32     1.080   .     S
C8     C17     1.398   .     A
C8     H29     1.077   .     S
C9     C17     1.398   .     A
C9     C16     1.393   .     A
C9     H23     1.083   .     S
C10    C12     1.475   .     S
C10    C18     1.401   .     A
C11    C157    1.328   .     S
C11    H177    1.088   .     S
C12    O39     1.295   .     A
C12    O38     1.304   .     A
C13    C14     1.427   .     S
C13    C299    1.328   1_545 S
C13    H312    1.088   1_545 S
C14    O41     1.291   .     A
C14    O40     1.285   .     A
C15    O42     1.293   .     A
C15    O43     1.301   .     A
C15    C17     1.464   .     S
C16    C437    1.405   1_554 S
C16    H76     1.084   .     S
C18    H30     1.084   .     S
C18    C19     1.393   .     A
C19    C452    1.396   .     S
C19    O140    1.381   1_455 S
C20    H31     1.077   .     S
C20    C434    1.418   1_554 S
C20    C451    1.396   1_554 S
Cu21   O36     1.954   .     S
Cu21   O40     1.950   .     S
Cu21   N35     2.018   .     S
Cu21   O42     1.920   .     S
Cu21   Cu22    2.686   .     S
Cu21   O38     1.940   .     S
Cu22   N34     2.018   .     S
Cu22   O41     1.954   .     S
Cu22   O39     1.920   .     S
Cu22   O37     1.950   .     S
Cu22   O43     1.940   .     S
H24    C157    1.088   .     S
H25    N130    1.029   1_455 S
H26    N83     1.029   .     S
H28    C112    1.084   1_455 S
H33    C299    1.088   1_545 S
N34    H73     1.029   .     S
N34    N83     1.285   .     S
N35    N130    1.285   1_455 S
N35    H122    1.029   1_455 S
O44    C45     1.410   .     S
O44    C67     1.381   .     S
C45    H47     1.113   .     S
C45    H478    1.114   .     S
C45    H480    1.109   .     S
H46    C477    1.114   1_554 S
H48    C477    1.109   1_554 S
C49    C59     1.427   .     S
C49    O85     1.285   .     A
C49    O84     1.291   .     A
C50    C51     1.418   .     A
C50    C484    1.426   .     S
C50    C500    1.418   .     S
C51    C55     1.413   .     A
C51    C58     1.422   .     A
C52    C56     1.402   .     A
C52    C482    1.426   1_554 S
C52    C485    1.420   1_554 S
C53    C54     1.392   .     A
C53    C484    1.420   .     S
C53    C496    1.405   .     S
C54    C55     1.387   .     A
C54    H75     1.084   .     S
C55    H80     1.080   .     S
C56    C65     1.398   .     A
C56    H77     1.077   .     S
C57    C65     1.398   .     A
C57    C64     1.393   .     A
C57    H71     1.083   .     S
C58    C60     1.475   .     S
C58    C66     1.401   .     A
C59    C205    1.328   .     S
C59    H225    1.088   .     S
C60    O87     1.295   .     A
C60    O86     1.304   .     A
C61    C62     1.427   .     S
C61    C347    1.328   1_545 S
C61    H360    1.088   1_545 S
C62    O89     1.291   .     A
C62    O88     1.285   .     A
C63    O90     1.293   .     A
C63    O91     1.301   .     A
C63    C65     1.464   .     S
C64    C485    1.405   1_554 S
C64    H124    1.084   .     S
C66    H78     1.084   .     S
C66    C67     1.393   .     A
C67    C500    1.396   .     S
C68    H79     1.077   .     S
C68    C482    1.418   1_554 S
C68    C499    1.396   1_554 S
Cu69   O84     1.954   .     S
Cu69   O88     1.950   .     S
Cu69   N83     2.018   .     S
Cu69   O90     1.920   .     S
Cu69   Cu70    2.686   .     S
Cu69   O86     1.940   .     S
Cu70   N82     2.018   .     S
Cu70   O89     1.954   .     S
Cu70   O87     1.920   .     S
Cu70   O85     1.950   .     S
Cu70   O91     1.940   .     S
H72    C205    1.088   .     S
H74    N131    1.029   .     S
H81    C347    1.088   1_545 S
N82    H121    1.029   .     S
N82    N131    1.285   .     S
O92    C93     1.410   .     S
O92    C115    1.381   .     S
C93    H95     1.113   .     S
C93    H526    1.114   .     S
C93    H528    1.109   .     S
H94    C525    1.114   1_554 S
H96    C525    1.109   1_554 S
C97    C107    1.427   .     S
C97    O133    1.285   .     A
C97    O132    1.291   .     A
C98    C99     1.418   .     A
C98    C532    1.426   .     S
C98    C548    1.418   .     S
C99    C103    1.413   .     A
C99    C106    1.422   .     A
C100   C104    1.402   .     A
C100   C530    1.426   1_554 S
C100   C533    1.420   1_554 S
C101   C102    1.392   .     A
C101   C532    1.420   .     S
C101   C544    1.405   .     S
C102   C103    1.387   .     A
C102   H123    1.084   .     S
C103   H128    1.080   .     S
C104   C113    1.398   .     A
C104   H125    1.077   .     S
C105   C113    1.398   .     A
C105   C112    1.393   .     A
C105   H119    1.083   .     S
C106   C108    1.475   .     S
C106   C114    1.401   .     A
C107   C253    1.328   .     S
C107   H273    1.088   .     S
C108   O135    1.295   .     A
C108   O134    1.304   .     A
C109   C110    1.427   .     S
C109   C395    1.328   1_545 S
C109   H408    1.088   1_545 S
C110   O137    1.291   .     A
C110   O136    1.285   .     A
C111   O138    1.293   .     A
C111   O139    1.301   .     A
C111   C113    1.464   .     S
C112   C533    1.405   1_554 S
C112   H28     1.084   1_655 S
C114   H126    1.084   .     S
C114   C115    1.393   .     A
C115   C548    1.396   .     S
C116   H127    1.077   .     S
C116   C530    1.418   1_554 S
C116   C547    1.396   1_554 S
Cu117  O132    1.954   .     S
Cu117  O136    1.950   .     S
Cu117  N131    2.018   .     S
Cu117  O138    1.920   .     S
Cu117  Cu118   2.686   .     S
Cu117  O134    1.940   .     S
Cu118  N130    2.018   .     S
Cu118  O137    1.954   .     S
Cu118  O135    1.920   .     S
Cu118  O133    1.950   .     S
Cu118  O139    1.940   .     S
H120   C253    1.088   .     S
H122   N35     1.029   1_655 S
H129   C395    1.088   1_545 S
N130   H25     1.029   1_655 S
N130   N35     1.285   1_655 S
O140   C141    1.410   .     S
O140   C19     1.381   1_655 S
C141   H143    1.113   .     S
C141   H574    1.114   .     S
C141   H576    1.109   .     S
H142   C573    1.114   1_554 S
H144   C573    1.109   1_554 S
C145   C155    1.427   .     S
C145   O181    1.285   .     A
C145   O180    1.291   .     A
C146   C147    1.418   .     A
C146   C580    1.426   .     S
C146   C596    1.418   .     S
C147   C151    1.413   .     A
C147   C154    1.422   .     A
C148   C152    1.402   .     A
C148   C578    1.426   1_554 S
C148   C581    1.420   1_554 S
C149   C150    1.392   .     A
C149   C580    1.420   .     S
C149   C592    1.405   .     S
C150   C151    1.387   .     A
C150   H171    1.084   .     S
C151   H176    1.080   .     S
C152   C161    1.398   .     A
C152   H173    1.077   .     S
C153   C161    1.398   .     A
C153   C160    1.393   .     A
C153   H167    1.083   .     S
C154   C156    1.475   .     S
C154   C162    1.401   .     A
C155   C301    1.328   .     S
C155   H321    1.088   .     S
C156   O183    1.295   .     A
C156   O182    1.304   .     A
C157   C158    1.427   .     S
C158   O185    1.291   .     A
C158   O184    1.285   .     A
C159   O186    1.293   .     A
C159   O187    1.301   .     A
C159   C161    1.464   .     S
C160   C581    1.405   1_554 S
C160   H220    1.084   .     S
C162   H174    1.084   .     S
C162   C163    1.393   .     A
C163   C596    1.396   .     S
C163   O284    1.381   1_455 S
C164   H175    1.077   .     S
C164   C578    1.418   1_554 S
C164   C595    1.396   1_554 S
Cu165  O180    1.954   .     S
Cu165  O184    1.950   .     S
Cu165  N179    2.018   .     S
Cu165  O186    1.920   .     S
Cu165  Cu166   2.686   .     S
Cu165  O182    1.940   .     S
Cu166  N178    2.018   .     S
Cu166  O185    1.954   .     S
Cu166  O183    1.920   .     S
Cu166  O181    1.950   .     S
Cu166  O187    1.940   .     S
H168   C301    1.088   .     S
H169   N274    1.029   1_455 S
H170   N227    1.029   .     S
H172   C256    1.084   1_455 S
N178   H217    1.029   .     S
N178   N227    1.285   .     S
N179   N274    1.285   1_455 S
N179   H266    1.029   1_455 S
O188   C189    1.410   .     S
O188   C211    1.381   .     S
C189   H191    1.113   .     S
C189   H622    1.114   .     S
C189   H624    1.109   .     S
H190   C621    1.114   1_554 S
H192   C621    1.109   1_554 S
C193   C203    1.427   .     S
C193   O229    1.285   .     A
C193   O228    1.291   .     A
C194   C195    1.418   .     A
C194   C628    1.426   .     S
C194   C644    1.418   .     S
C195   C199    1.413   .     A
C195   C202    1.422   .     A
C196   C200    1.402   .     A
C196   C626    1.426   1_554 S
C196   C629    1.420   1_554 S
C197   C198    1.392   .     A
C197   C628    1.420   .     S
C197   C640    1.405   .     S
C198   C199    1.387   .     A
C198   H219    1.084   .     S
C199   H224    1.080   .     S
C200   C209    1.398   .     A
C200   H221    1.077   .     S
C201   C209    1.398   .     A
C201   C208    1.393   .     A
C201   H215    1.083   .     S
C202   C204    1.475   .     S
C202   C210    1.401   .     A
C203   C349    1.328   .     S
C203   H369    1.088   .     S
C204   O231    1.295   .     A
C204   O230    1.304   .     A
C205   C206    1.427   .     S
C206   O233    1.291   .     A
C206   O232    1.285   .     A
C207   O234    1.293   .     A
C207   O235    1.301   .     A
C207   C209    1.464   .     S
C208   C629    1.405   1_554 S
C208   H268    1.084   .     S
C210   H222    1.084   .     S
C210   C211    1.393   .     A
C211   C644    1.396   .     S
C212   H223    1.077   .     S
C212   C626    1.418   1_554 S
C212   C643    1.396   1_554 S
Cu213  O228    1.954   .     S
Cu213  O232    1.950   .     S
Cu213  N227    2.018   .     S
Cu213  O234    1.920   .     S
Cu213  Cu214   2.686   .     S
Cu213  O230    1.940   .     S
Cu214  N226    2.018   .     S
Cu214  O233    1.954   .     S
Cu214  O231    1.920   .     S
Cu214  O229    1.950   .     S
Cu214  O235    1.940   .     S
H216   C349    1.088   .     S
H218   N275    1.029   .     S
N226   H265    1.029   .     S
N226   N275    1.285   .     S
O236   C237    1.410   .     S
O236   C259    1.381   .     S
C237   H239    1.113   .     S
C237   H670    1.114   .     S
C237   H672    1.109   .     S
H238   C669    1.114   1_554 S
H240   C669    1.109   1_554 S
C241   C251    1.427   .     S
C241   O277    1.285   .     A
C241   O276    1.291   .     A
C242   C243    1.418   .     A
C242   C676    1.426   .     S
C242   C692    1.418   .     S
C243   C247    1.413   .     A
C243   C250    1.422   .     A
C244   C248    1.402   .     A
C244   C674    1.426   1_554 S
C244   C677    1.420   1_554 S
C245   C246    1.392   .     A
C245   C676    1.420   .     S
C245   C688    1.405   .     S
C246   C247    1.387   .     A
C246   H267    1.084   .     S
C247   H272    1.080   .     S
C248   C257    1.398   .     A
C248   H269    1.077   .     S
C249   C257    1.398   .     A
C249   C256    1.393   .     A
C249   H263    1.083   .     S
C250   C252    1.475   .     S
C250   C258    1.401   .     A
C251   C397    1.328   .     S
C251   H417    1.088   .     S
C252   O279    1.295   .     A
C252   O278    1.304   .     A
C253   C254    1.427   .     S
C254   O281    1.291   .     A
C254   O280    1.285   .     A
C255   O282    1.293   .     A
C255   O283    1.301   .     A
C255   C257    1.464   .     S
C256   C677    1.405   1_554 S
C256   H172    1.084   1_655 S
C258   H270    1.084   .     S
C258   C259    1.393   .     A
C259   C692    1.396   .     S
C260   H271    1.077   .     S
C260   C674    1.418   1_554 S
C260   C691    1.396   1_554 S
Cu261  O276    1.954   .     S
Cu261  O280    1.950   .     S
Cu261  N275    2.018   .     S
Cu261  O282    1.920   .     S
Cu261  Cu262   2.686   .     S
Cu261  O278    1.940   .     S
Cu262  N274    2.018   .     S
Cu262  O281    1.954   .     S
Cu262  O279    1.920   .     S
Cu262  O277    1.950   .     S
Cu262  O283    1.940   .     S
H264   C397    1.088   .     S
H266   N179    1.029   1_655 S
N274   H169    1.029   1_655 S
N274   N179    1.285   1_655 S
O284   C285    1.410   .     S
O284   C163    1.381   1_655 S
C285   H287    1.113   .     S
C285   H718    1.114   .     S
C285   H720    1.109   .     S
H286   C717    1.114   1_554 S
H288   C717    1.109   1_554 S
C289   C299    1.427   .     S
C289   O325    1.285   .     A
C289   O324    1.291   .     A
C290   C291    1.418   .     A
C290   C724    1.426   .     S
C290   C740    1.418   .     S
C291   C295    1.413   .     A
C291   C298    1.422   .     A
C292   C296    1.402   .     A
C292   C722    1.426   1_554 S
C292   C725    1.420   1_554 S
C293   C294    1.392   .     A
C293   C724    1.420   .     S
C293   C736    1.405   .     S
C294   C295    1.387   .     A
C294   H315    1.084   .     S
C295   H320    1.080   .     S
C296   C305    1.398   .     A
C296   H317    1.077   .     S
C297   C305    1.398   .     A
C297   C304    1.393   .     A
C297   H311    1.083   .     S
C298   C300    1.475   .     S
C298   C306    1.401   .     A
C299   C13     1.328   1_565 S
C299   H33     1.088   1_565 S
C300   O327    1.295   .     A
C300   O326    1.304   .     A
C301   C302    1.427   .     S
C302   O329    1.291   .     A
C302   O328    1.285   .     A
C303   O330    1.293   .     A
C303   O331    1.301   .     A
C303   C305    1.464   .     S
C304   C725    1.405   1_554 S
C304   H364    1.084   .     S
C306   H318    1.084   .     S
C306   C307    1.393   .     A
C307   C740    1.396   .     S
C307   O428    1.381   1_455 S
C308   H319    1.077   .     S
C308   C722    1.418   1_554 S
C308   C739    1.396   1_554 S
Cu309  O324    1.954   .     S
Cu309  O328    1.950   .     S
Cu309  N323    2.018   .     S
Cu309  O330    1.920   .     S
Cu309  Cu310   2.686   .     S
Cu309  O326    1.940   .     S
Cu310  N322    2.018   .     S
Cu310  O329    1.954   .     S
Cu310  O327    1.920   .     S
Cu310  O325    1.950   .     S
Cu310  O331    1.940   .     S
H312   C13     1.088   1_565 S
H313   N418    1.029   1_455 S
H314   N371    1.029   .     S
H316   C400    1.084   1_455 S
N322   H361    1.029   .     S
N322   N371    1.285   .     S
N323   N418    1.285   1_455 S
N323   H410    1.029   1_455 S
O332   C333    1.410   .     S
O332   C355    1.381   .     S
C333   H335    1.113   .     S
C333   H766    1.114   .     S
C333   H768    1.109   .     S
H334   C765    1.114   1_554 S
H336   C765    1.109   1_554 S
C337   C347    1.427   .     S
C337   O373    1.285   .     A
C337   O372    1.291   .     A
C338   C339    1.418   .     A
C338   C772    1.426   .     S
C338   C788    1.418   .     S
C339   C343    1.413   .     A
C339   C346    1.422   .     A
C340   C344    1.402   .     A
C340   C770    1.426   1_554 S
C340   C773    1.420   1_554 S
C341   C342    1.392   .     A
C341   C772    1.420   .     S
C341   C784    1.405   .     S
C342   C343    1.387   .     A
C342   H363    1.084   .     S
C343   H368    1.080   .     S
C344   C353    1.398   .     A
C344   H365    1.077   .     S
C345   C353    1.398   .     A
C345   C352    1.393   .     A
C345   H359    1.083   .     S
C346   C348    1.475   .     S
C346   C354    1.401   .     A
C347   C61     1.328   1_565 S
C347   H81     1.088   1_565 S
C348   O375    1.295   .     A
C348   O374    1.304   .     A
C349   C350    1.427   .     S
C350   O377    1.291   .     A
C350   O376    1.285   .     A
C351   O378    1.293   .     A
C351   O379    1.301   .     A
C351   C353    1.464   .     S
C352   C773    1.405   1_554 S
C352   H412    1.084   .     S
C354   H366    1.084   .     S
C354   C355    1.393   .     A
C355   C788    1.396   .     S
C356   H367    1.077   .     S
C356   C770    1.418   1_554 S
C356   C787    1.396   1_554 S
Cu357  O372    1.954   .     S
Cu357  O376    1.950   .     S
Cu357  N371    2.018   .     S
Cu357  O378    1.920   .     S
Cu357  Cu358   2.686   .     S
Cu357  O374    1.940   .     S
Cu358  N370    2.018   .     S
Cu358  O377    1.954   .     S
Cu358  O375    1.920   .     S
Cu358  O373    1.950   .     S
Cu358  O379    1.940   .     S
H360   C61     1.088   1_565 S
H362   N419    1.029   .     S
N370   H409    1.029   .     S
N370   N419    1.285   .     S
O380   C381    1.410   .     S
O380   C403    1.381   .     S
C381   H383    1.113   .     S
C381   H814    1.114   .     S
C381   H816    1.109   .     S
H382   C813    1.114   1_554 S
H384   C813    1.109   1_554 S
C385   C395    1.427   .     S
C385   O421    1.285   .     A
C385   O420    1.291   .     A
C386   C387    1.418   .     A
C386   C820    1.426   .     S
C386   C836    1.418   .     S
C387   C391    1.413   .     A
C387   C394    1.422   .     A
C388   C392    1.402   .     A
C388   C818    1.426   1_554 S
C388   C821    1.420   1_554 S
C389   C390    1.392   .     A
C389   C820    1.420   .     S
C389   C832    1.405   .     S
C390   C391    1.387   .     A
C390   H411    1.084   .     S
C391   H416    1.080   .     S
C392   C401    1.398   .     A
C392   H413    1.077   .     S
C393   C401    1.398   .     A
C393   C400    1.393   .     A
C393   H407    1.083   .     S
C394   C396    1.475   .     S
C394   C402    1.401   .     A
C395   C109    1.328   1_565 S
C395   H129    1.088   1_565 S
C396   O423    1.295   .     A
C396   O422    1.304   .     A
C397   C398    1.427   .     S
C398   O425    1.291   .     A
C398   O424    1.285   .     A
C399   O426    1.293   .     A
C399   O427    1.301   .     A
C399   C401    1.464   .     S
C400   C821    1.405   1_554 S
C400   H316    1.084   1_655 S
C402   H414    1.084   .     S
C402   C403    1.393   .     A
C403   C836    1.396   .     S
C404   H415    1.077   .     S
C404   C818    1.418   1_554 S
C404   C835    1.396   1_554 S
Cu405  O420    1.954   .     S
Cu405  O424    1.950   .     S
Cu405  N419    2.018   .     S
Cu405  O426    1.920   .     S
Cu405  Cu406   2.686   .     S
Cu405  O422    1.940   .     S
Cu406  N418    2.018   .     S
Cu406  O425    1.954   .     S
Cu406  O423    1.920   .     S
Cu406  O421    1.950   .     S
Cu406  O427    1.940   .     S
H408   C109    1.088   1_565 S
H410   N323    1.029   1_655 S
N418   H313    1.029   1_655 S
N418   N323    1.285   1_655 S
O428   C429    1.410   .     S
O428   C307    1.381   1_655 S
C429   H431    1.113   .     S
C429   H862    1.114   .     S
C429   H864    1.109   .     S
H430   C861    1.114   1_554 S
H432   C861    1.109   1_554 S
C433   C443    1.427   .     S
C433   O469    1.285   .     A
C433   O468    1.291   .     A
C434   C435    1.418   .     A
C434   C4      1.426   1_556 S
C434   C20     1.418   1_556 S
C435   C439    1.413   .     A
C435   C442    1.422   .     A
C436   C440    1.402   .     A
C437   C438    1.392   .     A
C437   C4      1.420   1_556 S
C437   C16     1.405   1_556 S
C438   C439    1.387   .     A
C438   H459    1.084   .     S
C439   H464    1.080   .     S
C440   C449    1.398   .     A
C440   H461    1.077   .     S
C441   C449    1.398   .     A
C441   C448    1.393   .     A
C441   H455    1.083   .     S
C442   C444    1.475   .     S
C442   C450    1.401   .     A
C443   C589    1.328   .     S
C443   H609    1.088   .     S
C444   O471    1.295   .     A
C444   O470    1.304   .     A
C445   C446    1.427   .     S
C445   C731    1.328   1_545 S
C445   H744    1.088   1_545 S
C446   O473    1.291   .     A
C446   O472    1.285   .     A
C447   O474    1.293   .     A
C447   O475    1.301   .     A
C447   C449    1.464   .     S
C448   H508    1.084   .     S
C450   H462    1.084   .     S
C450   C451    1.393   .     A
C451   C20     1.396   1_556 S
C451   O572    1.381   1_455 S
C452   H463    1.077   .     S
Cu453  O468    1.954   .     S
Cu453  O472    1.950   .     S
Cu453  N467    2.018   .     S
Cu453  O474    1.920   .     S
Cu453  Cu454   2.686   .     S
Cu453  O470    1.940   .     S
Cu454  N466    2.018   .     S
Cu454  O473    1.954   .     S
Cu454  O471    1.920   .     S
Cu454  O469    1.950   .     S
Cu454  O475    1.940   .     S
H456   C589    1.088   .     S
H457   N562    1.029   1_455 S
H458   N515    1.029   .     S
H460   C544    1.084   1_455 S
H465   C731    1.088   1_545 S
N466   H505    1.029   .     S
N466   N515    1.285   .     S
N467   N562    1.285   1_455 S
N467   H554    1.029   1_455 S
O476   C477    1.410   .     S
O476   C499    1.381   .     S
C477   H479    1.113   .     S
C477   H46     1.114   1_556 S
C477   H48     1.109   1_556 S
C481   C491    1.427   .     S
C481   O517    1.285   .     A
C481   O516    1.291   .     A
C482   C483    1.418   .     A
C482   C52     1.426   1_556 S
C482   C68     1.418   1_556 S
C483   C487    1.413   .     A
C483   C490    1.422   .     A
C484   C488    1.402   .     A
C485   C486    1.392   .     A
C485   C52     1.420   1_556 S
C485   C64     1.405   1_556 S
C486   C487    1.387   .     A
C486   H507    1.084   .     S
C487   H512    1.080   .     S
C488   C497    1.398   .     A
C488   H509    1.077   .     S
C489   C497    1.398   .     A
C489   C496    1.393   .     A
C489   H503    1.083   .     S
C490   C492    1.475   .     S
C490   C498    1.401   .     A
C491   C637    1.328   .     S
C491   H657    1.088   .     S
C492   O519    1.295   .     A
C492   O518    1.304   .     A
C493   C494    1.427   .     S
C493   C779    1.328   1_545 S
C493   H792    1.088   1_545 S
C494   O521    1.291   .     A
C494   O520    1.285   .     A
C495   O522    1.293   .     A
C495   O523    1.301   .     A
C495   C497    1.464   .     S
C496   H556    1.084   .     S
C498   H510    1.084   .     S
C498   C499    1.393   .     A
C499   C68     1.396   1_556 S
C500   H511    1.077   .     S
Cu501  O516    1.954   .     S
Cu501  O520    1.950   .     S
Cu501  N515    2.018   .     S
Cu501  O522    1.920   .     S
Cu501  Cu502   2.686   .     S
Cu501  O518    1.940   .     S
Cu502  N514    2.018   .     S
Cu502  O521    1.954   .     S
Cu502  O519    1.920   .     S
Cu502  O517    1.950   .     S
Cu502  O523    1.940   .     S
H504   C637    1.088   .     S
H506   N563    1.029   .     S
H513   C779    1.088   1_545 S
N514   H553    1.029   .     S
N514   N563    1.285   .     S
O524   C525    1.410   .     S
O524   C547    1.381   .     S
C525   H527    1.113   .     S
C525   H94     1.114   1_556 S
C525   H96     1.109   1_556 S
C529   C539    1.427   .     S
C529   O565    1.285   .     A
C529   O564    1.291   .     A
C530   C531    1.418   .     A
C530   C100    1.426   1_556 S
C530   C116    1.418   1_556 S
C531   C535    1.413   .     A
C531   C538    1.422   .     A
C532   C536    1.402   .     A
C533   C534    1.392   .     A
C533   C100    1.420   1_556 S
C533   C112    1.405   1_556 S
C534   C535    1.387   .     A
C534   H555    1.084   .     S
C535   H560    1.080   .     S
C536   C545    1.398   .     A
C536   H557    1.077   .     S
C537   C545    1.398   .     A
C537   C544    1.393   .     A
C537   H551    1.083   .     S
C538   C540    1.475   .     S
C538   C546    1.401   .     A
C539   C685    1.328   .     S
C539   H705    1.088   .     S
C540   O567    1.295   .     A
C540   O566    1.304   .     A
C541   C542    1.427   .     S
C541   C827    1.328   1_545 S
C541   H840    1.088   1_545 S
C542   O569    1.291   .     A
C542   O568    1.285   .     A
C543   O570    1.293   .     A
C543   O571    1.301   .     A
C543   C545    1.464   .     S
C544   H460    1.084   1_655 S
C546   H558    1.084   .     S
C546   C547    1.393   .     A
C547   C116    1.396   1_556 S
C548   H559    1.077   .     S
Cu549  O564    1.954   .     S
Cu549  O568    1.950   .     S
Cu549  N563    2.018   .     S
Cu549  O570    1.920   .     S
Cu549  Cu550   2.686   .     S
Cu549  O566    1.940   .     S
Cu550  N562    2.018   .     S
Cu550  O569    1.954   .     S
Cu550  O567    1.920   .     S
Cu550  O565    1.950   .     S
Cu550  O571    1.940   .     S
H552   C685    1.088   .     S
H554   N467    1.029   1_655 S
H561   C827    1.088   1_545 S
N562   H457    1.029   1_655 S
N562   N467    1.285   1_655 S
O572   C573    1.410   .     S
O572   C451    1.381   1_655 S
C573   H575    1.113   .     S
C573   H142    1.114   1_556 S
C573   H144    1.109   1_556 S
C577   C587    1.427   .     S
C577   O613    1.285   .     A
C577   O612    1.291   .     A
C578   C579    1.418   .     A
C578   C148    1.426   1_556 S
C578   C164    1.418   1_556 S
C579   C583    1.413   .     A
C579   C586    1.422   .     A
C580   C584    1.402   .     A
C581   C582    1.392   .     A
C581   C148    1.420   1_556 S
C581   C160    1.405   1_556 S
C582   C583    1.387   .     A
C582   H603    1.084   .     S
C583   H608    1.080   .     S
C584   C593    1.398   .     A
C584   H605    1.077   .     S
C585   C593    1.398   .     A
C585   C592    1.393   .     A
C585   H599    1.083   .     S
C586   C588    1.475   .     S
C586   C594    1.401   .     A
C587   C733    1.328   .     S
C587   H753    1.088   .     S
C588   O615    1.295   .     A
C588   O614    1.304   .     A
C589   C590    1.427   .     S
C590   O617    1.291   .     A
C590   O616    1.285   .     A
C591   O618    1.293   .     A
C591   O619    1.301   .     A
C591   C593    1.464   .     S
C592   H652    1.084   .     S
C594   H606    1.084   .     S
C594   C595    1.393   .     A
C595   C164    1.396   1_556 S
C595   O716    1.381   1_455 S
C596   H607    1.077   .     S
Cu597  O612    1.954   .     S
Cu597  O616    1.950   .     S
Cu597  N611    2.018   .     S
Cu597  O618    1.920   .     S
Cu597  Cu598   2.686   .     S
Cu597  O614    1.940   .     S
Cu598  N610    2.018   .     S
Cu598  O617    1.954   .     S
Cu598  O615    1.920   .     S
Cu598  O613    1.950   .     S
Cu598  O619    1.940   .     S
H600   C733    1.088   .     S
H601   N706    1.029   1_455 S
H602   N659    1.029   .     S
H604   C688    1.084   1_455 S
N610   H649    1.029   .     S
N610   N659    1.285   .     S
N611   N706    1.285   1_455 S
N611   H698    1.029   1_455 S
O620   C621    1.410   .     S
O620   C643    1.381   .     S
C621   H623    1.113   .     S
C621   H190    1.114   1_556 S
C621   H192    1.109   1_556 S
C625   C635    1.427   .     S
C625   O661    1.285   .     A
C625   O660    1.291   .     A
C626   C627    1.418   .     A
C626   C196    1.426   1_556 S
C626   C212    1.418   1_556 S
C627   C631    1.413   .     A
C627   C634    1.422   .     A
C628   C632    1.402   .     A
C629   C630    1.392   .     A
C629   C196    1.420   1_556 S
C629   C208    1.405   1_556 S
C630   C631    1.387   .     A
C630   H651    1.084   .     S
C631   H656    1.080   .     S
C632   C641    1.398   .     A
C632   H653    1.077   .     S
C633   C641    1.398   .     A
C633   C640    1.393   .     A
C633   H647    1.083   .     S
C634   C636    1.475   .     S
C634   C642    1.401   .     A
C635   C781    1.328   .     S
C635   H801    1.088   .     S
C636   O663    1.295   .     A
C636   O662    1.304   .     A
C637   C638    1.427   .     S
C638   O665    1.291   .     A
C638   O664    1.285   .     A
C639   O666    1.293   .     A
C639   O667    1.301   .     A
C639   C641    1.464   .     S
C640   H700    1.084   .     S
C642   H654    1.084   .     S
C642   C643    1.393   .     A
C643   C212    1.396   1_556 S
C644   H655    1.077   .     S
Cu645  O660    1.954   .     S
Cu645  O664    1.950   .     S
Cu645  N659    2.018   .     S
Cu645  O666    1.920   .     S
Cu645  Cu646   2.686   .     S
Cu645  O662    1.940   .     S
Cu646  N658    2.018   .     S
Cu646  O665    1.954   .     S
Cu646  O663    1.920   .     S
Cu646  O661    1.950   .     S
Cu646  O667    1.940   .     S
H648   C781    1.088   .     S
H650   N707    1.029   .     S
N658   H697    1.029   .     S
N658   N707    1.285   .     S
O668   C669    1.410   .     S
O668   C691    1.381   .     S
C669   H671    1.113   .     S
C669   H238    1.114   1_556 S
C669   H240    1.109   1_556 S
C673   C683    1.427   .     S
C673   O709    1.285   .     A
C673   O708    1.291   .     A
C674   C675    1.418   .     A
C674   C244    1.426   1_556 S
C674   C260    1.418   1_556 S
C675   C679    1.413   .     A
C675   C682    1.422   .     A
C676   C680    1.402   .     A
C677   C678    1.392   .     A
C677   C244    1.420   1_556 S
C677   C256    1.405   1_556 S
C678   C679    1.387   .     A
C678   H699    1.084   .     S
C679   H704    1.080   .     S
C680   C689    1.398   .     A
C680   H701    1.077   .     S
C681   C689    1.398   .     A
C681   C688    1.393   .     A
C681   H695    1.083   .     S
C682   C684    1.475   .     S
C682   C690    1.401   .     A
C683   C829    1.328   .     S
C683   H849    1.088   .     S
C684   O711    1.295   .     A
C684   O710    1.304   .     A
C685   C686    1.427   .     S
C686   O713    1.291   .     A
C686   O712    1.285   .     A
C687   O714    1.293   .     A
C687   O715    1.301   .     A
C687   C689    1.464   .     S
C688   H604    1.084   1_655 S
C690   H702    1.084   .     S
C690   C691    1.393   .     A
C691   C260    1.396   1_556 S
C692   H703    1.077   .     S
Cu693  O708    1.954   .     S
Cu693  O712    1.950   .     S
Cu693  N707    2.018   .     S
Cu693  O714    1.920   .     S
Cu693  Cu694   2.686   .     S
Cu693  O710    1.940   .     S
Cu694  N706    2.018   .     S
Cu694  O713    1.954   .     S
Cu694  O711    1.920   .     S
Cu694  O709    1.950   .     S
Cu694  O715    1.940   .     S
H696   C829    1.088   .     S
H698   N611    1.029   1_655 S
N706   H601    1.029   1_655 S
N706   N611    1.285   1_655 S
O716   C717    1.410   .     S
O716   C595    1.381   1_655 S
C717   H719    1.113   .     S
C717   H286    1.114   1_556 S
C717   H288    1.109   1_556 S
C721   C731    1.427   .     S
C721   O757    1.285   .     A
C721   O756    1.291   .     A
C722   C723    1.418   .     A
C722   C292    1.426   1_556 S
C722   C308    1.418   1_556 S
C723   C727    1.413   .     A
C723   C730    1.422   .     A
C724   C728    1.402   .     A
C725   C726    1.392   .     A
C725   C292    1.420   1_556 S
C725   C304    1.405   1_556 S
C726   C727    1.387   .     A
C726   H747    1.084   .     S
C727   H752    1.080   .     S
C728   C737    1.398   .     A
C728   H749    1.077   .     S
C729   C737    1.398   .     A
C729   C736    1.393   .     A
C729   H743    1.083   .     S
C730   C732    1.475   .     S
C730   C738    1.401   .     A
C731   C445    1.328   1_565 S
C731   H465    1.088   1_565 S
C732   O759    1.295   .     A
C732   O758    1.304   .     A
C733   C734    1.427   .     S
C734   O761    1.291   .     A
C734   O760    1.285   .     A
C735   O762    1.293   .     A
C735   O763    1.301   .     A
C735   C737    1.464   .     S
C736   H796    1.084   .     S
C738   H750    1.084   .     S
C738   C739    1.393   .     A
C739   C308    1.396   1_556 S
C739   O860    1.381   1_455 S
C740   H751    1.077   .     S
Cu741  O756    1.954   .     S
Cu741  O760    1.950   .     S
Cu741  N755    2.018   .     S
Cu741  O762    1.920   .     S
Cu741  Cu742   2.686   .     S
Cu741  O758    1.940   .     S
Cu742  N754    2.018   .     S
Cu742  O761    1.954   .     S
Cu742  O759    1.920   .     S
Cu742  O757    1.950   .     S
Cu742  O763    1.940   .     S
H744   C445    1.088   1_565 S
H745   N850    1.029   1_455 S
H746   N803    1.029   .     S
H748   C832    1.084   1_455 S
N754   H793    1.029   .     S
N754   N803    1.285   .     S
N755   N850    1.285   1_455 S
N755   H842    1.029   1_455 S
O764   C765    1.410   .     S
O764   C787    1.381   .     S
C765   H767    1.113   .     S
C765   H334    1.114   1_556 S
C765   H336    1.109   1_556 S
C769   C779    1.427   .     S
C769   O805    1.285   .     A
C769   O804    1.291   .     A
C770   C771    1.418   .     A
C770   C340    1.426   1_556 S
C770   C356    1.418   1_556 S
C771   C775    1.413   .     A
C771   C778    1.422   .     A
C772   C776    1.402   .     A
C773   C774    1.392   .     A
C773   C340    1.420   1_556 S
C773   C352    1.405   1_556 S
C774   C775    1.387   .     A
C774   H795    1.084   .     S
C775   H800    1.080   .     S
C776   C785    1.398   .     A
C776   H797    1.077   .     S
C777   C785    1.398   .     A
C777   C784    1.393   .     A
C777   H791    1.083   .     S
C778   C780    1.475   .     S
C778   C786    1.401   .     A
C779   C493    1.328   1_565 S
C779   H513    1.088   1_565 S
C780   O807    1.295   .     A
C780   O806    1.304   .     A
C781   C782    1.427   .     S
C782   O809    1.291   .     A
C782   O808    1.285   .     A
C783   O810    1.293   .     A
C783   O811    1.301   .     A
C783   C785    1.464   .     S
C784   H844    1.084   .     S
C786   H798    1.084   .     S
C786   C787    1.393   .     A
C787   C356    1.396   1_556 S
C788   H799    1.077   .     S
Cu789  O804    1.954   .     S
Cu789  O808    1.950   .     S
Cu789  N803    2.018   .     S
Cu789  O810    1.920   .     S
Cu789  Cu790   2.686   .     S
Cu789  O806    1.940   .     S
Cu790  N802    2.018   .     S
Cu790  O809    1.954   .     S
Cu790  O807    1.920   .     S
Cu790  O805    1.950   .     S
Cu790  O811    1.940   .     S
H792   C493    1.088   1_565 S
H794   N851    1.029   .     S
N802   H841    1.029   .     S
N802   N851    1.285   .     S
O812   C813    1.410   .     S
O812   C835    1.381   .     S
C813   H815    1.113   .     S
C813   H382    1.114   1_556 S
C813   H384    1.109   1_556 S
C817   C827    1.427   .     S
C817   O853    1.285   .     A
C817   O852    1.291   .     A
C818   C819    1.418   .     A
C818   C388    1.426   1_556 S
C818   C404    1.418   1_556 S
C819   C823    1.413   .     A
C819   C826    1.422   .     A
C820   C824    1.402   .     A
C821   C822    1.392   .     A
C821   C388    1.420   1_556 S
C821   C400    1.405   1_556 S
C822   C823    1.387   .     A
C822   H843    1.084   .     S
C823   H848    1.080   .     S
C824   C833    1.398   .     A
C824   H845    1.077   .     S
C825   C833    1.398   .     A
C825   C832    1.393   .     A
C825   H839    1.083   .     S
C826   C828    1.475   .     S
C826   C834    1.401   .     A
C827   C541    1.328   1_565 S
C827   H561    1.088   1_565 S
C828   O855    1.295   .     A
C828   O854    1.304   .     A
C829   C830    1.427   .     S
C830   O857    1.291   .     A
C830   O856    1.285   .     A
C831   O858    1.293   .     A
C831   O859    1.301   .     A
C831   C833    1.464   .     S
C832   H748    1.084   1_655 S
C834   H846    1.084   .     S
C834   C835    1.393   .     A
C835   C404    1.396   1_556 S
C836   H847    1.077   .     S
Cu837  O852    1.954   .     S
Cu837  O856    1.950   .     S
Cu837  N851    2.018   .     S
Cu837  O858    1.920   .     S
Cu837  Cu838   2.686   .     S
Cu837  O854    1.940   .     S
Cu838  N850    2.018   .     S
Cu838  O857    1.954   .     S
Cu838  O855    1.920   .     S
Cu838  O853    1.950   .     S
Cu838  O859    1.940   .     S
H840   C541    1.088   1_565 S
H842   N755    1.029   1_655 S
N850   H745    1.029   1_655 S
N850   N755    1.285   1_655 S
O860   C861    1.410   .     S
O860   C739    1.381   1_655 S
C861   H863    1.113   .     S
C861   H430    1.114   1_556 S
C861   H432    1.109   1_556 S
