data_str_m2_o2_o5_pcu_sym.21
_audit_creation_date              2020-01-03
_audit_creation_method            'Materials Studio'
_symmetry_space_group_name_H-M    'P1'
_symmetry_Int_Tables_number       1
_symmetry_cell_setting            triclinic
loop_
_symmetry_equiv_pos_as_xyz
  x,y,z
_cell_length_a                    30.2955
_cell_length_b                    28.0403
_cell_length_c                    27.1910
_cell_angle_alpha                 90.0000
_cell_angle_beta                  92.5137
_cell_angle_gamma                 89.9997
loop_
_atom_site_label
_atom_site_type_symbol
_atom_site_fract_x
_atom_site_fract_y
_atom_site_fract_z
_atom_site_U_iso_or_equiv
_atom_site_adp_type
_atom_site_occupancy
C1     C     0.16507   0.25003   0.16681   0.00000  Uiso   1.00
C2     C     0.28027   0.44607   0.19621   0.00000  Uiso   1.00
C3     C     0.24999   0.25000   0.07363   0.00000  Uiso   1.00
C4     C     0.25001   0.25000   0.25970   0.00000  Uiso   1.00
C5     C     0.25000   0.02718   0.16667   0.00000  Uiso   1.00
C6     C     0.25000   0.47271   0.16667   0.00000  Uiso   1.00
C7     C     0.25000   0.25001   0.02187   0.00000  Uiso   1.00
C8     C     0.25000   0.25001   0.31146   0.00000  Uiso   1.00
C9     C     0.04836   0.29167   0.18080   0.00000  Uiso   1.00
C10    C     0.45298   0.20955   0.18053   0.00000  Uiso   1.00
C11    C     0.45164   0.29167   0.15253   0.00000  Uiso   1.00
C12    C     0.33493   0.25003   0.16652   0.00000  Uiso   1.00
C13    C     0.04702   0.20955   0.15280   0.00000  Uiso   1.00
C14    C     0.09425   0.29154   0.18054   0.00000  Uiso   1.00
C15    C     0.40713   0.20912   0.17969   0.00000  Uiso   1.00
C16    C     0.40575   0.29155   0.15280   0.00000  Uiso   1.00
C17    C     0.09287   0.20912   0.15363   0.00000  Uiso   1.00
C18    C     0.11680   0.25020   0.16705   0.00000  Uiso   1.00
C19    C     0.38320   0.25020   0.16628   0.00000  Uiso   1.00
C20    C     0.02430   0.25072   0.16667   0.00000  Uiso   1.00
C21    C     0.47570   0.25072   0.16665   0.00000  Uiso   1.00
C22    C     0.27576   0.10396   0.20060   0.00000  Uiso   1.00
C23    C     0.22065   0.39595   0.13653   0.00000  Uiso   1.00
C24    C     0.22424   0.10396   0.13273   0.00000  Uiso   1.00
C25    C     0.27935   0.39595   0.19680   0.00000  Uiso   1.00
C26    C     0.27516   0.05382   0.20159   0.00000  Uiso   1.00
C27    C     0.21974   0.44607   0.13712   0.00000  Uiso   1.00
C28    C     0.22484   0.05382   0.13174   0.00000  Uiso   1.00
Cu29   Cu    0.25000   0.29821   0.16667   0.00000  Uiso   1.00
Cu30   Cu    0.25000   0.20179   0.16667   0.00000  Uiso   1.00
H31    H     0.03180   0.32362   0.19265   0.00000  Uiso   1.00
H32    H     0.19474   0.46329   0.11399   0.00000  Uiso   1.00
H33    H     0.20521   0.03658   0.10294   0.00000  Uiso   1.00
H34    H     0.30526   0.46329   0.21934   0.00000  Uiso   1.00
H35    H     0.47060   0.17773   0.19252   0.00000  Uiso   1.00
H36    H     0.46820   0.32362   0.14070   0.00000  Uiso   1.00
H37    H     0.02940   0.17773   0.14081   0.00000  Uiso   1.00
H38    H     0.11208   0.32357   0.19155   0.00000  Uiso   1.00
H39    H     0.39054   0.17676   0.19013   0.00000  Uiso   1.00
H40    H     0.38792   0.32357   0.14179   0.00000  Uiso   1.00
H41    H     0.10946   0.17677   0.14319   0.00000  Uiso   1.00
H42    H     0.29479   0.03658   0.23039   0.00000  Uiso   1.00
I43    I     0.31980   0.13494   0.25448   0.00000  Uiso   1.00
I44    I     0.17437   0.36447   0.08529   0.00000  Uiso   1.00
I45    I     0.18020   0.13494   0.07885   0.00000  Uiso   1.00
I46    I     0.32563   0.36447   0.24804   0.00000  Uiso   1.00
N47    N     0.25000   0.12935   0.16667   0.00000  Uiso   1.00
N48    N     0.25000   0.37065   0.16667   0.00000  Uiso   1.00
O49    O     0.18573   0.29071   0.16667   0.00000  Uiso   1.00
O50    O     0.31427   0.20929   0.16666   0.00000  Uiso   1.00
O51    O     0.31427   0.29072   0.16666   0.00000  Uiso   1.00
O52    O     0.18573   0.20928   0.16667   0.00000  Uiso   1.00
O53    O     0.25000   0.29071   0.09613   0.00000  Uiso   1.00
O54    O     0.25000   0.20929   0.23720   0.00000  Uiso   1.00
O55    O     0.25000   0.29071   0.23720   0.00000  Uiso   1.00
O56    O     0.25000   0.20929   0.09613   0.00000  Uiso   1.00
C57    C     0.66507   0.25003   0.16681   0.00000  Uiso   1.00
C58    C     0.78027   0.44607   0.19621   0.00000  Uiso   1.00
C59    C     0.74999   0.25000   0.07363   0.00000  Uiso   1.00
C60    C     0.75001   0.25000   0.25970   0.00000  Uiso   1.00
C61    C     0.75000   0.02718   0.16667   0.00000  Uiso   1.00
C62    C     0.75000   0.47271   0.16667   0.00000  Uiso   1.00
C63    C     0.75000   0.25001   0.02187   0.00000  Uiso   1.00
C64    C     0.75000   0.25001   0.31146   0.00000  Uiso   1.00
C65    C     0.54836   0.29167   0.18080   0.00000  Uiso   1.00
C66    C     0.95298   0.20955   0.18053   0.00000  Uiso   1.00
C67    C     0.95164   0.29167   0.15253   0.00000  Uiso   1.00
C68    C     0.83493   0.25003   0.16652   0.00000  Uiso   1.00
C69    C     0.54702   0.20955   0.15280   0.00000  Uiso   1.00
C70    C     0.59425   0.29154   0.18054   0.00000  Uiso   1.00
C71    C     0.90713   0.20912   0.17969   0.00000  Uiso   1.00
C72    C     0.90575   0.29155   0.15280   0.00000  Uiso   1.00
C73    C     0.59287   0.20912   0.15363   0.00000  Uiso   1.00
C74    C     0.61680   0.25020   0.16705   0.00000  Uiso   1.00
C75    C     0.88320   0.25020   0.16628   0.00000  Uiso   1.00
C76    C     0.52430   0.25072   0.16667   0.00000  Uiso   1.00
C77    C     0.97570   0.25072   0.16665   0.00000  Uiso   1.00
C78    C     0.77576   0.10396   0.20060   0.00000  Uiso   1.00
C79    C     0.72065   0.39595   0.13653   0.00000  Uiso   1.00
C80    C     0.72424   0.10396   0.13273   0.00000  Uiso   1.00
C81    C     0.77935   0.39595   0.19680   0.00000  Uiso   1.00
C82    C     0.77516   0.05382   0.20159   0.00000  Uiso   1.00
C83    C     0.71974   0.44607   0.13712   0.00000  Uiso   1.00
C84    C     0.72484   0.05382   0.13174   0.00000  Uiso   1.00
Cu85   Cu    0.75000   0.29821   0.16667   0.00000  Uiso   1.00
Cu86   Cu    0.75000   0.20179   0.16667   0.00000  Uiso   1.00
H87    H     0.53180   0.32362   0.19265   0.00000  Uiso   1.00
H88    H     0.69474   0.46329   0.11399   0.00000  Uiso   1.00
H89    H     0.70521   0.03658   0.10294   0.00000  Uiso   1.00
H90    H     0.80526   0.46329   0.21934   0.00000  Uiso   1.00
H91    H     0.97060   0.17773   0.19252   0.00000  Uiso   1.00
H92    H     0.96820   0.32362   0.14070   0.00000  Uiso   1.00
H93    H     0.52940   0.17773   0.14081   0.00000  Uiso   1.00
H94    H     0.61208   0.32357   0.19155   0.00000  Uiso   1.00
H95    H     0.89054   0.17676   0.19013   0.00000  Uiso   1.00
H96    H     0.88792   0.32357   0.14179   0.00000  Uiso   1.00
H97    H     0.60946   0.17677   0.14319   0.00000  Uiso   1.00
H98    H     0.79479   0.03658   0.23039   0.00000  Uiso   1.00
I99    I     0.81980   0.13494   0.25448   0.00000  Uiso   1.00
I100   I     0.67437   0.36447   0.08529   0.00000  Uiso   1.00
I101   I     0.68020   0.13494   0.07885   0.00000  Uiso   1.00
I102   I     0.82563   0.36447   0.24804   0.00000  Uiso   1.00
N103   N     0.75000   0.12935   0.16667   0.00000  Uiso   1.00
N104   N     0.75000   0.37065   0.16667   0.00000  Uiso   1.00
O105   O     0.68573   0.29071   0.16667   0.00000  Uiso   1.00
O106   O     0.81427   0.20929   0.16666   0.00000  Uiso   1.00
O107   O     0.81427   0.29072   0.16666   0.00000  Uiso   1.00
O108   O     0.68573   0.20928   0.16667   0.00000  Uiso   1.00
O109   O     0.75000   0.29071   0.09613   0.00000  Uiso   1.00
O110   O     0.75000   0.20929   0.23720   0.00000  Uiso   1.00
O111   O     0.75000   0.29071   0.23720   0.00000  Uiso   1.00
O112   O     0.75000   0.20929   0.09613   0.00000  Uiso   1.00
C113   C     0.16507   0.75003   0.16681   0.00000  Uiso   1.00
C114   C     0.28027   0.94607   0.19621   0.00000  Uiso   1.00
C115   C     0.24999   0.75000   0.07363   0.00000  Uiso   1.00
C116   C     0.25001   0.75000   0.25970   0.00000  Uiso   1.00
C117   C     0.25000   0.52718   0.16667   0.00000  Uiso   1.00
C118   C     0.25000   0.97271   0.16667   0.00000  Uiso   1.00
C119   C     0.25000   0.75001   0.02187   0.00000  Uiso   1.00
C120   C     0.25000   0.75001   0.31146   0.00000  Uiso   1.00
C121   C     0.04836   0.79167   0.18080   0.00000  Uiso   1.00
C122   C     0.45298   0.70955   0.18053   0.00000  Uiso   1.00
C123   C     0.45164   0.79167   0.15253   0.00000  Uiso   1.00
C124   C     0.33493   0.75003   0.16652   0.00000  Uiso   1.00
C125   C     0.04702   0.70955   0.15280   0.00000  Uiso   1.00
C126   C     0.09425   0.79154   0.18054   0.00000  Uiso   1.00
C127   C     0.40713   0.70912   0.17969   0.00000  Uiso   1.00
C128   C     0.40575   0.79155   0.15280   0.00000  Uiso   1.00
C129   C     0.09287   0.70912   0.15363   0.00000  Uiso   1.00
C130   C     0.11680   0.75020   0.16705   0.00000  Uiso   1.00
C131   C     0.38320   0.75020   0.16628   0.00000  Uiso   1.00
C132   C     0.02430   0.75072   0.16667   0.00000  Uiso   1.00
C133   C     0.47570   0.75072   0.16665   0.00000  Uiso   1.00
C134   C     0.27576   0.60396   0.20060   0.00000  Uiso   1.00
C135   C     0.22065   0.89595   0.13653   0.00000  Uiso   1.00
C136   C     0.22424   0.60396   0.13273   0.00000  Uiso   1.00
C137   C     0.27935   0.89595   0.19680   0.00000  Uiso   1.00
C138   C     0.27516   0.55382   0.20159   0.00000  Uiso   1.00
C139   C     0.21974   0.94607   0.13712   0.00000  Uiso   1.00
C140   C     0.22484   0.55382   0.13174   0.00000  Uiso   1.00
Cu141  Cu    0.25000   0.79821   0.16667   0.00000  Uiso   1.00
Cu142  Cu    0.25000   0.70179   0.16667   0.00000  Uiso   1.00
H143   H     0.03180   0.82362   0.19265   0.00000  Uiso   1.00
H144   H     0.19474   0.96329   0.11399   0.00000  Uiso   1.00
H145   H     0.20521   0.53658   0.10294   0.00000  Uiso   1.00
H146   H     0.30526   0.96329   0.21934   0.00000  Uiso   1.00
H147   H     0.47060   0.67773   0.19252   0.00000  Uiso   1.00
H148   H     0.46820   0.82362   0.14070   0.00000  Uiso   1.00
H149   H     0.02940   0.67773   0.14081   0.00000  Uiso   1.00
H150   H     0.11208   0.82357   0.19155   0.00000  Uiso   1.00
H151   H     0.39054   0.67676   0.19013   0.00000  Uiso   1.00
H152   H     0.38792   0.82357   0.14179   0.00000  Uiso   1.00
H153   H     0.10946   0.67677   0.14319   0.00000  Uiso   1.00
H154   H     0.29479   0.53658   0.23039   0.00000  Uiso   1.00
I155   I     0.31980   0.63494   0.25448   0.00000  Uiso   1.00
I156   I     0.17437   0.86447   0.08529   0.00000  Uiso   1.00
I157   I     0.18020   0.63494   0.07885   0.00000  Uiso   1.00
I158   I     0.32563   0.86447   0.24804   0.00000  Uiso   1.00
N159   N     0.25000   0.62935   0.16667   0.00000  Uiso   1.00
N160   N     0.25000   0.87065   0.16667   0.00000  Uiso   1.00
O161   O     0.18573   0.79071   0.16667   0.00000  Uiso   1.00
O162   O     0.31427   0.70929   0.16666   0.00000  Uiso   1.00
O163   O     0.31427   0.79072   0.16666   0.00000  Uiso   1.00
O164   O     0.18573   0.70928   0.16667   0.00000  Uiso   1.00
O165   O     0.25000   0.79071   0.09613   0.00000  Uiso   1.00
O166   O     0.25000   0.70929   0.23720   0.00000  Uiso   1.00
O167   O     0.25000   0.79071   0.23720   0.00000  Uiso   1.00
O168   O     0.25000   0.70929   0.09613   0.00000  Uiso   1.00
C169   C     0.66507   0.75003   0.16681   0.00000  Uiso   1.00
C170   C     0.78027   0.94607   0.19621   0.00000  Uiso   1.00
C171   C     0.74999   0.75000   0.07363   0.00000  Uiso   1.00
C172   C     0.75001   0.75000   0.25970   0.00000  Uiso   1.00
C173   C     0.75000   0.52718   0.16667   0.00000  Uiso   1.00
C174   C     0.75000   0.97271   0.16667   0.00000  Uiso   1.00
C175   C     0.75000   0.75001   0.02187   0.00000  Uiso   1.00
C176   C     0.75000   0.75001   0.31146   0.00000  Uiso   1.00
C177   C     0.54836   0.79167   0.18080   0.00000  Uiso   1.00
C178   C     0.95298   0.70955   0.18053   0.00000  Uiso   1.00
C179   C     0.95164   0.79167   0.15253   0.00000  Uiso   1.00
C180   C     0.83493   0.75003   0.16652   0.00000  Uiso   1.00
C181   C     0.54702   0.70955   0.15280   0.00000  Uiso   1.00
C182   C     0.59425   0.79154   0.18054   0.00000  Uiso   1.00
C183   C     0.90713   0.70912   0.17969   0.00000  Uiso   1.00
C184   C     0.90575   0.79155   0.15280   0.00000  Uiso   1.00
C185   C     0.59287   0.70912   0.15363   0.00000  Uiso   1.00
C186   C     0.61680   0.75020   0.16705   0.00000  Uiso   1.00
C187   C     0.88320   0.75020   0.16628   0.00000  Uiso   1.00
C188   C     0.52430   0.75072   0.16667   0.00000  Uiso   1.00
C189   C     0.97570   0.75072   0.16665   0.00000  Uiso   1.00
C190   C     0.77576   0.60396   0.20060   0.00000  Uiso   1.00
C191   C     0.72065   0.89595   0.13653   0.00000  Uiso   1.00
C192   C     0.72424   0.60396   0.13273   0.00000  Uiso   1.00
C193   C     0.77935   0.89595   0.19680   0.00000  Uiso   1.00
C194   C     0.77516   0.55382   0.20159   0.00000  Uiso   1.00
C195   C     0.71974   0.94607   0.13712   0.00000  Uiso   1.00
C196   C     0.72484   0.55382   0.13174   0.00000  Uiso   1.00
Cu197  Cu    0.75000   0.79821   0.16667   0.00000  Uiso   1.00
Cu198  Cu    0.75000   0.70179   0.16667   0.00000  Uiso   1.00
H199   H     0.53180   0.82362   0.19265   0.00000  Uiso   1.00
H200   H     0.69474   0.96329   0.11399   0.00000  Uiso   1.00
H201   H     0.70521   0.53658   0.10294   0.00000  Uiso   1.00
H202   H     0.80526   0.96329   0.21934   0.00000  Uiso   1.00
H203   H     0.97060   0.67773   0.19252   0.00000  Uiso   1.00
H204   H     0.96820   0.82362   0.14070   0.00000  Uiso   1.00
H205   H     0.52940   0.67773   0.14081   0.00000  Uiso   1.00
H206   H     0.61208   0.82357   0.19155   0.00000  Uiso   1.00
H207   H     0.89054   0.67676   0.19013   0.00000  Uiso   1.00
H208   H     0.88792   0.82357   0.14179   0.00000  Uiso   1.00
H209   H     0.60946   0.67677   0.14319   0.00000  Uiso   1.00
H210   H     0.79479   0.53658   0.23039   0.00000  Uiso   1.00
I211   I     0.81980   0.63494   0.25448   0.00000  Uiso   1.00
I212   I     0.67437   0.86447   0.08529   0.00000  Uiso   1.00
I213   I     0.68020   0.63494   0.07885   0.00000  Uiso   1.00
I214   I     0.82563   0.86447   0.24804   0.00000  Uiso   1.00
N215   N     0.75000   0.62935   0.16667   0.00000  Uiso   1.00
N216   N     0.75000   0.87065   0.16667   0.00000  Uiso   1.00
O217   O     0.68573   0.79071   0.16667   0.00000  Uiso   1.00
O218   O     0.81427   0.70929   0.16666   0.00000  Uiso   1.00
O219   O     0.81427   0.79072   0.16666   0.00000  Uiso   1.00
O220   O     0.68573   0.70928   0.16667   0.00000  Uiso   1.00
O221   O     0.75000   0.79071   0.09613   0.00000  Uiso   1.00
O222   O     0.75000   0.70929   0.23720   0.00000  Uiso   1.00
O223   O     0.75000   0.79071   0.23720   0.00000  Uiso   1.00
O224   O     0.75000   0.70929   0.09613   0.00000  Uiso   1.00
C225   C     0.16507   0.25003   0.50015   0.00000  Uiso   1.00
C226   C     0.28027   0.44607   0.52955   0.00000  Uiso   1.00
C227   C     0.24999   0.25000   0.40696   0.00000  Uiso   1.00
C228   C     0.25001   0.25000   0.59304   0.00000  Uiso   1.00
C229   C     0.25000   0.02718   0.50000   0.00000  Uiso   1.00
C230   C     0.25000   0.47271   0.50000   0.00000  Uiso   1.00
C231   C     0.25000   0.25001   0.35521   0.00000  Uiso   1.00
C232   C     0.25000   0.25001   0.64479   0.00000  Uiso   1.00
C233   C     0.04836   0.29167   0.51413   0.00000  Uiso   1.00
C234   C     0.45298   0.20955   0.51386   0.00000  Uiso   1.00
C235   C     0.45164   0.29167   0.48587   0.00000  Uiso   1.00
C236   C     0.33493   0.25003   0.49985   0.00000  Uiso   1.00
C237   C     0.04702   0.20955   0.48613   0.00000  Uiso   1.00
C238   C     0.09425   0.29154   0.51387   0.00000  Uiso   1.00
C239   C     0.40713   0.20912   0.51302   0.00000  Uiso   1.00
C240   C     0.40575   0.29155   0.48613   0.00000  Uiso   1.00
C241   C     0.09287   0.20912   0.48697   0.00000  Uiso   1.00
C242   C     0.11680   0.25020   0.50038   0.00000  Uiso   1.00
C243   C     0.38320   0.25020   0.49962   0.00000  Uiso   1.00
C244   C     0.02430   0.25072   0.50001   0.00000  Uiso   1.00
C245   C     0.47570   0.25072   0.49999   0.00000  Uiso   1.00
C246   C     0.27576   0.10396   0.53393   0.00000  Uiso   1.00
C247   C     0.22065   0.39595   0.46986   0.00000  Uiso   1.00
C248   C     0.22424   0.10396   0.46607   0.00000  Uiso   1.00
C249   C     0.27935   0.39595   0.53014   0.00000  Uiso   1.00
C250   C     0.27516   0.05382   0.53492   0.00000  Uiso   1.00
C251   C     0.21974   0.44607   0.47045   0.00000  Uiso   1.00
C252   C     0.22484   0.05382   0.46508   0.00000  Uiso   1.00
Cu253  Cu    0.25000   0.29821   0.50000   0.00000  Uiso   1.00
Cu254  Cu    0.25000   0.20179   0.50000   0.00000  Uiso   1.00
H255   H     0.03180   0.32362   0.52598   0.00000  Uiso   1.00
H256   H     0.19474   0.46329   0.44733   0.00000  Uiso   1.00
H257   H     0.20521   0.03658   0.43628   0.00000  Uiso   1.00
H258   H     0.30526   0.46329   0.55267   0.00000  Uiso   1.00
H259   H     0.47060   0.17773   0.52586   0.00000  Uiso   1.00
H260   H     0.46820   0.32362   0.47403   0.00000  Uiso   1.00
H261   H     0.02940   0.17773   0.47414   0.00000  Uiso   1.00
H262   H     0.11208   0.32357   0.52488   0.00000  Uiso   1.00
H263   H     0.39054   0.17676   0.52346   0.00000  Uiso   1.00
H264   H     0.38792   0.32357   0.47513   0.00000  Uiso   1.00
H265   H     0.10946   0.17677   0.47652   0.00000  Uiso   1.00
H266   H     0.29479   0.03658   0.56372   0.00000  Uiso   1.00
I267   I     0.31980   0.13494   0.58782   0.00000  Uiso   1.00
I268   I     0.17437   0.36447   0.41862   0.00000  Uiso   1.00
I269   I     0.18020   0.13494   0.41218   0.00000  Uiso   1.00
I270   I     0.32563   0.36447   0.58138   0.00000  Uiso   1.00
N271   N     0.25000   0.12935   0.50000   0.00000  Uiso   1.00
N272   N     0.25000   0.37065   0.50000   0.00000  Uiso   1.00
O273   O     0.18573   0.29071   0.50000   0.00000  Uiso   1.00
O274   O     0.31427   0.20929   0.50000   0.00000  Uiso   1.00
O275   O     0.31427   0.29072   0.50000   0.00000  Uiso   1.00
O276   O     0.18573   0.20928   0.50000   0.00000  Uiso   1.00
O277   O     0.25000   0.29071   0.42946   0.00000  Uiso   1.00
O278   O     0.25000   0.20929   0.57054   0.00000  Uiso   1.00
O279   O     0.25000   0.29071   0.57054   0.00000  Uiso   1.00
O280   O     0.25000   0.20929   0.42946   0.00000  Uiso   1.00
C281   C     0.66507   0.25003   0.50015   0.00000  Uiso   1.00
C282   C     0.78027   0.44607   0.52955   0.00000  Uiso   1.00
C283   C     0.74999   0.25000   0.40696   0.00000  Uiso   1.00
C284   C     0.75001   0.25000   0.59304   0.00000  Uiso   1.00
C285   C     0.75000   0.02718   0.50000   0.00000  Uiso   1.00
C286   C     0.75000   0.47271   0.50000   0.00000  Uiso   1.00
C287   C     0.75000   0.25001   0.35521   0.00000  Uiso   1.00
C288   C     0.75000   0.25001   0.64479   0.00000  Uiso   1.00
C289   C     0.54836   0.29167   0.51413   0.00000  Uiso   1.00
C290   C     0.95298   0.20955   0.51386   0.00000  Uiso   1.00
C291   C     0.95164   0.29167   0.48587   0.00000  Uiso   1.00
C292   C     0.83493   0.25003   0.49985   0.00000  Uiso   1.00
C293   C     0.54702   0.20955   0.48613   0.00000  Uiso   1.00
C294   C     0.59425   0.29154   0.51387   0.00000  Uiso   1.00
C295   C     0.90713   0.20912   0.51302   0.00000  Uiso   1.00
C296   C     0.90575   0.29155   0.48613   0.00000  Uiso   1.00
C297   C     0.59287   0.20912   0.48697   0.00000  Uiso   1.00
C298   C     0.61680   0.25020   0.50038   0.00000  Uiso   1.00
C299   C     0.88320   0.25020   0.49962   0.00000  Uiso   1.00
C300   C     0.52430   0.25072   0.50001   0.00000  Uiso   1.00
C301   C     0.97570   0.25072   0.49999   0.00000  Uiso   1.00
C302   C     0.77576   0.10396   0.53393   0.00000  Uiso   1.00
C303   C     0.72065   0.39595   0.46986   0.00000  Uiso   1.00
C304   C     0.72424   0.10396   0.46607   0.00000  Uiso   1.00
C305   C     0.77935   0.39595   0.53014   0.00000  Uiso   1.00
C306   C     0.77516   0.05382   0.53492   0.00000  Uiso   1.00
C307   C     0.71974   0.44607   0.47045   0.00000  Uiso   1.00
C308   C     0.72484   0.05382   0.46508   0.00000  Uiso   1.00
Cu309  Cu    0.75000   0.29821   0.50000   0.00000  Uiso   1.00
Cu310  Cu    0.75000   0.20179   0.50000   0.00000  Uiso   1.00
H311   H     0.53180   0.32362   0.52598   0.00000  Uiso   1.00
H312   H     0.69474   0.46329   0.44733   0.00000  Uiso   1.00
H313   H     0.70521   0.03658   0.43628   0.00000  Uiso   1.00
H314   H     0.80526   0.46329   0.55267   0.00000  Uiso   1.00
H315   H     0.97060   0.17773   0.52586   0.00000  Uiso   1.00
H316   H     0.96820   0.32362   0.47403   0.00000  Uiso   1.00
H317   H     0.52940   0.17773   0.47414   0.00000  Uiso   1.00
H318   H     0.61208   0.32357   0.52488   0.00000  Uiso   1.00
H319   H     0.89054   0.17676   0.52346   0.00000  Uiso   1.00
H320   H     0.88792   0.32357   0.47513   0.00000  Uiso   1.00
H321   H     0.60946   0.17677   0.47652   0.00000  Uiso   1.00
H322   H     0.79479   0.03658   0.56372   0.00000  Uiso   1.00
I323   I     0.81980   0.13494   0.58782   0.00000  Uiso   1.00
I324   I     0.67437   0.36447   0.41862   0.00000  Uiso   1.00
I325   I     0.68020   0.13494   0.41218   0.00000  Uiso   1.00
I326   I     0.82563   0.36447   0.58138   0.00000  Uiso   1.00
N327   N     0.75000   0.12935   0.50000   0.00000  Uiso   1.00
N328   N     0.75000   0.37065   0.50000   0.00000  Uiso   1.00
O329   O     0.68573   0.29071   0.50000   0.00000  Uiso   1.00
O330   O     0.81427   0.20929   0.50000   0.00000  Uiso   1.00
O331   O     0.81427   0.29072   0.50000   0.00000  Uiso   1.00
O332   O     0.68573   0.20928   0.50000   0.00000  Uiso   1.00
O333   O     0.75000   0.29071   0.42946   0.00000  Uiso   1.00
O334   O     0.75000   0.20929   0.57054   0.00000  Uiso   1.00
O335   O     0.75000   0.29071   0.57054   0.00000  Uiso   1.00
O336   O     0.75000   0.20929   0.42946   0.00000  Uiso   1.00
C337   C     0.16507   0.75003   0.50015   0.00000  Uiso   1.00
C338   C     0.28027   0.94607   0.52955   0.00000  Uiso   1.00
C339   C     0.24999   0.75000   0.40696   0.00000  Uiso   1.00
C340   C     0.25001   0.75000   0.59304   0.00000  Uiso   1.00
C341   C     0.25000   0.52718   0.50000   0.00000  Uiso   1.00
C342   C     0.25000   0.97271   0.50000   0.00000  Uiso   1.00
C343   C     0.25000   0.75001   0.35521   0.00000  Uiso   1.00
C344   C     0.25000   0.75001   0.64479   0.00000  Uiso   1.00
C345   C     0.04836   0.79167   0.51413   0.00000  Uiso   1.00
C346   C     0.45298   0.70955   0.51386   0.00000  Uiso   1.00
C347   C     0.45164   0.79167   0.48587   0.00000  Uiso   1.00
C348   C     0.33493   0.75003   0.49985   0.00000  Uiso   1.00
C349   C     0.04702   0.70955   0.48613   0.00000  Uiso   1.00
C350   C     0.09425   0.79154   0.51387   0.00000  Uiso   1.00
C351   C     0.40713   0.70912   0.51302   0.00000  Uiso   1.00
C352   C     0.40575   0.79155   0.48613   0.00000  Uiso   1.00
C353   C     0.09287   0.70912   0.48697   0.00000  Uiso   1.00
C354   C     0.11680   0.75020   0.50038   0.00000  Uiso   1.00
C355   C     0.38320   0.75020   0.49962   0.00000  Uiso   1.00
C356   C     0.02430   0.75072   0.50001   0.00000  Uiso   1.00
C357   C     0.47570   0.75072   0.49999   0.00000  Uiso   1.00
C358   C     0.27576   0.60396   0.53393   0.00000  Uiso   1.00
C359   C     0.22065   0.89595   0.46986   0.00000  Uiso   1.00
C360   C     0.22424   0.60396   0.46607   0.00000  Uiso   1.00
C361   C     0.27935   0.89595   0.53014   0.00000  Uiso   1.00
C362   C     0.27516   0.55382   0.53492   0.00000  Uiso   1.00
C363   C     0.21974   0.94607   0.47045   0.00000  Uiso   1.00
C364   C     0.22484   0.55382   0.46508   0.00000  Uiso   1.00
Cu365  Cu    0.25000   0.79821   0.50000   0.00000  Uiso   1.00
Cu366  Cu    0.25000   0.70179   0.50000   0.00000  Uiso   1.00
H367   H     0.03180   0.82362   0.52598   0.00000  Uiso   1.00
H368   H     0.19474   0.96329   0.44733   0.00000  Uiso   1.00
H369   H     0.20521   0.53658   0.43628   0.00000  Uiso   1.00
H370   H     0.30526   0.96329   0.55267   0.00000  Uiso   1.00
H371   H     0.47060   0.67773   0.52586   0.00000  Uiso   1.00
H372   H     0.46820   0.82362   0.47403   0.00000  Uiso   1.00
H373   H     0.02940   0.67773   0.47414   0.00000  Uiso   1.00
H374   H     0.11208   0.82357   0.52488   0.00000  Uiso   1.00
H375   H     0.39054   0.67676   0.52346   0.00000  Uiso   1.00
H376   H     0.38792   0.82357   0.47513   0.00000  Uiso   1.00
H377   H     0.10946   0.67677   0.47652   0.00000  Uiso   1.00
H378   H     0.29479   0.53658   0.56372   0.00000  Uiso   1.00
I379   I     0.31980   0.63494   0.58782   0.00000  Uiso   1.00
I380   I     0.17437   0.86447   0.41862   0.00000  Uiso   1.00
I381   I     0.18020   0.63494   0.41218   0.00000  Uiso   1.00
I382   I     0.32563   0.86447   0.58138   0.00000  Uiso   1.00
N383   N     0.25000   0.62935   0.50000   0.00000  Uiso   1.00
N384   N     0.25000   0.87065   0.50000   0.00000  Uiso   1.00
O385   O     0.18573   0.79071   0.50000   0.00000  Uiso   1.00
O386   O     0.31427   0.70929   0.50000   0.00000  Uiso   1.00
O387   O     0.31427   0.79072   0.50000   0.00000  Uiso   1.00
O388   O     0.18573   0.70928   0.50000   0.00000  Uiso   1.00
O389   O     0.25000   0.79071   0.42946   0.00000  Uiso   1.00
O390   O     0.25000   0.70929   0.57054   0.00000  Uiso   1.00
O391   O     0.25000   0.79071   0.57054   0.00000  Uiso   1.00
O392   O     0.25000   0.70929   0.42946   0.00000  Uiso   1.00
C393   C     0.66507   0.75003   0.50015   0.00000  Uiso   1.00
C394   C     0.78027   0.94607   0.52955   0.00000  Uiso   1.00
C395   C     0.74999   0.75000   0.40696   0.00000  Uiso   1.00
C396   C     0.75001   0.75000   0.59304   0.00000  Uiso   1.00
C397   C     0.75000   0.52718   0.50000   0.00000  Uiso   1.00
C398   C     0.75000   0.97271   0.50000   0.00000  Uiso   1.00
C399   C     0.75000   0.75001   0.35521   0.00000  Uiso   1.00
C400   C     0.75000   0.75001   0.64479   0.00000  Uiso   1.00
C401   C     0.54836   0.79167   0.51413   0.00000  Uiso   1.00
C402   C     0.95298   0.70955   0.51386   0.00000  Uiso   1.00
C403   C     0.95164   0.79167   0.48587   0.00000  Uiso   1.00
C404   C     0.83493   0.75003   0.49985   0.00000  Uiso   1.00
C405   C     0.54702   0.70955   0.48613   0.00000  Uiso   1.00
C406   C     0.59425   0.79154   0.51387   0.00000  Uiso   1.00
C407   C     0.90713   0.70912   0.51302   0.00000  Uiso   1.00
C408   C     0.90575   0.79155   0.48613   0.00000  Uiso   1.00
C409   C     0.59287   0.70912   0.48697   0.00000  Uiso   1.00
C410   C     0.61680   0.75020   0.50038   0.00000  Uiso   1.00
C411   C     0.88320   0.75020   0.49962   0.00000  Uiso   1.00
C412   C     0.52430   0.75072   0.50001   0.00000  Uiso   1.00
C413   C     0.97570   0.75072   0.49999   0.00000  Uiso   1.00
C414   C     0.77576   0.60396   0.53393   0.00000  Uiso   1.00
C415   C     0.72065   0.89595   0.46986   0.00000  Uiso   1.00
C416   C     0.72424   0.60396   0.46607   0.00000  Uiso   1.00
C417   C     0.77935   0.89595   0.53014   0.00000  Uiso   1.00
C418   C     0.77516   0.55382   0.53492   0.00000  Uiso   1.00
C419   C     0.71974   0.94607   0.47045   0.00000  Uiso   1.00
C420   C     0.72484   0.55382   0.46508   0.00000  Uiso   1.00
Cu421  Cu    0.75000   0.79821   0.50000   0.00000  Uiso   1.00
Cu422  Cu    0.75000   0.70179   0.50000   0.00000  Uiso   1.00
H423   H     0.53180   0.82362   0.52598   0.00000  Uiso   1.00
H424   H     0.69474   0.96329   0.44733   0.00000  Uiso   1.00
H425   H     0.70521   0.53658   0.43628   0.00000  Uiso   1.00
H426   H     0.80526   0.96329   0.55267   0.00000  Uiso   1.00
H427   H     0.97060   0.67773   0.52586   0.00000  Uiso   1.00
H428   H     0.96820   0.82362   0.47403   0.00000  Uiso   1.00
H429   H     0.52940   0.67773   0.47414   0.00000  Uiso   1.00
H430   H     0.61208   0.82357   0.52488   0.00000  Uiso   1.00
H431   H     0.89054   0.67676   0.52346   0.00000  Uiso   1.00
H432   H     0.88792   0.82357   0.47513   0.00000  Uiso   1.00
H433   H     0.60946   0.67677   0.47652   0.00000  Uiso   1.00
H434   H     0.79479   0.53658   0.56372   0.00000  Uiso   1.00
I435   I     0.81980   0.63494   0.58782   0.00000  Uiso   1.00
I436   I     0.67437   0.86447   0.41862   0.00000  Uiso   1.00
I437   I     0.68020   0.63494   0.41218   0.00000  Uiso   1.00
I438   I     0.82563   0.86447   0.58138   0.00000  Uiso   1.00
N439   N     0.75000   0.62935   0.50000   0.00000  Uiso   1.00
N440   N     0.75000   0.87065   0.50000   0.00000  Uiso   1.00
O441   O     0.68573   0.79071   0.50000   0.00000  Uiso   1.00
O442   O     0.81427   0.70929   0.50000   0.00000  Uiso   1.00
O443   O     0.81427   0.79072   0.50000   0.00000  Uiso   1.00
O444   O     0.68573   0.70928   0.50000   0.00000  Uiso   1.00
O445   O     0.75000   0.79071   0.42946   0.00000  Uiso   1.00
O446   O     0.75000   0.70929   0.57054   0.00000  Uiso   1.00
O447   O     0.75000   0.79071   0.57054   0.00000  Uiso   1.00
O448   O     0.75000   0.70929   0.42946   0.00000  Uiso   1.00
C449   C     0.16507   0.25003   0.83348   0.00000  Uiso   1.00
C450   C     0.28027   0.44607   0.86288   0.00000  Uiso   1.00
C451   C     0.24999   0.25000   0.74030   0.00000  Uiso   1.00
C452   C     0.25001   0.25000   0.92637   0.00000  Uiso   1.00
C453   C     0.25000   0.02718   0.83333   0.00000  Uiso   1.00
C454   C     0.25000   0.47271   0.83333   0.00000  Uiso   1.00
C455   C     0.25000   0.25001   0.68854   0.00000  Uiso   1.00
C456   C     0.25000   0.25001   0.97813   0.00000  Uiso   1.00
C457   C     0.04836   0.29167   0.84747   0.00000  Uiso   1.00
C458   C     0.45298   0.20955   0.84720   0.00000  Uiso   1.00
C459   C     0.45164   0.29167   0.81920   0.00000  Uiso   1.00
C460   C     0.33493   0.25003   0.83318   0.00000  Uiso   1.00
C461   C     0.04702   0.20955   0.81946   0.00000  Uiso   1.00
C462   C     0.09425   0.29154   0.84720   0.00000  Uiso   1.00
C463   C     0.40713   0.20912   0.84636   0.00000  Uiso   1.00
C464   C     0.40575   0.29155   0.81946   0.00000  Uiso   1.00
C465   C     0.09287   0.20912   0.82030   0.00000  Uiso   1.00
C466   C     0.11680   0.25020   0.83371   0.00000  Uiso   1.00
C467   C     0.38320   0.25020   0.83295   0.00000  Uiso   1.00
C468   C     0.02430   0.25072   0.83334   0.00000  Uiso   1.00
C469   C     0.47570   0.25072   0.83332   0.00000  Uiso   1.00
C470   C     0.27576   0.10396   0.86726   0.00000  Uiso   1.00
C471   C     0.22065   0.39595   0.80320   0.00000  Uiso   1.00
C472   C     0.22424   0.10396   0.79940   0.00000  Uiso   1.00
C473   C     0.27935   0.39595   0.86347   0.00000  Uiso   1.00
C474   C     0.27516   0.05382   0.86825   0.00000  Uiso   1.00
C475   C     0.21974   0.44607   0.80379   0.00000  Uiso   1.00
C476   C     0.22484   0.05382   0.79841   0.00000  Uiso   1.00
Cu477  Cu    0.25000   0.29821   0.83333   0.00000  Uiso   1.00
Cu478  Cu    0.25000   0.20179   0.83333   0.00000  Uiso   1.00
H479   H     0.03180   0.32362   0.85932   0.00000  Uiso   1.00
H480   H     0.19474   0.46329   0.78066   0.00000  Uiso   1.00
H481   H     0.20521   0.03658   0.76961   0.00000  Uiso   1.00
H482   H     0.30526   0.46329   0.88601   0.00000  Uiso   1.00
H483   H     0.47060   0.17773   0.85919   0.00000  Uiso   1.00
H484   H     0.46820   0.32362   0.80736   0.00000  Uiso   1.00
H485   H     0.02940   0.17773   0.80747   0.00000  Uiso   1.00
H486   H     0.11208   0.32357   0.85822   0.00000  Uiso   1.00
H487   H     0.39054   0.17676   0.85679   0.00000  Uiso   1.00
H488   H     0.38792   0.32357   0.80846   0.00000  Uiso   1.00
H489   H     0.10946   0.17677   0.80986   0.00000  Uiso   1.00
H490   H     0.29479   0.03658   0.89705   0.00000  Uiso   1.00
I491   I     0.31980   0.13494   0.92115   0.00000  Uiso   1.00
I492   I     0.17437   0.36447   0.75196   0.00000  Uiso   1.00
I493   I     0.18020   0.13494   0.74551   0.00000  Uiso   1.00
I494   I     0.32563   0.36447   0.91471   0.00000  Uiso   1.00
N495   N     0.25000   0.12935   0.83333   0.00000  Uiso   1.00
N496   N     0.25000   0.37065   0.83333   0.00000  Uiso   1.00
O497   O     0.18573   0.29071   0.83334   0.00000  Uiso   1.00
O498   O     0.31427   0.20929   0.83333   0.00000  Uiso   1.00
O499   O     0.31427   0.29072   0.83333   0.00000  Uiso   1.00
O500   O     0.18573   0.20928   0.83334   0.00000  Uiso   1.00
O501   O     0.25000   0.29071   0.76280   0.00000  Uiso   1.00
O502   O     0.25000   0.20929   0.90387   0.00000  Uiso   1.00
O503   O     0.25000   0.29071   0.90387   0.00000  Uiso   1.00
O504   O     0.25000   0.20929   0.76280   0.00000  Uiso   1.00
C505   C     0.66507   0.25003   0.83348   0.00000  Uiso   1.00
C506   C     0.78027   0.44607   0.86288   0.00000  Uiso   1.00
C507   C     0.74999   0.25000   0.74030   0.00000  Uiso   1.00
C508   C     0.75001   0.25000   0.92637   0.00000  Uiso   1.00
C509   C     0.75000   0.02718   0.83333   0.00000  Uiso   1.00
C510   C     0.75000   0.47271   0.83333   0.00000  Uiso   1.00
C511   C     0.75000   0.25001   0.68854   0.00000  Uiso   1.00
C512   C     0.75000   0.25001   0.97813   0.00000  Uiso   1.00
C513   C     0.54836   0.29167   0.84747   0.00000  Uiso   1.00
C514   C     0.95298   0.20955   0.84720   0.00000  Uiso   1.00
C515   C     0.95164   0.29167   0.81920   0.00000  Uiso   1.00
C516   C     0.83493   0.25003   0.83318   0.00000  Uiso   1.00
C517   C     0.54702   0.20955   0.81946   0.00000  Uiso   1.00
C518   C     0.59425   0.29154   0.84720   0.00000  Uiso   1.00
C519   C     0.90713   0.20912   0.84636   0.00000  Uiso   1.00
C520   C     0.90575   0.29155   0.81946   0.00000  Uiso   1.00
C521   C     0.59287   0.20912   0.82030   0.00000  Uiso   1.00
C522   C     0.61680   0.25020   0.83371   0.00000  Uiso   1.00
C523   C     0.88320   0.25020   0.83295   0.00000  Uiso   1.00
C524   C     0.52430   0.25072   0.83334   0.00000  Uiso   1.00
C525   C     0.97570   0.25072   0.83332   0.00000  Uiso   1.00
C526   C     0.77576   0.10396   0.86726   0.00000  Uiso   1.00
C527   C     0.72065   0.39595   0.80320   0.00000  Uiso   1.00
C528   C     0.72424   0.10396   0.79940   0.00000  Uiso   1.00
C529   C     0.77935   0.39595   0.86347   0.00000  Uiso   1.00
C530   C     0.77516   0.05382   0.86825   0.00000  Uiso   1.00
C531   C     0.71974   0.44607   0.80379   0.00000  Uiso   1.00
C532   C     0.72484   0.05382   0.79841   0.00000  Uiso   1.00
Cu533  Cu    0.75000   0.29821   0.83333   0.00000  Uiso   1.00
Cu534  Cu    0.75000   0.20179   0.83333   0.00000  Uiso   1.00
H535   H     0.53180   0.32362   0.85932   0.00000  Uiso   1.00
H536   H     0.69474   0.46329   0.78066   0.00000  Uiso   1.00
H537   H     0.70521   0.03658   0.76961   0.00000  Uiso   1.00
H538   H     0.80526   0.46329   0.88601   0.00000  Uiso   1.00
H539   H     0.97060   0.17773   0.85919   0.00000  Uiso   1.00
H540   H     0.96820   0.32362   0.80736   0.00000  Uiso   1.00
H541   H     0.52940   0.17773   0.80747   0.00000  Uiso   1.00
H542   H     0.61208   0.32357   0.85822   0.00000  Uiso   1.00
H543   H     0.89054   0.17676   0.85679   0.00000  Uiso   1.00
H544   H     0.88792   0.32357   0.80846   0.00000  Uiso   1.00
H545   H     0.60946   0.17677   0.80986   0.00000  Uiso   1.00
H546   H     0.79479   0.03658   0.89705   0.00000  Uiso   1.00
I547   I     0.81980   0.13494   0.92115   0.00000  Uiso   1.00
I548   I     0.67437   0.36447   0.75196   0.00000  Uiso   1.00
I549   I     0.68020   0.13494   0.74551   0.00000  Uiso   1.00
I550   I     0.82563   0.36447   0.91471   0.00000  Uiso   1.00
N551   N     0.75000   0.12935   0.83333   0.00000  Uiso   1.00
N552   N     0.75000   0.37065   0.83333   0.00000  Uiso   1.00
O553   O     0.68573   0.29071   0.83334   0.00000  Uiso   1.00
O554   O     0.81427   0.20929   0.83333   0.00000  Uiso   1.00
O555   O     0.81427   0.29072   0.83333   0.00000  Uiso   1.00
O556   O     0.68573   0.20928   0.83334   0.00000  Uiso   1.00
O557   O     0.75000   0.29071   0.76280   0.00000  Uiso   1.00
O558   O     0.75000   0.20929   0.90387   0.00000  Uiso   1.00
O559   O     0.75000   0.29071   0.90387   0.00000  Uiso   1.00
O560   O     0.75000   0.20929   0.76280   0.00000  Uiso   1.00
C561   C     0.16507   0.75003   0.83348   0.00000  Uiso   1.00
C562   C     0.28027   0.94607   0.86288   0.00000  Uiso   1.00
C563   C     0.24999   0.75000   0.74030   0.00000  Uiso   1.00
C564   C     0.25001   0.75000   0.92637   0.00000  Uiso   1.00
C565   C     0.25000   0.52718   0.83333   0.00000  Uiso   1.00
C566   C     0.25000   0.97271   0.83333   0.00000  Uiso   1.00
C567   C     0.25000   0.75001   0.68854   0.00000  Uiso   1.00
C568   C     0.25000   0.75001   0.97813   0.00000  Uiso   1.00
C569   C     0.04836   0.79167   0.84747   0.00000  Uiso   1.00
C570   C     0.45298   0.70955   0.84720   0.00000  Uiso   1.00
C571   C     0.45164   0.79167   0.81920   0.00000  Uiso   1.00
C572   C     0.33493   0.75003   0.83318   0.00000  Uiso   1.00
C573   C     0.04702   0.70955   0.81946   0.00000  Uiso   1.00
C574   C     0.09425   0.79154   0.84720   0.00000  Uiso   1.00
C575   C     0.40713   0.70912   0.84636   0.00000  Uiso   1.00
C576   C     0.40575   0.79155   0.81946   0.00000  Uiso   1.00
C577   C     0.09287   0.70912   0.82030   0.00000  Uiso   1.00
C578   C     0.11680   0.75020   0.83371   0.00000  Uiso   1.00
C579   C     0.38320   0.75020   0.83295   0.00000  Uiso   1.00
C580   C     0.02430   0.75072   0.83334   0.00000  Uiso   1.00
C581   C     0.47570   0.75072   0.83332   0.00000  Uiso   1.00
C582   C     0.27576   0.60396   0.86726   0.00000  Uiso   1.00
C583   C     0.22065   0.89595   0.80320   0.00000  Uiso   1.00
C584   C     0.22424   0.60396   0.79940   0.00000  Uiso   1.00
C585   C     0.27935   0.89595   0.86347   0.00000  Uiso   1.00
C586   C     0.27516   0.55382   0.86825   0.00000  Uiso   1.00
C587   C     0.21974   0.94607   0.80379   0.00000  Uiso   1.00
C588   C     0.22484   0.55382   0.79841   0.00000  Uiso   1.00
Cu589  Cu    0.25000   0.79821   0.83333   0.00000  Uiso   1.00
Cu590  Cu    0.25000   0.70179   0.83333   0.00000  Uiso   1.00
H591   H     0.03180   0.82362   0.85932   0.00000  Uiso   1.00
H592   H     0.19474   0.96329   0.78066   0.00000  Uiso   1.00
H593   H     0.20521   0.53658   0.76961   0.00000  Uiso   1.00
H594   H     0.30526   0.96329   0.88601   0.00000  Uiso   1.00
H595   H     0.47060   0.67773   0.85919   0.00000  Uiso   1.00
H596   H     0.46820   0.82362   0.80736   0.00000  Uiso   1.00
H597   H     0.02940   0.67773   0.80747   0.00000  Uiso   1.00
H598   H     0.11208   0.82357   0.85822   0.00000  Uiso   1.00
H599   H     0.39054   0.67676   0.85679   0.00000  Uiso   1.00
H600   H     0.38792   0.82357   0.80846   0.00000  Uiso   1.00
H601   H     0.10946   0.67677   0.80986   0.00000  Uiso   1.00
H602   H     0.29479   0.53658   0.89705   0.00000  Uiso   1.00
I603   I     0.31980   0.63494   0.92115   0.00000  Uiso   1.00
I604   I     0.17437   0.86447   0.75196   0.00000  Uiso   1.00
I605   I     0.18020   0.63494   0.74551   0.00000  Uiso   1.00
I606   I     0.32563   0.86447   0.91471   0.00000  Uiso   1.00
N607   N     0.25000   0.62935   0.83333   0.00000  Uiso   1.00
N608   N     0.25000   0.87065   0.83333   0.00000  Uiso   1.00
O609   O     0.18573   0.79071   0.83334   0.00000  Uiso   1.00
O610   O     0.31427   0.70929   0.83333   0.00000  Uiso   1.00
O611   O     0.31427   0.79072   0.83333   0.00000  Uiso   1.00
O612   O     0.18573   0.70928   0.83334   0.00000  Uiso   1.00
O613   O     0.25000   0.79071   0.76280   0.00000  Uiso   1.00
O614   O     0.25000   0.70929   0.90387   0.00000  Uiso   1.00
O615   O     0.25000   0.79071   0.90387   0.00000  Uiso   1.00
O616   O     0.25000   0.70929   0.76280   0.00000  Uiso   1.00
C617   C     0.66507   0.75003   0.83348   0.00000  Uiso   1.00
C618   C     0.78027   0.94607   0.86288   0.00000  Uiso   1.00
C619   C     0.74999   0.75000   0.74030   0.00000  Uiso   1.00
C620   C     0.75001   0.75000   0.92637   0.00000  Uiso   1.00
C621   C     0.75000   0.52718   0.83333   0.00000  Uiso   1.00
C622   C     0.75000   0.97271   0.83333   0.00000  Uiso   1.00
C623   C     0.75000   0.75001   0.68854   0.00000  Uiso   1.00
C624   C     0.75000   0.75001   0.97813   0.00000  Uiso   1.00
C625   C     0.54836   0.79167   0.84747   0.00000  Uiso   1.00
C626   C     0.95298   0.70955   0.84720   0.00000  Uiso   1.00
C627   C     0.95164   0.79167   0.81920   0.00000  Uiso   1.00
C628   C     0.83493   0.75003   0.83318   0.00000  Uiso   1.00
C629   C     0.54702   0.70955   0.81946   0.00000  Uiso   1.00
C630   C     0.59425   0.79154   0.84720   0.00000  Uiso   1.00
C631   C     0.90713   0.70912   0.84636   0.00000  Uiso   1.00
C632   C     0.90575   0.79155   0.81946   0.00000  Uiso   1.00
C633   C     0.59287   0.70912   0.82030   0.00000  Uiso   1.00
C634   C     0.61680   0.75020   0.83371   0.00000  Uiso   1.00
C635   C     0.88320   0.75020   0.83295   0.00000  Uiso   1.00
C636   C     0.52430   0.75072   0.83334   0.00000  Uiso   1.00
C637   C     0.97570   0.75072   0.83332   0.00000  Uiso   1.00
C638   C     0.77576   0.60396   0.86726   0.00000  Uiso   1.00
C639   C     0.72065   0.89595   0.80320   0.00000  Uiso   1.00
C640   C     0.72424   0.60396   0.79940   0.00000  Uiso   1.00
C641   C     0.77935   0.89595   0.86347   0.00000  Uiso   1.00
C642   C     0.77516   0.55382   0.86825   0.00000  Uiso   1.00
C643   C     0.71974   0.94607   0.80379   0.00000  Uiso   1.00
C644   C     0.72484   0.55382   0.79841   0.00000  Uiso   1.00
Cu645  Cu    0.75000   0.79821   0.83333   0.00000  Uiso   1.00
Cu646  Cu    0.75000   0.70179   0.83333   0.00000  Uiso   1.00
H647   H     0.53180   0.82362   0.85932   0.00000  Uiso   1.00
H648   H     0.69474   0.96329   0.78066   0.00000  Uiso   1.00
H649   H     0.70521   0.53658   0.76961   0.00000  Uiso   1.00
H650   H     0.80526   0.96329   0.88601   0.00000  Uiso   1.00
H651   H     0.97060   0.67773   0.85919   0.00000  Uiso   1.00
H652   H     0.96820   0.82362   0.80736   0.00000  Uiso   1.00
H653   H     0.52940   0.67773   0.80747   0.00000  Uiso   1.00
H654   H     0.61208   0.82357   0.85822   0.00000  Uiso   1.00
H655   H     0.89054   0.67676   0.85679   0.00000  Uiso   1.00
H656   H     0.88792   0.82357   0.80846   0.00000  Uiso   1.00
H657   H     0.60946   0.67677   0.80986   0.00000  Uiso   1.00
H658   H     0.79479   0.53658   0.89705   0.00000  Uiso   1.00
I659   I     0.81980   0.63494   0.92115   0.00000  Uiso   1.00
I660   I     0.67437   0.86447   0.75196   0.00000  Uiso   1.00
I661   I     0.68020   0.63494   0.74551   0.00000  Uiso   1.00
I662   I     0.82563   0.86447   0.91471   0.00000  Uiso   1.00
N663   N     0.75000   0.62935   0.83333   0.00000  Uiso   1.00
N664   N     0.75000   0.87065   0.83333   0.00000  Uiso   1.00
O665   O     0.68573   0.79071   0.83334   0.00000  Uiso   1.00
O666   O     0.81427   0.70929   0.83333   0.00000  Uiso   1.00
O667   O     0.81427   0.79072   0.83333   0.00000  Uiso   1.00
O668   O     0.68573   0.70928   0.83334   0.00000  Uiso   1.00
O669   O     0.75000   0.79071   0.76280   0.00000  Uiso   1.00
O670   O     0.75000   0.70929   0.90387   0.00000  Uiso   1.00
O671   O     0.75000   0.79071   0.90387   0.00000  Uiso   1.00
O672   O     0.75000   0.70929   0.76280   0.00000  Uiso   1.00
loop_
_geom_bond_atom_site_label_1
_geom_bond_atom_site_label_2
_geom_bond_distance
_geom_bond_site_symmetry_2
_ccdc_geom_bond_type
C1     C18     1.462   .     S
C1     O52     1.303   .     A
C1     O49     1.302   .     A
C2     H34     1.077   .     S
C2     C6      1.407   .     A
C2     C25     1.406   .     A
C3     O53     1.295   .     A
C3     O56     1.295   .     A
C3     C7      1.407   .     S
C4     C8      1.407   .     S
C4     O55     1.295   .     A
C4     O54     1.295   .     A
C5     C28     1.406   .     A
C5     C26     1.406   .     A
C5     C118    1.527   1_545 S
C6     C27     1.407   .     A
C6     C117    1.527   .     S
C7     C456    1.189   1_554 S
C8     C231    1.189   .     S
C9     C14     1.391   .     A
C9     C20     1.404   .     A
C9     H31     1.083   .     S
C10    H35     1.083   .     S
C10    C15     1.389   .     A
C10    C21     1.404   .     A
C11    H36     1.083   .     S
C11    C16     1.391   .     A
C11    C21     1.404   .     A
C12    O50     1.303   .     A
C12    C19     1.462   .     S
C12    O51     1.302   .     A
C13    H37     1.083   .     S
C13    C17     1.388   .     A
C13    C20     1.404   .     A
C14    H38     1.083   .     S
C14    C18     1.402   .     A
C15    C19     1.401   .     A
C15    H39     1.081   .     S
C16    H40     1.083   .     S
C16    C19     1.403   .     A
C17    C18     1.401   .     A
C17    H41     1.081   .     S
C20    C77     1.472   1_455 S
C21    C76     1.472   .     S
C22    I43     2.124   .     S
C22    N47     1.380   .     A
C22    C26     1.406   .     A
C23    C27     1.406   .     A
C23    N48     1.379   .     A
C23    I44     2.125   .     S
C24    I45     2.124   .     S
C24    C28     1.406   .     A
C24    N47     1.380   .     A
C25    N48     1.379   .     A
C25    I46     2.125   .     S
C26    H42     1.077   .     S
C27    H32     1.077   .     S
C28    H33     1.077   .     S
Cu29   Cu30    2.704   .     S
Cu29   O49     1.958   .     S
Cu29   O53     1.929   .     S
Cu29   N48     2.031   .     S
Cu29   O51     1.958   .     S
Cu29   O55     1.929   .     S
Cu30   O50     1.958   .     S
Cu30   O54     1.929   .     S
Cu30   N47     2.031   .     S
Cu30   O52     1.958   .     S
Cu30   O56     1.929   .     S
C57    C74     1.462   .     S
C57    O108    1.303   .     A
C57    O105    1.302   .     A
C58    H90     1.077   .     S
C58    C62     1.407   .     A
C58    C81     1.406   .     A
C59    O109    1.295   .     A
C59    O112    1.295   .     A
C59    C63     1.407   .     S
C60    C64     1.407   .     S
C60    O111    1.295   .     A
C60    O110    1.295   .     A
C61    C84     1.406   .     A
C61    C82     1.406   .     A
C61    C174    1.527   1_545 S
C62    C83     1.407   .     A
C62    C173    1.527   .     S
C63    C512    1.189   1_554 S
C64    C287    1.189   .     S
C65    C70     1.391   .     A
C65    C76     1.404   .     A
C65    H87     1.083   .     S
C66    H91     1.083   .     S
C66    C71     1.389   .     A
C66    C77     1.404   .     A
C67    H92     1.083   .     S
C67    C72     1.391   .     A
C67    C77     1.404   .     A
C68    O106    1.303   .     A
C68    C75     1.462   .     S
C68    O107    1.302   .     A
C69    H93     1.083   .     S
C69    C73     1.388   .     A
C69    C76     1.404   .     A
C70    H94     1.083   .     S
C70    C74     1.402   .     A
C71    C75     1.401   .     A
C71    H95     1.081   .     S
C72    H96     1.083   .     S
C72    C75     1.403   .     A
C73    C74     1.401   .     A
C73    H97     1.081   .     S
C77    C20     1.472   1_655 S
C78    I99     2.124   .     S
C78    N103    1.380   .     A
C78    C82     1.406   .     A
C79    C83     1.406   .     A
C79    N104    1.379   .     A
C79    I100    2.125   .     S
C80    I101    2.124   .     S
C80    C84     1.406   .     A
C80    N103    1.380   .     A
C81    N104    1.379   .     A
C81    I102    2.125   .     S
C82    H98     1.077   .     S
C83    H88     1.077   .     S
C84    H89     1.077   .     S
Cu85   Cu86    2.704   .     S
Cu85   O105    1.958   .     S
Cu85   O109    1.929   .     S
Cu85   N104    2.031   .     S
Cu85   O107    1.958   .     S
Cu85   O111    1.929   .     S
Cu86   O106    1.958   .     S
Cu86   O110    1.929   .     S
Cu86   N103    2.031   .     S
Cu86   O108    1.958   .     S
Cu86   O112    1.929   .     S
C113   C130    1.462   .     S
C113   O164    1.303   .     A
C113   O161    1.302   .     A
C114   H146    1.077   .     S
C114   C118    1.407   .     A
C114   C137    1.406   .     A
C115   O165    1.295   .     A
C115   O168    1.295   .     A
C115   C119    1.407   .     S
C116   C120    1.407   .     S
C116   O167    1.295   .     A
C116   O166    1.295   .     A
C117   C140    1.406   .     A
C117   C138    1.406   .     A
C118   C139    1.407   .     A
C118   C5      1.527   1_565 S
C119   C568    1.189   1_554 S
C120   C343    1.189   .     S
C121   C126    1.391   .     A
C121   C132    1.404   .     A
C121   H143    1.083   .     S
C122   H147    1.083   .     S
C122   C127    1.389   .     A
C122   C133    1.404   .     A
C123   H148    1.083   .     S
C123   C128    1.391   .     A
C123   C133    1.404   .     A
C124   O162    1.303   .     A
C124   C131    1.462   .     S
C124   O163    1.302   .     A
C125   H149    1.083   .     S
C125   C129    1.388   .     A
C125   C132    1.404   .     A
C126   H150    1.083   .     S
C126   C130    1.402   .     A
C127   C131    1.401   .     A
C127   H151    1.081   .     S
C128   H152    1.083   .     S
C128   C131    1.403   .     A
C129   C130    1.401   .     A
C129   H153    1.081   .     S
C132   C189    1.472   1_455 S
C133   C188    1.472   .     S
C134   I155    2.124   .     S
C134   N159    1.380   .     A
C134   C138    1.406   .     A
C135   C139    1.406   .     A
C135   N160    1.379   .     A
C135   I156    2.125   .     S
C136   I157    2.124   .     S
C136   C140    1.406   .     A
C136   N159    1.380   .     A
C137   N160    1.379   .     A
C137   I158    2.125   .     S
C138   H154    1.077   .     S
C139   H144    1.077   .     S
C140   H145    1.077   .     S
Cu141  Cu142   2.704   .     S
Cu141  O161    1.958   .     S
Cu141  O165    1.929   .     S
Cu141  N160    2.031   .     S
Cu141  O163    1.958   .     S
Cu141  O167    1.929   .     S
Cu142  O162    1.958   .     S
Cu142  O166    1.929   .     S
Cu142  N159    2.031   .     S
Cu142  O164    1.958   .     S
Cu142  O168    1.929   .     S
C169   C186    1.462   .     S
C169   O220    1.303   .     A
C169   O217    1.302   .     A
C170   H202    1.077   .     S
C170   C174    1.407   .     A
C170   C193    1.406   .     A
C171   O221    1.295   .     A
C171   O224    1.295   .     A
C171   C175    1.407   .     S
C172   C176    1.407   .     S
C172   O223    1.295   .     A
C172   O222    1.295   .     A
C173   C196    1.406   .     A
C173   C194    1.406   .     A
C174   C195    1.407   .     A
C174   C61     1.527   1_565 S
C175   C624    1.189   1_554 S
C176   C399    1.189   .     S
C177   C182    1.391   .     A
C177   C188    1.404   .     A
C177   H199    1.083   .     S
C178   H203    1.083   .     S
C178   C183    1.389   .     A
C178   C189    1.404   .     A
C179   H204    1.083   .     S
C179   C184    1.391   .     A
C179   C189    1.404   .     A
C180   O218    1.303   .     A
C180   C187    1.462   .     S
C180   O219    1.302   .     A
C181   H205    1.083   .     S
C181   C185    1.388   .     A
C181   C188    1.404   .     A
C182   H206    1.083   .     S
C182   C186    1.402   .     A
C183   C187    1.401   .     A
C183   H207    1.081   .     S
C184   H208    1.083   .     S
C184   C187    1.403   .     A
C185   C186    1.401   .     A
C185   H209    1.081   .     S
C189   C132    1.472   1_655 S
C190   I211    2.124   .     S
C190   N215    1.380   .     A
C190   C194    1.406   .     A
C191   C195    1.406   .     A
C191   N216    1.379   .     A
C191   I212    2.125   .     S
C192   I213    2.124   .     S
C192   C196    1.406   .     A
C192   N215    1.380   .     A
C193   N216    1.379   .     A
C193   I214    2.125   .     S
C194   H210    1.077   .     S
C195   H200    1.077   .     S
C196   H201    1.077   .     S
Cu197  Cu198   2.704   .     S
Cu197  O217    1.958   .     S
Cu197  O221    1.929   .     S
Cu197  N216    2.031   .     S
Cu197  O219    1.958   .     S
Cu197  O223    1.929   .     S
Cu198  O218    1.958   .     S
Cu198  O222    1.929   .     S
Cu198  N215    2.031   .     S
Cu198  O220    1.958   .     S
Cu198  O224    1.929   .     S
C225   C242    1.462   .     S
C225   O276    1.303   .     A
C225   O273    1.302   .     A
C226   H258    1.077   .     S
C226   C230    1.407   .     A
C226   C249    1.406   .     A
C227   O277    1.295   .     A
C227   O280    1.295   .     A
C227   C231    1.407   .     S
C228   C232    1.407   .     S
C228   O279    1.295   .     A
C228   O278    1.295   .     A
C229   C252    1.406   .     A
C229   C250    1.406   .     A
C229   C342    1.527   1_545 S
C230   C251    1.407   .     A
C230   C341    1.527   .     S
C232   C455    1.189   .     S
C233   C238    1.391   .     A
C233   C244    1.404   .     A
C233   H255    1.083   .     S
C234   H259    1.083   .     S
C234   C239    1.389   .     A
C234   C245    1.404   .     A
C235   H260    1.083   .     S
C235   C240    1.391   .     A
C235   C245    1.404   .     A
C236   O274    1.303   .     A
C236   C243    1.462   .     S
C236   O275    1.302   .     A
C237   H261    1.083   .     S
C237   C241    1.388   .     A
C237   C244    1.404   .     A
C238   H262    1.083   .     S
C238   C242    1.402   .     A
C239   C243    1.401   .     A
C239   H263    1.081   .     S
C240   H264    1.083   .     S
C240   C243    1.403   .     A
C241   C242    1.401   .     A
C241   H265    1.081   .     S
C244   C301    1.472   1_455 S
C245   C300    1.472   .     S
C246   I267    2.124   .     S
C246   N271    1.380   .     A
C246   C250    1.406   .     A
C247   C251    1.406   .     A
C247   N272    1.379   .     A
C247   I268    2.125   .     S
C248   I269    2.124   .     S
C248   C252    1.406   .     A
C248   N271    1.380   .     A
C249   N272    1.379   .     A
C249   I270    2.125   .     S
C250   H266    1.077   .     S
C251   H256    1.077   .     S
C252   H257    1.077   .     S
Cu253  Cu254   2.704   .     S
Cu253  O273    1.958   .     S
Cu253  O277    1.929   .     S
Cu253  N272    2.031   .     S
Cu253  O275    1.958   .     S
Cu253  O279    1.929   .     S
Cu254  O274    1.958   .     S
Cu254  O278    1.929   .     S
Cu254  N271    2.031   .     S
Cu254  O276    1.958   .     S
Cu254  O280    1.929   .     S
C281   C298    1.462   .     S
C281   O332    1.303   .     A
C281   O329    1.302   .     A
C282   H314    1.077   .     S
C282   C286    1.407   .     A
C282   C305    1.406   .     A
C283   O333    1.295   .     A
C283   O336    1.295   .     A
C283   C287    1.407   .     S
C284   C288    1.407   .     S
C284   O335    1.295   .     A
C284   O334    1.295   .     A
C285   C308    1.406   .     A
C285   C306    1.406   .     A
C285   C398    1.527   1_545 S
C286   C307    1.407   .     A
C286   C397    1.527   .     S
C288   C511    1.189   .     S
C289   C294    1.391   .     A
C289   C300    1.404   .     A
C289   H311    1.083   .     S
C290   H315    1.083   .     S
C290   C295    1.389   .     A
C290   C301    1.404   .     A
C291   H316    1.083   .     S
C291   C296    1.391   .     A
C291   C301    1.404   .     A
C292   O330    1.303   .     A
C292   C299    1.462   .     S
C292   O331    1.302   .     A
C293   H317    1.083   .     S
C293   C297    1.388   .     A
C293   C300    1.404   .     A
C294   H318    1.083   .     S
C294   C298    1.402   .     A
C295   C299    1.401   .     A
C295   H319    1.081   .     S
C296   H320    1.083   .     S
C296   C299    1.403   .     A
C297   C298    1.401   .     A
C297   H321    1.081   .     S
C301   C244    1.472   1_655 S
C302   I323    2.124   .     S
C302   N327    1.380   .     A
C302   C306    1.406   .     A
C303   C307    1.406   .     A
C303   N328    1.379   .     A
C303   I324    2.125   .     S
C304   I325    2.124   .     S
C304   C308    1.406   .     A
C304   N327    1.380   .     A
C305   N328    1.379   .     A
C305   I326    2.125   .     S
C306   H322    1.077   .     S
C307   H312    1.077   .     S
C308   H313    1.077   .     S
Cu309  Cu310   2.704   .     S
Cu309  O329    1.958   .     S
Cu309  O333    1.929   .     S
Cu309  N328    2.031   .     S
Cu309  O331    1.958   .     S
Cu309  O335    1.929   .     S
Cu310  O330    1.958   .     S
Cu310  O334    1.929   .     S
Cu310  N327    2.031   .     S
Cu310  O332    1.958   .     S
Cu310  O336    1.929   .     S
C337   C354    1.462   .     S
C337   O388    1.303   .     A
C337   O385    1.302   .     A
C338   H370    1.077   .     S
C338   C342    1.407   .     A
C338   C361    1.406   .     A
C339   O389    1.295   .     A
C339   O392    1.295   .     A
C339   C343    1.407   .     S
C340   C344    1.407   .     S
C340   O391    1.295   .     A
C340   O390    1.295   .     A
C341   C364    1.406   .     A
C341   C362    1.406   .     A
C342   C363    1.407   .     A
C342   C229    1.527   1_565 S
C344   C567    1.189   .     S
C345   C350    1.391   .     A
C345   C356    1.404   .     A
C345   H367    1.083   .     S
C346   H371    1.083   .     S
C346   C351    1.389   .     A
C346   C357    1.404   .     A
C347   H372    1.083   .     S
C347   C352    1.391   .     A
C347   C357    1.404   .     A
C348   O386    1.303   .     A
C348   C355    1.462   .     S
C348   O387    1.302   .     A
C349   H373    1.083   .     S
C349   C353    1.388   .     A
C349   C356    1.404   .     A
C350   H374    1.083   .     S
C350   C354    1.402   .     A
C351   C355    1.401   .     A
C351   H375    1.081   .     S
C352   H376    1.083   .     S
C352   C355    1.403   .     A
C353   C354    1.401   .     A
C353   H377    1.081   .     S
C356   C413    1.472   1_455 S
C357   C412    1.472   .     S
C358   I379    2.124   .     S
C358   N383    1.380   .     A
C358   C362    1.406   .     A
C359   C363    1.406   .     A
C359   N384    1.379   .     A
C359   I380    2.125   .     S
C360   I381    2.124   .     S
C360   C364    1.406   .     A
C360   N383    1.380   .     A
C361   N384    1.379   .     A
C361   I382    2.125   .     S
C362   H378    1.077   .     S
C363   H368    1.077   .     S
C364   H369    1.077   .     S
Cu365  Cu366   2.704   .     S
Cu365  O385    1.958   .     S
Cu365  O389    1.929   .     S
Cu365  N384    2.031   .     S
Cu365  O387    1.958   .     S
Cu365  O391    1.929   .     S
Cu366  O386    1.958   .     S
Cu366  O390    1.929   .     S
Cu366  N383    2.031   .     S
Cu366  O388    1.958   .     S
Cu366  O392    1.929   .     S
C393   C410    1.462   .     S
C393   O444    1.303   .     A
C393   O441    1.302   .     A
C394   H426    1.077   .     S
C394   C398    1.407   .     A
C394   C417    1.406   .     A
C395   O445    1.295   .     A
C395   O448    1.295   .     A
C395   C399    1.407   .     S
C396   C400    1.407   .     S
C396   O447    1.295   .     A
C396   O446    1.295   .     A
C397   C420    1.406   .     A
C397   C418    1.406   .     A
C398   C419    1.407   .     A
C398   C285    1.527   1_565 S
C400   C623    1.189   .     S
C401   C406    1.391   .     A
C401   C412    1.404   .     A
C401   H423    1.083   .     S
C402   H427    1.083   .     S
C402   C407    1.389   .     A
C402   C413    1.404   .     A
C403   H428    1.083   .     S
C403   C408    1.391   .     A
C403   C413    1.404   .     A
C404   O442    1.303   .     A
C404   C411    1.462   .     S
C404   O443    1.302   .     A
C405   H429    1.083   .     S
C405   C409    1.388   .     A
C405   C412    1.404   .     A
C406   H430    1.083   .     S
C406   C410    1.402   .     A
C407   C411    1.401   .     A
C407   H431    1.081   .     S
C408   H432    1.083   .     S
C408   C411    1.403   .     A
C409   C410    1.401   .     A
C409   H433    1.081   .     S
C413   C356    1.472   1_655 S
C414   I435    2.124   .     S
C414   N439    1.380   .     A
C414   C418    1.406   .     A
C415   C419    1.406   .     A
C415   N440    1.379   .     A
C415   I436    2.125   .     S
C416   I437    2.124   .     S
C416   C420    1.406   .     A
C416   N439    1.380   .     A
C417   N440    1.379   .     A
C417   I438    2.125   .     S
C418   H434    1.077   .     S
C419   H424    1.077   .     S
C420   H425    1.077   .     S
Cu421  Cu422   2.704   .     S
Cu421  O441    1.958   .     S
Cu421  O445    1.929   .     S
Cu421  N440    2.031   .     S
Cu421  O443    1.958   .     S
Cu421  O447    1.929   .     S
Cu422  O442    1.958   .     S
Cu422  O446    1.929   .     S
Cu422  N439    2.031   .     S
Cu422  O444    1.958   .     S
Cu422  O448    1.929   .     S
C449   C466    1.462   .     S
C449   O500    1.303   .     A
C449   O497    1.302   .     A
C450   H482    1.077   .     S
C450   C454    1.407   .     A
C450   C473    1.406   .     A
C451   O501    1.295   .     A
C451   O504    1.295   .     A
C451   C455    1.407   .     S
C452   C456    1.407   .     S
C452   O503    1.295   .     A
C452   O502    1.295   .     A
C453   C476    1.406   .     A
C453   C474    1.406   .     A
C453   C566    1.527   1_545 S
C454   C475    1.407   .     A
C454   C565    1.527   .     S
C456   C7      1.189   1_556 S
C457   C462    1.391   .     A
C457   C468    1.404   .     A
C457   H479    1.083   .     S
C458   H483    1.083   .     S
C458   C463    1.389   .     A
C458   C469    1.404   .     A
C459   H484    1.083   .     S
C459   C464    1.391   .     A
C459   C469    1.404   .     A
C460   O498    1.303   .     A
C460   C467    1.462   .     S
C460   O499    1.302   .     A
C461   H485    1.083   .     S
C461   C465    1.388   .     A
C461   C468    1.404   .     A
C462   H486    1.083   .     S
C462   C466    1.402   .     A
C463   C467    1.401   .     A
C463   H487    1.081   .     S
C464   H488    1.083   .     S
C464   C467    1.403   .     A
C465   C466    1.401   .     A
C465   H489    1.081   .     S
C468   C525    1.472   1_455 S
C469   C524    1.472   .     S
C470   I491    2.124   .     S
C470   N495    1.380   .     A
C470   C474    1.406   .     A
C471   C475    1.406   .     A
C471   N496    1.379   .     A
C471   I492    2.125   .     S
C472   I493    2.124   .     S
C472   C476    1.406   .     A
C472   N495    1.380   .     A
C473   N496    1.379   .     A
C473   I494    2.125   .     S
C474   H490    1.077   .     S
C475   H480    1.077   .     S
C476   H481    1.077   .     S
Cu477  Cu478   2.704   .     S
Cu477  O497    1.958   .     S
Cu477  O501    1.929   .     S
Cu477  N496    2.031   .     S
Cu477  O499    1.958   .     S
Cu477  O503    1.929   .     S
Cu478  O498    1.958   .     S
Cu478  O502    1.929   .     S
Cu478  N495    2.031   .     S
Cu478  O500    1.958   .     S
Cu478  O504    1.929   .     S
C505   C522    1.462   .     S
C505   O556    1.303   .     A
C505   O553    1.302   .     A
C506   H538    1.077   .     S
C506   C510    1.407   .     A
C506   C529    1.406   .     A
C507   O557    1.295   .     A
C507   O560    1.295   .     A
C507   C511    1.407   .     S
C508   C512    1.407   .     S
C508   O559    1.295   .     A
C508   O558    1.295   .     A
C509   C532    1.406   .     A
C509   C530    1.406   .     A
C509   C622    1.527   1_545 S
C510   C531    1.407   .     A
C510   C621    1.527   .     S
C512   C63     1.189   1_556 S
C513   C518    1.391   .     A
C513   C524    1.404   .     A
C513   H535    1.083   .     S
C514   H539    1.083   .     S
C514   C519    1.389   .     A
C514   C525    1.404   .     A
C515   H540    1.083   .     S
C515   C520    1.391   .     A
C515   C525    1.404   .     A
C516   O554    1.303   .     A
C516   C523    1.462   .     S
C516   O555    1.302   .     A
C517   H541    1.083   .     S
C517   C521    1.388   .     A
C517   C524    1.404   .     A
C518   H542    1.083   .     S
C518   C522    1.402   .     A
C519   C523    1.401   .     A
C519   H543    1.081   .     S
C520   H544    1.083   .     S
C520   C523    1.403   .     A
C521   C522    1.401   .     A
C521   H545    1.081   .     S
C525   C468    1.472   1_655 S
C526   I547    2.124   .     S
C526   N551    1.380   .     A
C526   C530    1.406   .     A
C527   C531    1.406   .     A
C527   N552    1.379   .     A
C527   I548    2.125   .     S
C528   I549    2.124   .     S
C528   C532    1.406   .     A
C528   N551    1.380   .     A
C529   N552    1.379   .     A
C529   I550    2.125   .     S
C530   H546    1.077   .     S
C531   H536    1.077   .     S
C532   H537    1.077   .     S
Cu533  Cu534   2.704   .     S
Cu533  O553    1.958   .     S
Cu533  O557    1.929   .     S
Cu533  N552    2.031   .     S
Cu533  O555    1.958   .     S
Cu533  O559    1.929   .     S
Cu534  O554    1.958   .     S
Cu534  O558    1.929   .     S
Cu534  N551    2.031   .     S
Cu534  O556    1.958   .     S
Cu534  O560    1.929   .     S
C561   C578    1.462   .     S
C561   O612    1.303   .     A
C561   O609    1.302   .     A
C562   H594    1.077   .     S
C562   C566    1.407   .     A
C562   C585    1.406   .     A
C563   O613    1.295   .     A
C563   O616    1.295   .     A
C563   C567    1.407   .     S
C564   C568    1.407   .     S
C564   O615    1.295   .     A
C564   O614    1.295   .     A
C565   C588    1.406   .     A
C565   C586    1.406   .     A
C566   C587    1.407   .     A
C566   C453    1.527   1_565 S
C568   C119    1.189   1_556 S
C569   C574    1.391   .     A
C569   C580    1.404   .     A
C569   H591    1.083   .     S
C570   H595    1.083   .     S
C570   C575    1.389   .     A
C570   C581    1.404   .     A
C571   H596    1.083   .     S
C571   C576    1.391   .     A
C571   C581    1.404   .     A
C572   O610    1.303   .     A
C572   C579    1.462   .     S
C572   O611    1.302   .     A
C573   H597    1.083   .     S
C573   C577    1.388   .     A
C573   C580    1.404   .     A
C574   H598    1.083   .     S
C574   C578    1.402   .     A
C575   C579    1.401   .     A
C575   H599    1.081   .     S
C576   H600    1.083   .     S
C576   C579    1.403   .     A
C577   C578    1.401   .     A
C577   H601    1.081   .     S
C580   C637    1.472   1_455 S
C581   C636    1.472   .     S
C582   I603    2.124   .     S
C582   N607    1.380   .     A
C582   C586    1.406   .     A
C583   C587    1.406   .     A
C583   N608    1.379   .     A
C583   I604    2.125   .     S
C584   I605    2.124   .     S
C584   C588    1.406   .     A
C584   N607    1.380   .     A
C585   N608    1.379   .     A
C585   I606    2.125   .     S
C586   H602    1.077   .     S
C587   H592    1.077   .     S
C588   H593    1.077   .     S
Cu589  Cu590   2.704   .     S
Cu589  O609    1.958   .     S
Cu589  O613    1.929   .     S
Cu589  N608    2.031   .     S
Cu589  O611    1.958   .     S
Cu589  O615    1.929   .     S
Cu590  O610    1.958   .     S
Cu590  O614    1.929   .     S
Cu590  N607    2.031   .     S
Cu590  O612    1.958   .     S
Cu590  O616    1.929   .     S
C617   C634    1.462   .     S
C617   O668    1.303   .     A
C617   O665    1.302   .     A
C618   H650    1.077   .     S
C618   C622    1.407   .     A
C618   C641    1.406   .     A
C619   O669    1.295   .     A
C619   O672    1.295   .     A
C619   C623    1.407   .     S
C620   C624    1.407   .     S
C620   O671    1.295   .     A
C620   O670    1.295   .     A
C621   C644    1.406   .     A
C621   C642    1.406   .     A
C622   C643    1.407   .     A
C622   C509    1.527   1_565 S
C624   C175    1.189   1_556 S
C625   C630    1.391   .     A
C625   C636    1.404   .     A
C625   H647    1.083   .     S
C626   H651    1.083   .     S
C626   C631    1.389   .     A
C626   C637    1.404   .     A
C627   H652    1.083   .     S
C627   C632    1.391   .     A
C627   C637    1.404   .     A
C628   O666    1.303   .     A
C628   C635    1.462   .     S
C628   O667    1.302   .     A
C629   H653    1.083   .     S
C629   C633    1.388   .     A
C629   C636    1.404   .     A
C630   H654    1.083   .     S
C630   C634    1.402   .     A
C631   C635    1.401   .     A
C631   H655    1.081   .     S
C632   H656    1.083   .     S
C632   C635    1.403   .     A
C633   C634    1.401   .     A
C633   H657    1.081   .     S
C637   C580    1.472   1_655 S
C638   I659    2.124   .     S
C638   N663    1.380   .     A
C638   C642    1.406   .     A
C639   C643    1.406   .     A
C639   N664    1.379   .     A
C639   I660    2.125   .     S
C640   I661    2.124   .     S
C640   C644    1.406   .     A
C640   N663    1.380   .     A
C641   N664    1.379   .     A
C641   I662    2.125   .     S
C642   H658    1.077   .     S
C643   H648    1.077   .     S
C644   H649    1.077   .     S
Cu645  Cu646   2.704   .     S
Cu645  O665    1.958   .     S
Cu645  O669    1.929   .     S
Cu645  N664    2.031   .     S
Cu645  O667    1.958   .     S
Cu645  O671    1.929   .     S
Cu646  O666    1.958   .     S
Cu646  O670    1.929   .     S
Cu646  N663    2.031   .     S
Cu646  O668    1.958   .     S
Cu646  O672    1.929   .     S
