data_str_m2_o10_o17_pcu_sym.144
_audit_creation_date              2020-01-03
_audit_creation_method            'Materials Studio'
_symmetry_space_group_name_H-M    'P1'
_symmetry_Int_Tables_number       1
_symmetry_cell_setting            triclinic
loop_
_symmetry_equiv_pos_as_xyz
  x,y,z
_cell_length_a                    31.1220
_cell_length_b                    27.1619
_cell_length_c                    23.2134
_cell_angle_alpha                 103.7386
_cell_angle_beta                  93.6859
_cell_angle_gamma                 91.7104
loop_
_atom_site_label
_atom_site_type_symbol
_atom_site_fract_x
_atom_site_fract_y
_atom_site_fract_z
_atom_site_U_iso_or_equiv
_atom_site_adp_type
_atom_site_occupancy
C1     C     0.25009   0.06713   0.15121   0.00000  Uiso   1.00
C2     C     0.25066   0.26601   0.18176   0.00000  Uiso   1.00
C3     C     0.01725   0.07335   0.13590   0.00000  Uiso   1.00
C4     C     0.48131   0.25978   0.20252   0.00000  Uiso   1.00
C5     C     0.24932   0.01115   0.14225   0.00000  Uiso   1.00
C6     C     0.25430   0.32148   0.18939   0.00000  Uiso   1.00
C7     C     0.16456   0.16638   0.16739   0.00000  Uiso   1.00
C8     C     0.33526   0.16541   0.16567   0.00000  Uiso   1.00
C9     C     0.40943   0.21232   0.18747   0.00000  Uiso   1.00
C10    C     0.08994   0.11831   0.14870   0.00000  Uiso   1.00
C11    C     0.38407   0.16709   0.16478   0.00000  Uiso   1.00
C12    C     0.11551   0.16455   0.16724   0.00000  Uiso   1.00
C13    C     0.40534   0.12204   0.14653   0.00000  Uiso   1.00
C14    C     0.09409   0.21053   0.17750   0.00000  Uiso   1.00
C15    C     0.45129   0.12083   0.15037   0.00000  Uiso   1.00
C16    C     0.04815   0.21235   0.18058   0.00000  Uiso   1.00
C17    C     0.47677   0.16686   0.16739   0.00000  Uiso   1.00
C18    C     0.02286   0.16617   0.16671   0.00000  Uiso   1.00
C19    C     0.45585   0.21319   0.18640   0.00000  Uiso   1.00
C20    C     0.04352   0.11914   0.14985   0.00000  Uiso   1.00
C21    C     0.47161   0.07404   0.13806   0.00000  Uiso   1.00
C22    C     0.02755   0.25972   0.19665   0.00000  Uiso   1.00
Cu23   Cu    0.25500   0.17246   0.22813   0.00000  Uiso   1.00
Cu24   Cu    0.24499   0.16087   0.10521   0.00000  Uiso   1.00
N25    N     0.23744   0.15214   0.01284   0.00000  Uiso   1.00
N26    N     0.26255   0.18119   0.32049   0.00000  Uiso   1.00
O27    O     0.25325   0.09538   0.20659   0.00000  Uiso   1.00
O28    O     0.24674   0.23796   0.12674   0.00000  Uiso   1.00
O29    O     0.24480   0.08559   0.10279   0.00000  Uiso   1.00
O30    O     0.25520   0.24774   0.23055   0.00000  Uiso   1.00
O31    O     0.18935   0.17155   0.21857   0.00000  Uiso   1.00
O32    O     0.31064   0.16179   0.11476   0.00000  Uiso   1.00
O33    O     0.18090   0.16176   0.11477   0.00000  Uiso   1.00
O34    O     0.31910   0.17157   0.21857   0.00000  Uiso   1.00
O35    O     0.39061   0.25344   0.22151   0.00000  Uiso   1.00
C36    C     0.35621   0.27219   0.19208   0.00000  Uiso   1.00
H37    H     0.32762   0.26404   0.21344   0.00000  Uiso   1.00
H38    H     0.35129   0.25528   0.14358   0.00000  Uiso   1.00
C39    C     0.36094   0.32945   0.20398   0.00000  Uiso   1.00
H40    H     0.39150   0.00797   0.19032   0.00000  Uiso   1.00
H41    H     0.33539   0.01105   0.17874   0.00000  Uiso   1.00
H42    H     0.36020   0.01321   0.25195   0.00000  Uiso   1.00
O43    O     0.10911   0.07133   0.13440   0.00000  Uiso   1.00
C44    C     0.13930   0.06870   0.09087   0.00000  Uiso   1.00
H45    H     0.17077   0.07778   0.11513   0.00000  Uiso   1.00
H46    H     0.13136   0.09305   0.05959   0.00000  Uiso   1.00
C47    C     0.14504   0.01554   0.05432   0.00000  Uiso   1.00
H48    H     0.11957   0.00110   0.01959   0.00000  Uiso   1.00
H49    H     0.17411   0.01641   0.02939   0.00000  Uiso   1.00
H50    H     0.14730   0.32238   0.08351   0.00000  Uiso   1.00
O51    O     0.38005   0.07833   0.12674   0.00000  Uiso   1.00
C52    C     0.37102   0.07069   0.06500   0.00000  Uiso   1.00
H53    H     0.39725   0.05080   0.04209   0.00000  Uiso   1.00
H54    H     0.36712   0.10624   0.04952   0.00000  Uiso   1.00
C55    C     0.33054   0.03756   0.04714   0.00000  Uiso   1.00
H56    H     0.30358   0.06170   0.04094   0.00000  Uiso   1.00
H57    H     0.33400   0.00782   0.00603   0.00000  Uiso   1.00
H58    H     0.32335   0.01821   0.08240   0.00000  Uiso   1.00
O59    O     0.11696   0.25183   0.16901   0.00000  Uiso   1.00
C60    C     0.13931   0.27825   0.22228   0.00000  Uiso   1.00
H61    H     0.16694   0.25766   0.23521   0.00000  Uiso   1.00
H62    H     0.11818   0.28655   0.25973   0.00000  Uiso   1.00
C63    C     0.15669   0.32657   0.21004   0.00000  Uiso   1.00
H64    H     0.13053   0.01415   0.19486   0.00000  Uiso   1.00
H65    H     0.17520   0.01663   0.24960   0.00000  Uiso   1.00
H66    H     0.17597   0.31656   0.17167   0.00000  Uiso   1.00
O67    O     0.44690   0.03069   0.14028   0.00000  Uiso   1.00
C68    C     0.44910   0.32386   0.08965   0.00000  Uiso   1.00
H69    H     0.47626   0.30079   0.09677   0.00000  Uiso   1.00
H70    H     0.44993   0.00576   0.05073   0.00000  Uiso   1.00
C71    C     0.41034   0.28693   0.07687   0.00000  Uiso   1.00
H72    H     0.38055   0.30655   0.08721   0.00000  Uiso   1.00
H73    H     0.40751   0.26669   0.02911   0.00000  Uiso   1.00
H74    H     0.41461   0.25777   0.10221   0.00000  Uiso   1.00
O75    O     0.05375   0.30409   0.20132   0.00000  Uiso   1.00
C76    C     0.04363   0.01159   0.24749   0.00000  Uiso   1.00
H77    H     0.03804   0.33106   0.28652   0.00000  Uiso   1.00
H78    H     0.01747   0.03021   0.22973   0.00000  Uiso   1.00
C79    C     0.07748   0.05475   0.26853   0.00000  Uiso   1.00
H80    H     0.08463   0.07307   0.23287   0.00000  Uiso   1.00
H81    H     0.06473   0.08428   0.30429   0.00000  Uiso   1.00
H82    H     0.10724   0.04248   0.28727   0.00000  Uiso   1.00
O83    O     0.03638   0.02716   0.12683   0.00000  Uiso   1.00
C84    C     0.04217   0.00933   0.06600   0.00000  Uiso   1.00
H85    H     0.06392   0.03463   0.05021   0.00000  Uiso   1.00
H86    H     0.01372   0.01295   0.03935   0.00000  Uiso   1.00
C87    C     0.05502   0.28712   0.05216   0.00000  Uiso   1.00
H88    H     0.02853   0.26074   0.05710   0.00000  Uiso   1.00
H89    H     0.06410   0.27473   0.00569   0.00000  Uiso   1.00
H90    H     0.08248   0.28255   0.08270   0.00000  Uiso   1.00
O91    O     0.45978   0.30513   0.21204   0.00000  Uiso   1.00
C92    C     0.45372   0.32562   0.27325   0.00000  Uiso   1.00
H93    H     0.47595   0.30948   0.30131   0.00000  Uiso   1.00
H94    H     0.42292   0.31443   0.28754   0.00000  Uiso   1.00
C95    C     0.45332   0.05099   0.28852   0.00000  Uiso   1.00
H96    H     0.46233   0.06803   0.25217   0.00000  Uiso   1.00
H97    H     0.42042   0.06416   0.29563   0.00000  Uiso   1.00
H98    H     0.47458   0.06793   0.32901   0.00000  Uiso   1.00
C99    C     0.24067   0.31599   0.07833   0.00000  Uiso   1.00
H100   H     0.25648   0.32809   0.04410   0.00000  Uiso   1.00
O101   O     0.21263   0.28233   0.06175   0.00000  Uiso   1.00
C102   C     0.26217   0.01648   0.25267   0.00000  Uiso   1.00
H103   H     0.24346   0.00612   0.28599   0.00000  Uiso   1.00
O104   O     0.29112   0.04897   0.26863   0.00000  Uiso   1.00
C105   C     0.19398   0.14710   0.32393   0.00000  Uiso   1.00
H106   H     0.17561   0.18062   0.32499   0.00000  Uiso   1.00
O107   O     0.17648   0.10516   0.30557   0.00000  Uiso   1.00
C108   C     0.30503   0.19268   0.01244   0.00000  Uiso   1.00
H109   H     0.32688   0.16252   0.01279   0.00000  Uiso   1.00
O110   O     0.31804   0.23682   0.03000   0.00000  Uiso   1.00
C111   C     0.75009   0.06713   0.15121   0.00000  Uiso   1.00
C112   C     0.75066   0.26601   0.18176   0.00000  Uiso   1.00
C113   C     0.51725   0.07335   0.13590   0.00000  Uiso   1.00
C114   C     0.98131   0.25978   0.20252   0.00000  Uiso   1.00
C115   C     0.74932   0.01115   0.14225   0.00000  Uiso   1.00
C116   C     0.75430   0.32148   0.18939   0.00000  Uiso   1.00
C117   C     0.66456   0.16638   0.16739   0.00000  Uiso   1.00
C118   C     0.83526   0.16541   0.16567   0.00000  Uiso   1.00
C119   C     0.90943   0.21232   0.18747   0.00000  Uiso   1.00
C120   C     0.58994   0.11831   0.14870   0.00000  Uiso   1.00
C121   C     0.88407   0.16709   0.16478   0.00000  Uiso   1.00
C122   C     0.61551   0.16455   0.16724   0.00000  Uiso   1.00
C123   C     0.90534   0.12204   0.14653   0.00000  Uiso   1.00
C124   C     0.59409   0.21053   0.17750   0.00000  Uiso   1.00
C125   C     0.95129   0.12083   0.15037   0.00000  Uiso   1.00
C126   C     0.54815   0.21235   0.18058   0.00000  Uiso   1.00
C127   C     0.97677   0.16686   0.16739   0.00000  Uiso   1.00
C128   C     0.52286   0.16617   0.16671   0.00000  Uiso   1.00
C129   C     0.95585   0.21319   0.18640   0.00000  Uiso   1.00
C130   C     0.54352   0.11914   0.14985   0.00000  Uiso   1.00
C131   C     0.97161   0.07404   0.13806   0.00000  Uiso   1.00
C132   C     0.52755   0.25972   0.19665   0.00000  Uiso   1.00
Cu133  Cu    0.75500   0.17246   0.22813   0.00000  Uiso   1.00
Cu134  Cu    0.74499   0.16087   0.10521   0.00000  Uiso   1.00
N135   N     0.73744   0.15214   0.01284   0.00000  Uiso   1.00
N136   N     0.76255   0.18119   0.32049   0.00000  Uiso   1.00
O137   O     0.75325   0.09538   0.20659   0.00000  Uiso   1.00
O138   O     0.74674   0.23796   0.12674   0.00000  Uiso   1.00
O139   O     0.74480   0.08559   0.10279   0.00000  Uiso   1.00
O140   O     0.75520   0.24774   0.23055   0.00000  Uiso   1.00
O141   O     0.68935   0.17155   0.21857   0.00000  Uiso   1.00
O142   O     0.81064   0.16179   0.11476   0.00000  Uiso   1.00
O143   O     0.68090   0.16176   0.11477   0.00000  Uiso   1.00
O144   O     0.81910   0.17157   0.21857   0.00000  Uiso   1.00
O145   O     0.89061   0.25344   0.22151   0.00000  Uiso   1.00
C146   C     0.85621   0.27219   0.19208   0.00000  Uiso   1.00
H147   H     0.82762   0.26404   0.21344   0.00000  Uiso   1.00
H148   H     0.85129   0.25528   0.14358   0.00000  Uiso   1.00
C149   C     0.86094   0.32945   0.20398   0.00000  Uiso   1.00
H150   H     0.89150   0.00797   0.19032   0.00000  Uiso   1.00
H151   H     0.83539   0.01105   0.17874   0.00000  Uiso   1.00
H152   H     0.86020   0.01321   0.25195   0.00000  Uiso   1.00
O153   O     0.60911   0.07133   0.13440   0.00000  Uiso   1.00
C154   C     0.63930   0.06870   0.09087   0.00000  Uiso   1.00
H155   H     0.67077   0.07778   0.11513   0.00000  Uiso   1.00
H156   H     0.63136   0.09305   0.05959   0.00000  Uiso   1.00
C157   C     0.64504   0.01554   0.05432   0.00000  Uiso   1.00
H158   H     0.61957   0.00110   0.01959   0.00000  Uiso   1.00
H159   H     0.67411   0.01641   0.02939   0.00000  Uiso   1.00
H160   H     0.64730   0.32238   0.08351   0.00000  Uiso   1.00
O161   O     0.88005   0.07833   0.12674   0.00000  Uiso   1.00
C162   C     0.87102   0.07069   0.06500   0.00000  Uiso   1.00
H163   H     0.89725   0.05080   0.04209   0.00000  Uiso   1.00
H164   H     0.86712   0.10624   0.04952   0.00000  Uiso   1.00
C165   C     0.83054   0.03756   0.04714   0.00000  Uiso   1.00
H166   H     0.80358   0.06170   0.04094   0.00000  Uiso   1.00
H167   H     0.83400   0.00782   0.00603   0.00000  Uiso   1.00
H168   H     0.82335   0.01821   0.08240   0.00000  Uiso   1.00
O169   O     0.61696   0.25183   0.16901   0.00000  Uiso   1.00
C170   C     0.63931   0.27825   0.22228   0.00000  Uiso   1.00
H171   H     0.66694   0.25766   0.23521   0.00000  Uiso   1.00
H172   H     0.61818   0.28655   0.25973   0.00000  Uiso   1.00
C173   C     0.65669   0.32657   0.21004   0.00000  Uiso   1.00
H174   H     0.63053   0.01415   0.19486   0.00000  Uiso   1.00
H175   H     0.67520   0.01663   0.24960   0.00000  Uiso   1.00
H176   H     0.67597   0.31656   0.17167   0.00000  Uiso   1.00
O177   O     0.94690   0.03069   0.14028   0.00000  Uiso   1.00
C178   C     0.94910   0.32386   0.08965   0.00000  Uiso   1.00
H179   H     0.97626   0.30079   0.09677   0.00000  Uiso   1.00
H180   H     0.94993   0.00576   0.05073   0.00000  Uiso   1.00
C181   C     0.91034   0.28693   0.07687   0.00000  Uiso   1.00
H182   H     0.88055   0.30655   0.08721   0.00000  Uiso   1.00
H183   H     0.90751   0.26669   0.02911   0.00000  Uiso   1.00
H184   H     0.91461   0.25777   0.10221   0.00000  Uiso   1.00
O185   O     0.55375   0.30409   0.20132   0.00000  Uiso   1.00
C186   C     0.54363   0.01159   0.24749   0.00000  Uiso   1.00
H187   H     0.53804   0.33106   0.28652   0.00000  Uiso   1.00
H188   H     0.51747   0.03021   0.22973   0.00000  Uiso   1.00
C189   C     0.57748   0.05475   0.26853   0.00000  Uiso   1.00
H190   H     0.58463   0.07307   0.23287   0.00000  Uiso   1.00
H191   H     0.56473   0.08428   0.30429   0.00000  Uiso   1.00
H192   H     0.60724   0.04248   0.28727   0.00000  Uiso   1.00
O193   O     0.53638   0.02716   0.12683   0.00000  Uiso   1.00
C194   C     0.54217   0.00933   0.06600   0.00000  Uiso   1.00
H195   H     0.56392   0.03463   0.05021   0.00000  Uiso   1.00
H196   H     0.51372   0.01295   0.03935   0.00000  Uiso   1.00
C197   C     0.55502   0.28712   0.05216   0.00000  Uiso   1.00
H198   H     0.52853   0.26074   0.05710   0.00000  Uiso   1.00
H199   H     0.56410   0.27473   0.00569   0.00000  Uiso   1.00
H200   H     0.58248   0.28255   0.08270   0.00000  Uiso   1.00
O201   O     0.95978   0.30513   0.21204   0.00000  Uiso   1.00
C202   C     0.95372   0.32562   0.27325   0.00000  Uiso   1.00
H203   H     0.97595   0.30948   0.30131   0.00000  Uiso   1.00
H204   H     0.92292   0.31443   0.28754   0.00000  Uiso   1.00
C205   C     0.95332   0.05099   0.28852   0.00000  Uiso   1.00
H206   H     0.96233   0.06803   0.25217   0.00000  Uiso   1.00
H207   H     0.92042   0.06416   0.29563   0.00000  Uiso   1.00
H208   H     0.97458   0.06793   0.32901   0.00000  Uiso   1.00
C209   C     0.74067   0.31599   0.07833   0.00000  Uiso   1.00
H210   H     0.75648   0.32809   0.04410   0.00000  Uiso   1.00
O211   O     0.71263   0.28233   0.06175   0.00000  Uiso   1.00
C212   C     0.76217   0.01648   0.25267   0.00000  Uiso   1.00
H213   H     0.74346   0.00612   0.28599   0.00000  Uiso   1.00
O214   O     0.79112   0.04897   0.26863   0.00000  Uiso   1.00
C215   C     0.69398   0.14710   0.32393   0.00000  Uiso   1.00
H216   H     0.67561   0.18062   0.32499   0.00000  Uiso   1.00
O217   O     0.67648   0.10516   0.30557   0.00000  Uiso   1.00
C218   C     0.80503   0.19268   0.01244   0.00000  Uiso   1.00
H219   H     0.82688   0.16252   0.01279   0.00000  Uiso   1.00
O220   O     0.81804   0.23682   0.03000   0.00000  Uiso   1.00
C221   C     0.25009   0.40046   0.15121   0.00000  Uiso   1.00
C222   C     0.25066   0.59935   0.18176   0.00000  Uiso   1.00
C223   C     0.01725   0.40668   0.13590   0.00000  Uiso   1.00
C224   C     0.48131   0.59311   0.20252   0.00000  Uiso   1.00
C225   C     0.24932   0.34448   0.14225   0.00000  Uiso   1.00
C226   C     0.25430   0.65481   0.18939   0.00000  Uiso   1.00
C227   C     0.16456   0.49972   0.16739   0.00000  Uiso   1.00
C228   C     0.33526   0.49874   0.16567   0.00000  Uiso   1.00
C229   C     0.40943   0.54566   0.18747   0.00000  Uiso   1.00
C230   C     0.08994   0.45164   0.14870   0.00000  Uiso   1.00
C231   C     0.38407   0.50042   0.16478   0.00000  Uiso   1.00
C232   C     0.11551   0.49789   0.16724   0.00000  Uiso   1.00
C233   C     0.40534   0.45538   0.14653   0.00000  Uiso   1.00
C234   C     0.09409   0.54386   0.17750   0.00000  Uiso   1.00
C235   C     0.45129   0.45417   0.15037   0.00000  Uiso   1.00
C236   C     0.04815   0.54568   0.18058   0.00000  Uiso   1.00
C237   C     0.47677   0.50019   0.16739   0.00000  Uiso   1.00
C238   C     0.02286   0.49950   0.16671   0.00000  Uiso   1.00
C239   C     0.45585   0.54653   0.18640   0.00000  Uiso   1.00
C240   C     0.04352   0.45248   0.14985   0.00000  Uiso   1.00
C241   C     0.47161   0.40737   0.13806   0.00000  Uiso   1.00
C242   C     0.02755   0.59305   0.19665   0.00000  Uiso   1.00
Cu243  Cu    0.25500   0.50579   0.22813   0.00000  Uiso   1.00
Cu244  Cu    0.24499   0.49421   0.10521   0.00000  Uiso   1.00
N245   N     0.23744   0.48547   0.01284   0.00000  Uiso   1.00
N246   N     0.26255   0.51453   0.32049   0.00000  Uiso   1.00
O247   O     0.25325   0.42871   0.20659   0.00000  Uiso   1.00
O248   O     0.24674   0.57129   0.12674   0.00000  Uiso   1.00
O249   O     0.24480   0.41892   0.10279   0.00000  Uiso   1.00
O250   O     0.25520   0.58108   0.23055   0.00000  Uiso   1.00
O251   O     0.18935   0.50488   0.21857   0.00000  Uiso   1.00
O252   O     0.31064   0.49512   0.11476   0.00000  Uiso   1.00
O253   O     0.18090   0.49510   0.11477   0.00000  Uiso   1.00
O254   O     0.31910   0.50490   0.21857   0.00000  Uiso   1.00
O255   O     0.39061   0.58677   0.22151   0.00000  Uiso   1.00
C256   C     0.35621   0.60553   0.19208   0.00000  Uiso   1.00
H257   H     0.32762   0.59738   0.21344   0.00000  Uiso   1.00
H258   H     0.35129   0.58861   0.14358   0.00000  Uiso   1.00
C259   C     0.36094   0.66278   0.20398   0.00000  Uiso   1.00
H260   H     0.39150   0.34130   0.19032   0.00000  Uiso   1.00
H261   H     0.33539   0.34438   0.17874   0.00000  Uiso   1.00
H262   H     0.36020   0.34654   0.25195   0.00000  Uiso   1.00
O263   O     0.10911   0.40466   0.13440   0.00000  Uiso   1.00
C264   C     0.13930   0.40204   0.09087   0.00000  Uiso   1.00
H265   H     0.17077   0.41112   0.11513   0.00000  Uiso   1.00
H266   H     0.13136   0.42638   0.05959   0.00000  Uiso   1.00
C267   C     0.14504   0.34887   0.05432   0.00000  Uiso   1.00
H268   H     0.11957   0.33444   0.01959   0.00000  Uiso   1.00
H269   H     0.17411   0.34974   0.02939   0.00000  Uiso   1.00
H270   H     0.14730   0.65571   0.08351   0.00000  Uiso   1.00
O271   O     0.38005   0.41166   0.12674   0.00000  Uiso   1.00
C272   C     0.37102   0.40403   0.06500   0.00000  Uiso   1.00
H273   H     0.39725   0.38414   0.04209   0.00000  Uiso   1.00
H274   H     0.36712   0.43957   0.04952   0.00000  Uiso   1.00
C275   C     0.33054   0.37089   0.04714   0.00000  Uiso   1.00
H276   H     0.30358   0.39503   0.04094   0.00000  Uiso   1.00
H277   H     0.33400   0.34115   0.00603   0.00000  Uiso   1.00
H278   H     0.32335   0.35154   0.08240   0.00000  Uiso   1.00
O279   O     0.11696   0.58517   0.16901   0.00000  Uiso   1.00
C280   C     0.13931   0.61158   0.22228   0.00000  Uiso   1.00
H281   H     0.16694   0.59100   0.23521   0.00000  Uiso   1.00
H282   H     0.11818   0.61988   0.25973   0.00000  Uiso   1.00
C283   C     0.15669   0.65990   0.21004   0.00000  Uiso   1.00
H284   H     0.13053   0.34748   0.19486   0.00000  Uiso   1.00
H285   H     0.17520   0.34997   0.24960   0.00000  Uiso   1.00
H286   H     0.17597   0.64989   0.17167   0.00000  Uiso   1.00
O287   O     0.44690   0.36402   0.14028   0.00000  Uiso   1.00
C288   C     0.44910   0.65719   0.08965   0.00000  Uiso   1.00
H289   H     0.47626   0.63413   0.09677   0.00000  Uiso   1.00
H290   H     0.44993   0.33910   0.05073   0.00000  Uiso   1.00
C291   C     0.41034   0.62026   0.07687   0.00000  Uiso   1.00
H292   H     0.38055   0.63988   0.08721   0.00000  Uiso   1.00
H293   H     0.40751   0.60003   0.02911   0.00000  Uiso   1.00
H294   H     0.41461   0.59110   0.10221   0.00000  Uiso   1.00
O295   O     0.05375   0.63742   0.20132   0.00000  Uiso   1.00
C296   C     0.04363   0.34493   0.24749   0.00000  Uiso   1.00
H297   H     0.03804   0.66439   0.28652   0.00000  Uiso   1.00
H298   H     0.01747   0.36354   0.22973   0.00000  Uiso   1.00
C299   C     0.07748   0.38808   0.26853   0.00000  Uiso   1.00
H300   H     0.08463   0.40640   0.23287   0.00000  Uiso   1.00
H301   H     0.06473   0.41761   0.30429   0.00000  Uiso   1.00
H302   H     0.10724   0.37581   0.28727   0.00000  Uiso   1.00
O303   O     0.03638   0.36049   0.12683   0.00000  Uiso   1.00
C304   C     0.04217   0.34267   0.06600   0.00000  Uiso   1.00
H305   H     0.06392   0.36797   0.05021   0.00000  Uiso   1.00
H306   H     0.01372   0.34629   0.03935   0.00000  Uiso   1.00
C307   C     0.05502   0.62046   0.05216   0.00000  Uiso   1.00
H308   H     0.02853   0.59408   0.05710   0.00000  Uiso   1.00
H309   H     0.06410   0.60806   0.00569   0.00000  Uiso   1.00
H310   H     0.08248   0.61588   0.08270   0.00000  Uiso   1.00
O311   O     0.45978   0.63846   0.21204   0.00000  Uiso   1.00
C312   C     0.45372   0.65895   0.27325   0.00000  Uiso   1.00
H313   H     0.47595   0.64282   0.30131   0.00000  Uiso   1.00
H314   H     0.42292   0.64776   0.28754   0.00000  Uiso   1.00
C315   C     0.45332   0.38432   0.28852   0.00000  Uiso   1.00
H316   H     0.46233   0.40136   0.25217   0.00000  Uiso   1.00
H317   H     0.42042   0.39749   0.29563   0.00000  Uiso   1.00
H318   H     0.47458   0.40126   0.32901   0.00000  Uiso   1.00
C319   C     0.24067   0.64932   0.07833   0.00000  Uiso   1.00
H320   H     0.25648   0.66142   0.04410   0.00000  Uiso   1.00
O321   O     0.21263   0.61567   0.06175   0.00000  Uiso   1.00
C322   C     0.26217   0.34981   0.25267   0.00000  Uiso   1.00
H323   H     0.24346   0.33945   0.28599   0.00000  Uiso   1.00
O324   O     0.29112   0.38231   0.26863   0.00000  Uiso   1.00
C325   C     0.19398   0.48043   0.32393   0.00000  Uiso   1.00
H326   H     0.17561   0.51395   0.32499   0.00000  Uiso   1.00
O327   O     0.17648   0.43849   0.30557   0.00000  Uiso   1.00
C328   C     0.30503   0.52602   0.01244   0.00000  Uiso   1.00
H329   H     0.32688   0.49585   0.01279   0.00000  Uiso   1.00
O330   O     0.31804   0.57015   0.03000   0.00000  Uiso   1.00
C331   C     0.75009   0.40046   0.15121   0.00000  Uiso   1.00
C332   C     0.75066   0.59935   0.18176   0.00000  Uiso   1.00
C333   C     0.51725   0.40668   0.13590   0.00000  Uiso   1.00
C334   C     0.98131   0.59311   0.20252   0.00000  Uiso   1.00
C335   C     0.74932   0.34448   0.14225   0.00000  Uiso   1.00
C336   C     0.75430   0.65481   0.18939   0.00000  Uiso   1.00
C337   C     0.66456   0.49972   0.16739   0.00000  Uiso   1.00
C338   C     0.83526   0.49874   0.16567   0.00000  Uiso   1.00
C339   C     0.90943   0.54566   0.18747   0.00000  Uiso   1.00
C340   C     0.58994   0.45164   0.14870   0.00000  Uiso   1.00
C341   C     0.88407   0.50042   0.16478   0.00000  Uiso   1.00
C342   C     0.61551   0.49789   0.16724   0.00000  Uiso   1.00
C343   C     0.90534   0.45538   0.14653   0.00000  Uiso   1.00
C344   C     0.59409   0.54386   0.17750   0.00000  Uiso   1.00
C345   C     0.95129   0.45417   0.15037   0.00000  Uiso   1.00
C346   C     0.54815   0.54568   0.18058   0.00000  Uiso   1.00
C347   C     0.97677   0.50019   0.16739   0.00000  Uiso   1.00
C348   C     0.52286   0.49950   0.16671   0.00000  Uiso   1.00
C349   C     0.95585   0.54653   0.18640   0.00000  Uiso   1.00
C350   C     0.54352   0.45248   0.14985   0.00000  Uiso   1.00
C351   C     0.97161   0.40737   0.13806   0.00000  Uiso   1.00
C352   C     0.52755   0.59305   0.19665   0.00000  Uiso   1.00
Cu353  Cu    0.75500   0.50579   0.22813   0.00000  Uiso   1.00
Cu354  Cu    0.74499   0.49421   0.10521   0.00000  Uiso   1.00
N355   N     0.73744   0.48547   0.01284   0.00000  Uiso   1.00
N356   N     0.76255   0.51453   0.32049   0.00000  Uiso   1.00
O357   O     0.75325   0.42871   0.20659   0.00000  Uiso   1.00
O358   O     0.74674   0.57129   0.12674   0.00000  Uiso   1.00
O359   O     0.74480   0.41892   0.10279   0.00000  Uiso   1.00
O360   O     0.75520   0.58108   0.23055   0.00000  Uiso   1.00
O361   O     0.68935   0.50488   0.21857   0.00000  Uiso   1.00
O362   O     0.81064   0.49512   0.11476   0.00000  Uiso   1.00
O363   O     0.68090   0.49510   0.11477   0.00000  Uiso   1.00
O364   O     0.81910   0.50490   0.21857   0.00000  Uiso   1.00
O365   O     0.89061   0.58677   0.22151   0.00000  Uiso   1.00
C366   C     0.85621   0.60553   0.19208   0.00000  Uiso   1.00
H367   H     0.82762   0.59738   0.21344   0.00000  Uiso   1.00
H368   H     0.85129   0.58861   0.14358   0.00000  Uiso   1.00
C369   C     0.86094   0.66278   0.20398   0.00000  Uiso   1.00
H370   H     0.89150   0.34130   0.19032   0.00000  Uiso   1.00
H371   H     0.83539   0.34438   0.17874   0.00000  Uiso   1.00
H372   H     0.86020   0.34654   0.25195   0.00000  Uiso   1.00
O373   O     0.60911   0.40466   0.13440   0.00000  Uiso   1.00
C374   C     0.63930   0.40204   0.09087   0.00000  Uiso   1.00
H375   H     0.67077   0.41112   0.11513   0.00000  Uiso   1.00
H376   H     0.63136   0.42638   0.05959   0.00000  Uiso   1.00
C377   C     0.64504   0.34887   0.05432   0.00000  Uiso   1.00
H378   H     0.61957   0.33444   0.01959   0.00000  Uiso   1.00
H379   H     0.67411   0.34974   0.02939   0.00000  Uiso   1.00
H380   H     0.64730   0.65571   0.08351   0.00000  Uiso   1.00
O381   O     0.88005   0.41166   0.12674   0.00000  Uiso   1.00
C382   C     0.87102   0.40403   0.06500   0.00000  Uiso   1.00
H383   H     0.89725   0.38414   0.04209   0.00000  Uiso   1.00
H384   H     0.86712   0.43957   0.04952   0.00000  Uiso   1.00
C385   C     0.83054   0.37089   0.04714   0.00000  Uiso   1.00
H386   H     0.80358   0.39503   0.04094   0.00000  Uiso   1.00
H387   H     0.83400   0.34115   0.00603   0.00000  Uiso   1.00
H388   H     0.82335   0.35154   0.08240   0.00000  Uiso   1.00
O389   O     0.61696   0.58517   0.16901   0.00000  Uiso   1.00
C390   C     0.63931   0.61158   0.22228   0.00000  Uiso   1.00
H391   H     0.66694   0.59100   0.23521   0.00000  Uiso   1.00
H392   H     0.61818   0.61988   0.25973   0.00000  Uiso   1.00
C393   C     0.65669   0.65990   0.21004   0.00000  Uiso   1.00
H394   H     0.63053   0.34748   0.19486   0.00000  Uiso   1.00
H395   H     0.67520   0.34997   0.24960   0.00000  Uiso   1.00
H396   H     0.67597   0.64989   0.17167   0.00000  Uiso   1.00
O397   O     0.94690   0.36402   0.14028   0.00000  Uiso   1.00
C398   C     0.94910   0.65719   0.08965   0.00000  Uiso   1.00
H399   H     0.97626   0.63413   0.09677   0.00000  Uiso   1.00
H400   H     0.94993   0.33910   0.05073   0.00000  Uiso   1.00
C401   C     0.91034   0.62026   0.07687   0.00000  Uiso   1.00
H402   H     0.88055   0.63988   0.08721   0.00000  Uiso   1.00
H403   H     0.90751   0.60003   0.02911   0.00000  Uiso   1.00
H404   H     0.91461   0.59110   0.10221   0.00000  Uiso   1.00
O405   O     0.55375   0.63742   0.20132   0.00000  Uiso   1.00
C406   C     0.54363   0.34493   0.24749   0.00000  Uiso   1.00
H407   H     0.53804   0.66439   0.28652   0.00000  Uiso   1.00
H408   H     0.51747   0.36354   0.22973   0.00000  Uiso   1.00
C409   C     0.57748   0.38808   0.26853   0.00000  Uiso   1.00
H410   H     0.58463   0.40640   0.23287   0.00000  Uiso   1.00
H411   H     0.56473   0.41761   0.30429   0.00000  Uiso   1.00
H412   H     0.60724   0.37581   0.28727   0.00000  Uiso   1.00
O413   O     0.53638   0.36049   0.12683   0.00000  Uiso   1.00
C414   C     0.54217   0.34267   0.06600   0.00000  Uiso   1.00
H415   H     0.56392   0.36797   0.05021   0.00000  Uiso   1.00
H416   H     0.51372   0.34629   0.03935   0.00000  Uiso   1.00
C417   C     0.55502   0.62046   0.05216   0.00000  Uiso   1.00
H418   H     0.52853   0.59408   0.05710   0.00000  Uiso   1.00
H419   H     0.56410   0.60806   0.00569   0.00000  Uiso   1.00
H420   H     0.58248   0.61588   0.08270   0.00000  Uiso   1.00
O421   O     0.95978   0.63846   0.21204   0.00000  Uiso   1.00
C422   C     0.95372   0.65895   0.27325   0.00000  Uiso   1.00
H423   H     0.97595   0.64282   0.30131   0.00000  Uiso   1.00
H424   H     0.92292   0.64776   0.28754   0.00000  Uiso   1.00
C425   C     0.95332   0.38432   0.28852   0.00000  Uiso   1.00
H426   H     0.96233   0.40136   0.25217   0.00000  Uiso   1.00
H427   H     0.92042   0.39749   0.29563   0.00000  Uiso   1.00
H428   H     0.97458   0.40126   0.32901   0.00000  Uiso   1.00
C429   C     0.74067   0.64932   0.07833   0.00000  Uiso   1.00
H430   H     0.75648   0.66142   0.04410   0.00000  Uiso   1.00
O431   O     0.71263   0.61567   0.06175   0.00000  Uiso   1.00
C432   C     0.76217   0.34981   0.25267   0.00000  Uiso   1.00
H433   H     0.74346   0.33945   0.28599   0.00000  Uiso   1.00
O434   O     0.79112   0.38231   0.26863   0.00000  Uiso   1.00
C435   C     0.69398   0.48043   0.32393   0.00000  Uiso   1.00
H436   H     0.67561   0.51395   0.32499   0.00000  Uiso   1.00
O437   O     0.67648   0.43849   0.30557   0.00000  Uiso   1.00
C438   C     0.80503   0.52602   0.01244   0.00000  Uiso   1.00
H439   H     0.82688   0.49585   0.01279   0.00000  Uiso   1.00
O440   O     0.81804   0.57015   0.03000   0.00000  Uiso   1.00
C441   C     0.25009   0.73380   0.15121   0.00000  Uiso   1.00
C442   C     0.25066   0.93268   0.18176   0.00000  Uiso   1.00
C443   C     0.01725   0.74002   0.13590   0.00000  Uiso   1.00
C444   C     0.48131   0.92645   0.20252   0.00000  Uiso   1.00
C445   C     0.24932   0.67782   0.14225   0.00000  Uiso   1.00
C446   C     0.25430   0.98814   0.18939   0.00000  Uiso   1.00
C447   C     0.16456   0.83305   0.16739   0.00000  Uiso   1.00
C448   C     0.33526   0.83207   0.16567   0.00000  Uiso   1.00
C449   C     0.40943   0.87899   0.18747   0.00000  Uiso   1.00
C450   C     0.08994   0.78497   0.14870   0.00000  Uiso   1.00
C451   C     0.38407   0.83375   0.16478   0.00000  Uiso   1.00
C452   C     0.11551   0.83122   0.16724   0.00000  Uiso   1.00
C453   C     0.40534   0.78871   0.14653   0.00000  Uiso   1.00
C454   C     0.09409   0.87720   0.17750   0.00000  Uiso   1.00
C455   C     0.45129   0.78750   0.15037   0.00000  Uiso   1.00
C456   C     0.04815   0.87901   0.18058   0.00000  Uiso   1.00
C457   C     0.47677   0.83352   0.16739   0.00000  Uiso   1.00
C458   C     0.02286   0.83283   0.16671   0.00000  Uiso   1.00
C459   C     0.45585   0.87986   0.18640   0.00000  Uiso   1.00
C460   C     0.04352   0.78581   0.14985   0.00000  Uiso   1.00
C461   C     0.47161   0.74071   0.13806   0.00000  Uiso   1.00
C462   C     0.02755   0.92638   0.19665   0.00000  Uiso   1.00
Cu463  Cu    0.25500   0.83913   0.22813   0.00000  Uiso   1.00
Cu464  Cu    0.24499   0.82754   0.10521   0.00000  Uiso   1.00
N465   N     0.23744   0.81881   0.01284   0.00000  Uiso   1.00
N466   N     0.26255   0.84786   0.32049   0.00000  Uiso   1.00
O467   O     0.25325   0.76204   0.20659   0.00000  Uiso   1.00
O468   O     0.24674   0.90462   0.12674   0.00000  Uiso   1.00
O469   O     0.24480   0.75226   0.10279   0.00000  Uiso   1.00
O470   O     0.25520   0.91441   0.23055   0.00000  Uiso   1.00
O471   O     0.18935   0.83821   0.21857   0.00000  Uiso   1.00
O472   O     0.31064   0.82845   0.11476   0.00000  Uiso   1.00
O473   O     0.18090   0.82843   0.11477   0.00000  Uiso   1.00
O474   O     0.31910   0.83824   0.21857   0.00000  Uiso   1.00
O475   O     0.39061   0.92011   0.22151   0.00000  Uiso   1.00
C476   C     0.35621   0.93886   0.19208   0.00000  Uiso   1.00
H477   H     0.32762   0.93071   0.21344   0.00000  Uiso   1.00
H478   H     0.35129   0.92194   0.14358   0.00000  Uiso   1.00
C479   C     0.36094   0.99611   0.20398   0.00000  Uiso   1.00
H480   H     0.39150   0.67463   0.19032   0.00000  Uiso   1.00
H481   H     0.33539   0.67772   0.17874   0.00000  Uiso   1.00
H482   H     0.36020   0.67987   0.25195   0.00000  Uiso   1.00
O483   O     0.10911   0.73799   0.13440   0.00000  Uiso   1.00
C484   C     0.13930   0.73537   0.09087   0.00000  Uiso   1.00
H485   H     0.17077   0.74445   0.11513   0.00000  Uiso   1.00
H486   H     0.13136   0.75971   0.05959   0.00000  Uiso   1.00
C487   C     0.14504   0.68221   0.05432   0.00000  Uiso   1.00
H488   H     0.11957   0.66777   0.01959   0.00000  Uiso   1.00
H489   H     0.17411   0.68307   0.02939   0.00000  Uiso   1.00
H490   H     0.14730   0.98905   0.08351   0.00000  Uiso   1.00
O491   O     0.38005   0.74500   0.12674   0.00000  Uiso   1.00
C492   C     0.37102   0.73736   0.06500   0.00000  Uiso   1.00
H493   H     0.39725   0.71747   0.04209   0.00000  Uiso   1.00
H494   H     0.36712   0.77290   0.04952   0.00000  Uiso   1.00
C495   C     0.33054   0.70422   0.04714   0.00000  Uiso   1.00
H496   H     0.30358   0.72836   0.04094   0.00000  Uiso   1.00
H497   H     0.33400   0.67449   0.00603   0.00000  Uiso   1.00
H498   H     0.32335   0.68487   0.08240   0.00000  Uiso   1.00
O499   O     0.11696   0.91850   0.16901   0.00000  Uiso   1.00
C500   C     0.13931   0.94492   0.22228   0.00000  Uiso   1.00
H501   H     0.16694   0.92433   0.23521   0.00000  Uiso   1.00
H502   H     0.11818   0.95321   0.25973   0.00000  Uiso   1.00
C503   C     0.15669   0.99323   0.21004   0.00000  Uiso   1.00
H504   H     0.13053   0.68081   0.19486   0.00000  Uiso   1.00
H505   H     0.17520   0.68330   0.24960   0.00000  Uiso   1.00
H506   H     0.17597   0.98322   0.17167   0.00000  Uiso   1.00
O507   O     0.44690   0.69735   0.14028   0.00000  Uiso   1.00
C508   C     0.44910   0.99052   0.08965   0.00000  Uiso   1.00
H509   H     0.47626   0.96746   0.09677   0.00000  Uiso   1.00
H510   H     0.44993   0.67243   0.05073   0.00000  Uiso   1.00
C511   C     0.41034   0.95359   0.07687   0.00000  Uiso   1.00
H512   H     0.38055   0.97321   0.08721   0.00000  Uiso   1.00
H513   H     0.40751   0.93336   0.02911   0.00000  Uiso   1.00
H514   H     0.41461   0.92443   0.10221   0.00000  Uiso   1.00
O515   O     0.05375   0.97075   0.20132   0.00000  Uiso   1.00
C516   C     0.04363   0.67826   0.24749   0.00000  Uiso   1.00
H517   H     0.03804   0.99773   0.28652   0.00000  Uiso   1.00
H518   H     0.01747   0.69687   0.22973   0.00000  Uiso   1.00
C519   C     0.07748   0.72142   0.26853   0.00000  Uiso   1.00
H520   H     0.08463   0.73973   0.23287   0.00000  Uiso   1.00
H521   H     0.06473   0.75094   0.30429   0.00000  Uiso   1.00
H522   H     0.10724   0.70914   0.28727   0.00000  Uiso   1.00
O523   O     0.03638   0.69383   0.12683   0.00000  Uiso   1.00
C524   C     0.04217   0.67600   0.06600   0.00000  Uiso   1.00
H525   H     0.06392   0.70130   0.05021   0.00000  Uiso   1.00
H526   H     0.01372   0.67962   0.03935   0.00000  Uiso   1.00
C527   C     0.05502   0.95379   0.05216   0.00000  Uiso   1.00
H528   H     0.02853   0.92741   0.05710   0.00000  Uiso   1.00
H529   H     0.06410   0.94139   0.00569   0.00000  Uiso   1.00
H530   H     0.08248   0.94921   0.08270   0.00000  Uiso   1.00
O531   O     0.45978   0.97179   0.21204   0.00000  Uiso   1.00
C532   C     0.45372   0.99229   0.27325   0.00000  Uiso   1.00
H533   H     0.47595   0.97615   0.30131   0.00000  Uiso   1.00
H534   H     0.42292   0.98110   0.28754   0.00000  Uiso   1.00
C535   C     0.45332   0.71766   0.28852   0.00000  Uiso   1.00
H536   H     0.46233   0.73470   0.25217   0.00000  Uiso   1.00
H537   H     0.42042   0.73083   0.29563   0.00000  Uiso   1.00
H538   H     0.47458   0.73459   0.32901   0.00000  Uiso   1.00
C539   C     0.24067   0.98265   0.07833   0.00000  Uiso   1.00
H540   H     0.25648   0.99475   0.04410   0.00000  Uiso   1.00
O541   O     0.21263   0.94900   0.06175   0.00000  Uiso   1.00
C542   C     0.26217   0.68314   0.25267   0.00000  Uiso   1.00
H543   H     0.24346   0.67279   0.28599   0.00000  Uiso   1.00
O544   O     0.29112   0.71564   0.26863   0.00000  Uiso   1.00
C545   C     0.19398   0.81376   0.32393   0.00000  Uiso   1.00
H546   H     0.17561   0.84728   0.32499   0.00000  Uiso   1.00
O547   O     0.17648   0.77183   0.30557   0.00000  Uiso   1.00
C548   C     0.30503   0.85935   0.01244   0.00000  Uiso   1.00
H549   H     0.32688   0.82919   0.01279   0.00000  Uiso   1.00
O550   O     0.31804   0.90348   0.03000   0.00000  Uiso   1.00
C551   C     0.75009   0.73380   0.15121   0.00000  Uiso   1.00
C552   C     0.75066   0.93268   0.18176   0.00000  Uiso   1.00
C553   C     0.51725   0.74002   0.13590   0.00000  Uiso   1.00
C554   C     0.98131   0.92645   0.20252   0.00000  Uiso   1.00
C555   C     0.74932   0.67782   0.14225   0.00000  Uiso   1.00
C556   C     0.75430   0.98814   0.18939   0.00000  Uiso   1.00
C557   C     0.66456   0.83305   0.16739   0.00000  Uiso   1.00
C558   C     0.83526   0.83207   0.16567   0.00000  Uiso   1.00
C559   C     0.90943   0.87899   0.18747   0.00000  Uiso   1.00
C560   C     0.58994   0.78497   0.14870   0.00000  Uiso   1.00
C561   C     0.88407   0.83375   0.16478   0.00000  Uiso   1.00
C562   C     0.61551   0.83122   0.16724   0.00000  Uiso   1.00
C563   C     0.90534   0.78871   0.14653   0.00000  Uiso   1.00
C564   C     0.59409   0.87720   0.17750   0.00000  Uiso   1.00
C565   C     0.95129   0.78750   0.15037   0.00000  Uiso   1.00
C566   C     0.54815   0.87901   0.18058   0.00000  Uiso   1.00
C567   C     0.97677   0.83352   0.16739   0.00000  Uiso   1.00
C568   C     0.52286   0.83283   0.16671   0.00000  Uiso   1.00
C569   C     0.95585   0.87986   0.18640   0.00000  Uiso   1.00
C570   C     0.54352   0.78581   0.14985   0.00000  Uiso   1.00
C571   C     0.97161   0.74071   0.13806   0.00000  Uiso   1.00
C572   C     0.52755   0.92638   0.19665   0.00000  Uiso   1.00
Cu573  Cu    0.75500   0.83913   0.22813   0.00000  Uiso   1.00
Cu574  Cu    0.74499   0.82754   0.10521   0.00000  Uiso   1.00
N575   N     0.73744   0.81881   0.01284   0.00000  Uiso   1.00
N576   N     0.76255   0.84786   0.32049   0.00000  Uiso   1.00
O577   O     0.75325   0.76204   0.20659   0.00000  Uiso   1.00
O578   O     0.74674   0.90462   0.12674   0.00000  Uiso   1.00
O579   O     0.74480   0.75226   0.10279   0.00000  Uiso   1.00
O580   O     0.75520   0.91441   0.23055   0.00000  Uiso   1.00
O581   O     0.68935   0.83821   0.21857   0.00000  Uiso   1.00
O582   O     0.81064   0.82845   0.11476   0.00000  Uiso   1.00
O583   O     0.68090   0.82843   0.11477   0.00000  Uiso   1.00
O584   O     0.81910   0.83824   0.21857   0.00000  Uiso   1.00
O585   O     0.89061   0.92011   0.22151   0.00000  Uiso   1.00
C586   C     0.85621   0.93886   0.19208   0.00000  Uiso   1.00
H587   H     0.82762   0.93071   0.21344   0.00000  Uiso   1.00
H588   H     0.85129   0.92194   0.14358   0.00000  Uiso   1.00
C589   C     0.86094   0.99611   0.20398   0.00000  Uiso   1.00
H590   H     0.89150   0.67463   0.19032   0.00000  Uiso   1.00
H591   H     0.83539   0.67772   0.17874   0.00000  Uiso   1.00
H592   H     0.86020   0.67987   0.25195   0.00000  Uiso   1.00
O593   O     0.60911   0.73799   0.13440   0.00000  Uiso   1.00
C594   C     0.63930   0.73537   0.09087   0.00000  Uiso   1.00
H595   H     0.67077   0.74445   0.11513   0.00000  Uiso   1.00
H596   H     0.63136   0.75971   0.05959   0.00000  Uiso   1.00
C597   C     0.64504   0.68221   0.05432   0.00000  Uiso   1.00
H598   H     0.61957   0.66777   0.01959   0.00000  Uiso   1.00
H599   H     0.67411   0.68307   0.02939   0.00000  Uiso   1.00
H600   H     0.64730   0.98905   0.08351   0.00000  Uiso   1.00
O601   O     0.88005   0.74500   0.12674   0.00000  Uiso   1.00
C602   C     0.87102   0.73736   0.06500   0.00000  Uiso   1.00
H603   H     0.89725   0.71747   0.04209   0.00000  Uiso   1.00
H604   H     0.86712   0.77290   0.04952   0.00000  Uiso   1.00
C605   C     0.83054   0.70422   0.04714   0.00000  Uiso   1.00
H606   H     0.80358   0.72836   0.04094   0.00000  Uiso   1.00
H607   H     0.83400   0.67449   0.00603   0.00000  Uiso   1.00
H608   H     0.82335   0.68487   0.08240   0.00000  Uiso   1.00
O609   O     0.61696   0.91850   0.16901   0.00000  Uiso   1.00
C610   C     0.63931   0.94492   0.22228   0.00000  Uiso   1.00
H611   H     0.66694   0.92433   0.23521   0.00000  Uiso   1.00
H612   H     0.61818   0.95321   0.25973   0.00000  Uiso   1.00
C613   C     0.65669   0.99323   0.21004   0.00000  Uiso   1.00
H614   H     0.63053   0.68081   0.19486   0.00000  Uiso   1.00
H615   H     0.67520   0.68330   0.24960   0.00000  Uiso   1.00
H616   H     0.67597   0.98322   0.17167   0.00000  Uiso   1.00
O617   O     0.94690   0.69735   0.14028   0.00000  Uiso   1.00
C618   C     0.94910   0.99052   0.08965   0.00000  Uiso   1.00
H619   H     0.97626   0.96746   0.09677   0.00000  Uiso   1.00
H620   H     0.94993   0.67243   0.05073   0.00000  Uiso   1.00
C621   C     0.91034   0.95359   0.07687   0.00000  Uiso   1.00
H622   H     0.88055   0.97321   0.08721   0.00000  Uiso   1.00
H623   H     0.90751   0.93336   0.02911   0.00000  Uiso   1.00
H624   H     0.91461   0.92443   0.10221   0.00000  Uiso   1.00
O625   O     0.55375   0.97075   0.20132   0.00000  Uiso   1.00
C626   C     0.54363   0.67826   0.24749   0.00000  Uiso   1.00
H627   H     0.53804   0.99773   0.28652   0.00000  Uiso   1.00
H628   H     0.51747   0.69687   0.22973   0.00000  Uiso   1.00
C629   C     0.57748   0.72142   0.26853   0.00000  Uiso   1.00
H630   H     0.58463   0.73973   0.23287   0.00000  Uiso   1.00
H631   H     0.56473   0.75094   0.30429   0.00000  Uiso   1.00
H632   H     0.60724   0.70914   0.28727   0.00000  Uiso   1.00
O633   O     0.53638   0.69383   0.12683   0.00000  Uiso   1.00
C634   C     0.54217   0.67600   0.06600   0.00000  Uiso   1.00
H635   H     0.56392   0.70130   0.05021   0.00000  Uiso   1.00
H636   H     0.51372   0.67962   0.03935   0.00000  Uiso   1.00
C637   C     0.55502   0.95379   0.05216   0.00000  Uiso   1.00
H638   H     0.52853   0.92741   0.05710   0.00000  Uiso   1.00
H639   H     0.56410   0.94139   0.00569   0.00000  Uiso   1.00
H640   H     0.58248   0.94921   0.08270   0.00000  Uiso   1.00
O641   O     0.95978   0.97179   0.21204   0.00000  Uiso   1.00
C642   C     0.95372   0.99229   0.27325   0.00000  Uiso   1.00
H643   H     0.97595   0.97615   0.30131   0.00000  Uiso   1.00
H644   H     0.92292   0.98110   0.28754   0.00000  Uiso   1.00
C645   C     0.95332   0.71766   0.28852   0.00000  Uiso   1.00
H646   H     0.96233   0.73470   0.25217   0.00000  Uiso   1.00
H647   H     0.92042   0.73083   0.29563   0.00000  Uiso   1.00
H648   H     0.97458   0.73459   0.32901   0.00000  Uiso   1.00
C649   C     0.74067   0.98265   0.07833   0.00000  Uiso   1.00
H650   H     0.75648   0.99475   0.04410   0.00000  Uiso   1.00
O651   O     0.71263   0.94900   0.06175   0.00000  Uiso   1.00
C652   C     0.76217   0.68314   0.25267   0.00000  Uiso   1.00
H653   H     0.74346   0.67279   0.28599   0.00000  Uiso   1.00
O654   O     0.79112   0.71564   0.26863   0.00000  Uiso   1.00
C655   C     0.69398   0.81376   0.32393   0.00000  Uiso   1.00
H656   H     0.67561   0.84728   0.32499   0.00000  Uiso   1.00
O657   O     0.67648   0.77183   0.30557   0.00000  Uiso   1.00
C658   C     0.80503   0.85935   0.01244   0.00000  Uiso   1.00
H659   H     0.82688   0.82919   0.01279   0.00000  Uiso   1.00
O660   O     0.81804   0.90348   0.03000   0.00000  Uiso   1.00
C661   C     0.25009   0.06713   0.48454   0.00000  Uiso   1.00
C662   C     0.25066   0.26601   0.51509   0.00000  Uiso   1.00
C663   C     0.01725   0.07335   0.46923   0.00000  Uiso   1.00
C664   C     0.48131   0.25978   0.53585   0.00000  Uiso   1.00
C665   C     0.24932   0.01115   0.47558   0.00000  Uiso   1.00
C666   C     0.25430   0.32148   0.52272   0.00000  Uiso   1.00
C667   C     0.16456   0.16638   0.50072   0.00000  Uiso   1.00
C668   C     0.33526   0.16541   0.49901   0.00000  Uiso   1.00
C669   C     0.40943   0.21232   0.52080   0.00000  Uiso   1.00
C670   C     0.08994   0.11831   0.48203   0.00000  Uiso   1.00
C671   C     0.38407   0.16709   0.49812   0.00000  Uiso   1.00
C672   C     0.11551   0.16455   0.50057   0.00000  Uiso   1.00
C673   C     0.40534   0.12204   0.47986   0.00000  Uiso   1.00
C674   C     0.09409   0.21053   0.51084   0.00000  Uiso   1.00
C675   C     0.45129   0.12083   0.48370   0.00000  Uiso   1.00
C676   C     0.04815   0.21235   0.51391   0.00000  Uiso   1.00
C677   C     0.47677   0.16686   0.50073   0.00000  Uiso   1.00
C678   C     0.02286   0.16617   0.50004   0.00000  Uiso   1.00
C679   C     0.45585   0.21319   0.51974   0.00000  Uiso   1.00
C680   C     0.04352   0.11914   0.48319   0.00000  Uiso   1.00
C681   C     0.47161   0.07404   0.47139   0.00000  Uiso   1.00
C682   C     0.02755   0.25972   0.52999   0.00000  Uiso   1.00
Cu683  Cu    0.25500   0.17246   0.56146   0.00000  Uiso   1.00
Cu684  Cu    0.24499   0.16087   0.43854   0.00000  Uiso   1.00
N685   N     0.23744   0.15214   0.34617   0.00000  Uiso   1.00
N686   N     0.26255   0.18119   0.65383   0.00000  Uiso   1.00
O687   O     0.25325   0.09538   0.53992   0.00000  Uiso   1.00
O688   O     0.24674   0.23796   0.46008   0.00000  Uiso   1.00
O689   O     0.24480   0.08559   0.43612   0.00000  Uiso   1.00
O690   O     0.25520   0.24774   0.56388   0.00000  Uiso   1.00
O691   O     0.18935   0.17155   0.55191   0.00000  Uiso   1.00
O692   O     0.31064   0.16179   0.44809   0.00000  Uiso   1.00
O693   O     0.18090   0.16176   0.44810   0.00000  Uiso   1.00
O694   O     0.31910   0.17157   0.55190   0.00000  Uiso   1.00
O695   O     0.39061   0.25344   0.55485   0.00000  Uiso   1.00
C696   C     0.35621   0.27219   0.52541   0.00000  Uiso   1.00
H697   H     0.32762   0.26404   0.54677   0.00000  Uiso   1.00
H698   H     0.35129   0.25528   0.47692   0.00000  Uiso   1.00
C699   C     0.36094   0.32945   0.53732   0.00000  Uiso   1.00
H700   H     0.39150   0.00797   0.52366   0.00000  Uiso   1.00
H701   H     0.33539   0.01105   0.51207   0.00000  Uiso   1.00
H702   H     0.36020   0.01321   0.58528   0.00000  Uiso   1.00
O703   O     0.10911   0.07133   0.46774   0.00000  Uiso   1.00
C704   C     0.13930   0.06870   0.42421   0.00000  Uiso   1.00
H705   H     0.17077   0.07778   0.44846   0.00000  Uiso   1.00
H706   H     0.13136   0.09305   0.39293   0.00000  Uiso   1.00
C707   C     0.14504   0.01554   0.38765   0.00000  Uiso   1.00
H708   H     0.11957   0.00110   0.35292   0.00000  Uiso   1.00
H709   H     0.17411   0.01641   0.36273   0.00000  Uiso   1.00
H710   H     0.14730   0.32238   0.41685   0.00000  Uiso   1.00
O711   O     0.38005   0.07833   0.46007   0.00000  Uiso   1.00
C712   C     0.37102   0.07069   0.39833   0.00000  Uiso   1.00
H713   H     0.39725   0.05080   0.37543   0.00000  Uiso   1.00
H714   H     0.36712   0.10624   0.38286   0.00000  Uiso   1.00
C715   C     0.33054   0.03756   0.38047   0.00000  Uiso   1.00
H716   H     0.30358   0.06170   0.37427   0.00000  Uiso   1.00
H717   H     0.33400   0.00782   0.33936   0.00000  Uiso   1.00
H718   H     0.32335   0.01821   0.41573   0.00000  Uiso   1.00
O719   O     0.11696   0.25183   0.50235   0.00000  Uiso   1.00
C720   C     0.13931   0.27825   0.55561   0.00000  Uiso   1.00
H721   H     0.16694   0.25766   0.56854   0.00000  Uiso   1.00
H722   H     0.11818   0.28655   0.59306   0.00000  Uiso   1.00
C723   C     0.15669   0.32657   0.54338   0.00000  Uiso   1.00
H724   H     0.13053   0.01415   0.52819   0.00000  Uiso   1.00
H725   H     0.17520   0.01663   0.58293   0.00000  Uiso   1.00
H726   H     0.17597   0.31656   0.50500   0.00000  Uiso   1.00
O727   O     0.44690   0.03069   0.47362   0.00000  Uiso   1.00
C728   C     0.44910   0.32386   0.42299   0.00000  Uiso   1.00
H729   H     0.47626   0.30079   0.43010   0.00000  Uiso   1.00
H730   H     0.44993   0.00576   0.38406   0.00000  Uiso   1.00
C731   C     0.41034   0.28693   0.41020   0.00000  Uiso   1.00
H732   H     0.38055   0.30655   0.42054   0.00000  Uiso   1.00
H733   H     0.40751   0.26669   0.36245   0.00000  Uiso   1.00
H734   H     0.41461   0.25777   0.43554   0.00000  Uiso   1.00
O735   O     0.05375   0.30409   0.53465   0.00000  Uiso   1.00
C736   C     0.04363   0.01159   0.58083   0.00000  Uiso   1.00
H737   H     0.03804   0.33106   0.61985   0.00000  Uiso   1.00
H738   H     0.01747   0.03021   0.56306   0.00000  Uiso   1.00
C739   C     0.07748   0.05475   0.60186   0.00000  Uiso   1.00
H740   H     0.08463   0.07307   0.56621   0.00000  Uiso   1.00
H741   H     0.06473   0.08428   0.63762   0.00000  Uiso   1.00
H742   H     0.10724   0.04248   0.62060   0.00000  Uiso   1.00
O743   O     0.03638   0.02716   0.46016   0.00000  Uiso   1.00
C744   C     0.04217   0.00933   0.39933   0.00000  Uiso   1.00
H745   H     0.06392   0.03463   0.38354   0.00000  Uiso   1.00
H746   H     0.01372   0.01295   0.37268   0.00000  Uiso   1.00
C747   C     0.05502   0.28712   0.38549   0.00000  Uiso   1.00
H748   H     0.02853   0.26074   0.39043   0.00000  Uiso   1.00
H749   H     0.06410   0.27473   0.33902   0.00000  Uiso   1.00
H750   H     0.08248   0.28255   0.41604   0.00000  Uiso   1.00
O751   O     0.45978   0.30513   0.54538   0.00000  Uiso   1.00
C752   C     0.45372   0.32562   0.60659   0.00000  Uiso   1.00
H753   H     0.47595   0.30948   0.63464   0.00000  Uiso   1.00
H754   H     0.42292   0.31443   0.62087   0.00000  Uiso   1.00
C755   C     0.45332   0.05099   0.62185   0.00000  Uiso   1.00
H756   H     0.46233   0.06803   0.58550   0.00000  Uiso   1.00
H757   H     0.42042   0.06416   0.62896   0.00000  Uiso   1.00
H758   H     0.47458   0.06793   0.66234   0.00000  Uiso   1.00
C759   C     0.24067   0.31599   0.41167   0.00000  Uiso   1.00
H760   H     0.25648   0.32809   0.37743   0.00000  Uiso   1.00
O761   O     0.21263   0.28233   0.39509   0.00000  Uiso   1.00
C762   C     0.26217   0.01648   0.58600   0.00000  Uiso   1.00
H763   H     0.24346   0.00612   0.61932   0.00000  Uiso   1.00
O764   O     0.29112   0.04897   0.60197   0.00000  Uiso   1.00
C765   C     0.19398   0.14710   0.65726   0.00000  Uiso   1.00
H766   H     0.17561   0.18062   0.65832   0.00000  Uiso   1.00
O767   O     0.17648   0.10516   0.63890   0.00000  Uiso   1.00
C768   C     0.30503   0.19268   0.34578   0.00000  Uiso   1.00
H769   H     0.32688   0.16252   0.34612   0.00000  Uiso   1.00
O770   O     0.31804   0.23682   0.36333   0.00000  Uiso   1.00
C771   C     0.75009   0.06713   0.48454   0.00000  Uiso   1.00
C772   C     0.75066   0.26601   0.51509   0.00000  Uiso   1.00
C773   C     0.51725   0.07335   0.46923   0.00000  Uiso   1.00
C774   C     0.98131   0.25978   0.53585   0.00000  Uiso   1.00
C775   C     0.74932   0.01115   0.47558   0.00000  Uiso   1.00
C776   C     0.75430   0.32148   0.52272   0.00000  Uiso   1.00
C777   C     0.66456   0.16638   0.50072   0.00000  Uiso   1.00
C778   C     0.83526   0.16541   0.49901   0.00000  Uiso   1.00
C779   C     0.90943   0.21232   0.52080   0.00000  Uiso   1.00
C780   C     0.58994   0.11831   0.48203   0.00000  Uiso   1.00
C781   C     0.88407   0.16709   0.49812   0.00000  Uiso   1.00
C782   C     0.61551   0.16455   0.50057   0.00000  Uiso   1.00
C783   C     0.90534   0.12204   0.47986   0.00000  Uiso   1.00
C784   C     0.59409   0.21053   0.51084   0.00000  Uiso   1.00
C785   C     0.95129   0.12083   0.48370   0.00000  Uiso   1.00
C786   C     0.54815   0.21235   0.51391   0.00000  Uiso   1.00
C787   C     0.97677   0.16686   0.50073   0.00000  Uiso   1.00
C788   C     0.52286   0.16617   0.50004   0.00000  Uiso   1.00
C789   C     0.95585   0.21319   0.51974   0.00000  Uiso   1.00
C790   C     0.54352   0.11914   0.48319   0.00000  Uiso   1.00
C791   C     0.97161   0.07404   0.47139   0.00000  Uiso   1.00
C792   C     0.52755   0.25972   0.52999   0.00000  Uiso   1.00
Cu793  Cu    0.75500   0.17246   0.56146   0.00000  Uiso   1.00
Cu794  Cu    0.74499   0.16087   0.43854   0.00000  Uiso   1.00
N795   N     0.73744   0.15214   0.34617   0.00000  Uiso   1.00
N796   N     0.76255   0.18119   0.65383   0.00000  Uiso   1.00
O797   O     0.75325   0.09538   0.53992   0.00000  Uiso   1.00
O798   O     0.74674   0.23796   0.46008   0.00000  Uiso   1.00
O799   O     0.74480   0.08559   0.43612   0.00000  Uiso   1.00
O800   O     0.75520   0.24774   0.56388   0.00000  Uiso   1.00
O801   O     0.68935   0.17155   0.55191   0.00000  Uiso   1.00
O802   O     0.81064   0.16179   0.44809   0.00000  Uiso   1.00
O803   O     0.68090   0.16176   0.44810   0.00000  Uiso   1.00
O804   O     0.81910   0.17157   0.55190   0.00000  Uiso   1.00
O805   O     0.89061   0.25344   0.55485   0.00000  Uiso   1.00
C806   C     0.85621   0.27219   0.52541   0.00000  Uiso   1.00
H807   H     0.82762   0.26404   0.54677   0.00000  Uiso   1.00
H808   H     0.85129   0.25528   0.47692   0.00000  Uiso   1.00
C809   C     0.86094   0.32945   0.53732   0.00000  Uiso   1.00
H810   H     0.89150   0.00797   0.52366   0.00000  Uiso   1.00
H811   H     0.83539   0.01105   0.51207   0.00000  Uiso   1.00
H812   H     0.86020   0.01321   0.58528   0.00000  Uiso   1.00
O813   O     0.60911   0.07133   0.46774   0.00000  Uiso   1.00
C814   C     0.63930   0.06870   0.42421   0.00000  Uiso   1.00
H815   H     0.67077   0.07778   0.44846   0.00000  Uiso   1.00
H816   H     0.63136   0.09305   0.39293   0.00000  Uiso   1.00
C817   C     0.64504   0.01554   0.38765   0.00000  Uiso   1.00
H818   H     0.61957   0.00110   0.35292   0.00000  Uiso   1.00
H819   H     0.67411   0.01641   0.36273   0.00000  Uiso   1.00
H820   H     0.64730   0.32238   0.41685   0.00000  Uiso   1.00
O821   O     0.88005   0.07833   0.46007   0.00000  Uiso   1.00
C822   C     0.87102   0.07069   0.39833   0.00000  Uiso   1.00
H823   H     0.89725   0.05080   0.37543   0.00000  Uiso   1.00
H824   H     0.86712   0.10624   0.38286   0.00000  Uiso   1.00
C825   C     0.83054   0.03756   0.38047   0.00000  Uiso   1.00
H826   H     0.80358   0.06170   0.37427   0.00000  Uiso   1.00
H827   H     0.83400   0.00782   0.33936   0.00000  Uiso   1.00
H828   H     0.82335   0.01821   0.41573   0.00000  Uiso   1.00
O829   O     0.61696   0.25183   0.50235   0.00000  Uiso   1.00
C830   C     0.63931   0.27825   0.55561   0.00000  Uiso   1.00
H831   H     0.66694   0.25766   0.56854   0.00000  Uiso   1.00
H832   H     0.61818   0.28655   0.59306   0.00000  Uiso   1.00
C833   C     0.65669   0.32657   0.54338   0.00000  Uiso   1.00
H834   H     0.63053   0.01415   0.52819   0.00000  Uiso   1.00
H835   H     0.67520   0.01663   0.58293   0.00000  Uiso   1.00
H836   H     0.67597   0.31656   0.50500   0.00000  Uiso   1.00
O837   O     0.94690   0.03069   0.47362   0.00000  Uiso   1.00
C838   C     0.94910   0.32386   0.42299   0.00000  Uiso   1.00
H839   H     0.97626   0.30079   0.43010   0.00000  Uiso   1.00
H840   H     0.94993   0.00576   0.38406   0.00000  Uiso   1.00
C841   C     0.91034   0.28693   0.41020   0.00000  Uiso   1.00
H842   H     0.88055   0.30655   0.42054   0.00000  Uiso   1.00
H843   H     0.90751   0.26669   0.36245   0.00000  Uiso   1.00
H844   H     0.91461   0.25777   0.43554   0.00000  Uiso   1.00
O845   O     0.55375   0.30409   0.53465   0.00000  Uiso   1.00
C846   C     0.54363   0.01159   0.58083   0.00000  Uiso   1.00
H847   H     0.53804   0.33106   0.61985   0.00000  Uiso   1.00
H848   H     0.51747   0.03021   0.56306   0.00000  Uiso   1.00
C849   C     0.57748   0.05475   0.60186   0.00000  Uiso   1.00
H850   H     0.58463   0.07307   0.56621   0.00000  Uiso   1.00
H851   H     0.56473   0.08428   0.63762   0.00000  Uiso   1.00
H852   H     0.60724   0.04248   0.62060   0.00000  Uiso   1.00
O853   O     0.53638   0.02716   0.46016   0.00000  Uiso   1.00
C854   C     0.54217   0.00933   0.39933   0.00000  Uiso   1.00
H855   H     0.56392   0.03463   0.38354   0.00000  Uiso   1.00
H856   H     0.51372   0.01295   0.37268   0.00000  Uiso   1.00
C857   C     0.55502   0.28712   0.38549   0.00000  Uiso   1.00
H858   H     0.52853   0.26074   0.39043   0.00000  Uiso   1.00
H859   H     0.56410   0.27473   0.33902   0.00000  Uiso   1.00
H860   H     0.58248   0.28255   0.41604   0.00000  Uiso   1.00
O861   O     0.95978   0.30513   0.54538   0.00000  Uiso   1.00
C862   C     0.95372   0.32562   0.60659   0.00000  Uiso   1.00
H863   H     0.97595   0.30948   0.63464   0.00000  Uiso   1.00
H864   H     0.92292   0.31443   0.62087   0.00000  Uiso   1.00
C865   C     0.95332   0.05099   0.62185   0.00000  Uiso   1.00
H866   H     0.96233   0.06803   0.58550   0.00000  Uiso   1.00
H867   H     0.92042   0.06416   0.62896   0.00000  Uiso   1.00
H868   H     0.97458   0.06793   0.66234   0.00000  Uiso   1.00
C869   C     0.74067   0.31599   0.41167   0.00000  Uiso   1.00
H870   H     0.75648   0.32809   0.37743   0.00000  Uiso   1.00
O871   O     0.71263   0.28233   0.39509   0.00000  Uiso   1.00
C872   C     0.76217   0.01648   0.58600   0.00000  Uiso   1.00
H873   H     0.74346   0.00612   0.61932   0.00000  Uiso   1.00
O874   O     0.79112   0.04897   0.60197   0.00000  Uiso   1.00
C875   C     0.69398   0.14710   0.65726   0.00000  Uiso   1.00
H876   H     0.67561   0.18062   0.65832   0.00000  Uiso   1.00
O877   O     0.67648   0.10516   0.63890   0.00000  Uiso   1.00
C878   C     0.80503   0.19268   0.34578   0.00000  Uiso   1.00
H879   H     0.82688   0.16252   0.34612   0.00000  Uiso   1.00
O880   O     0.81804   0.23682   0.36333   0.00000  Uiso   1.00
C881   C     0.25009   0.40046   0.48454   0.00000  Uiso   1.00
C882   C     0.25066   0.59935   0.51509   0.00000  Uiso   1.00
C883   C     0.01725   0.40668   0.46923   0.00000  Uiso   1.00
C884   C     0.48131   0.59311   0.53585   0.00000  Uiso   1.00
C885   C     0.24932   0.34448   0.47558   0.00000  Uiso   1.00
C886   C     0.25430   0.65481   0.52272   0.00000  Uiso   1.00
C887   C     0.16456   0.49972   0.50072   0.00000  Uiso   1.00
C888   C     0.33526   0.49874   0.49901   0.00000  Uiso   1.00
C889   C     0.40943   0.54566   0.52080   0.00000  Uiso   1.00
C890   C     0.08994   0.45164   0.48203   0.00000  Uiso   1.00
C891   C     0.38407   0.50042   0.49812   0.00000  Uiso   1.00
C892   C     0.11551   0.49789   0.50057   0.00000  Uiso   1.00
C893   C     0.40534   0.45538   0.47986   0.00000  Uiso   1.00
C894   C     0.09409   0.54386   0.51084   0.00000  Uiso   1.00
C895   C     0.45129   0.45417   0.48370   0.00000  Uiso   1.00
C896   C     0.04815   0.54568   0.51391   0.00000  Uiso   1.00
C897   C     0.47677   0.50019   0.50073   0.00000  Uiso   1.00
C898   C     0.02286   0.49950   0.50004   0.00000  Uiso   1.00
C899   C     0.45585   0.54653   0.51974   0.00000  Uiso   1.00
C900   C     0.04352   0.45248   0.48319   0.00000  Uiso   1.00
C901   C     0.47161   0.40737   0.47139   0.00000  Uiso   1.00
C902   C     0.02755   0.59305   0.52999   0.00000  Uiso   1.00
Cu903  Cu    0.25500   0.50579   0.56146   0.00000  Uiso   1.00
Cu904  Cu    0.24499   0.49421   0.43854   0.00000  Uiso   1.00
N905   N     0.23744   0.48547   0.34617   0.00000  Uiso   1.00
N906   N     0.26255   0.51453   0.65383   0.00000  Uiso   1.00
O907   O     0.25325   0.42871   0.53992   0.00000  Uiso   1.00
O908   O     0.24674   0.57129   0.46008   0.00000  Uiso   1.00
O909   O     0.24480   0.41892   0.43612   0.00000  Uiso   1.00
O910   O     0.25520   0.58108   0.56388   0.00000  Uiso   1.00
O911   O     0.18935   0.50488   0.55191   0.00000  Uiso   1.00
O912   O     0.31064   0.49512   0.44809   0.00000  Uiso   1.00
O913   O     0.18090   0.49510   0.44810   0.00000  Uiso   1.00
O914   O     0.31910   0.50490   0.55190   0.00000  Uiso   1.00
O915   O     0.39061   0.58677   0.55485   0.00000  Uiso   1.00
C916   C     0.35621   0.60553   0.52541   0.00000  Uiso   1.00
H917   H     0.32762   0.59738   0.54677   0.00000  Uiso   1.00
H918   H     0.35129   0.58861   0.47692   0.00000  Uiso   1.00
C919   C     0.36094   0.66278   0.53732   0.00000  Uiso   1.00
H920   H     0.39150   0.34130   0.52366   0.00000  Uiso   1.00
H921   H     0.33539   0.34438   0.51207   0.00000  Uiso   1.00
H922   H     0.36020   0.34654   0.58528   0.00000  Uiso   1.00
O923   O     0.10911   0.40466   0.46774   0.00000  Uiso   1.00
C924   C     0.13930   0.40204   0.42421   0.00000  Uiso   1.00
H925   H     0.17077   0.41112   0.44846   0.00000  Uiso   1.00
H926   H     0.13136   0.42638   0.39293   0.00000  Uiso   1.00
C927   C     0.14504   0.34887   0.38765   0.00000  Uiso   1.00
H928   H     0.11957   0.33444   0.35292   0.00000  Uiso   1.00
H929   H     0.17411   0.34974   0.36273   0.00000  Uiso   1.00
H930   H     0.14730   0.65571   0.41685   0.00000  Uiso   1.00
O931   O     0.38005   0.41166   0.46007   0.00000  Uiso   1.00
C932   C     0.37102   0.40403   0.39833   0.00000  Uiso   1.00
H933   H     0.39725   0.38414   0.37543   0.00000  Uiso   1.00
H934   H     0.36712   0.43957   0.38286   0.00000  Uiso   1.00
C935   C     0.33054   0.37089   0.38047   0.00000  Uiso   1.00
H936   H     0.30358   0.39503   0.37427   0.00000  Uiso   1.00
H937   H     0.33400   0.34115   0.33936   0.00000  Uiso   1.00
H938   H     0.32335   0.35154   0.41573   0.00000  Uiso   1.00
O939   O     0.11696   0.58517   0.50235   0.00000  Uiso   1.00
C940   C     0.13931   0.61158   0.55561   0.00000  Uiso   1.00
H941   H     0.16694   0.59100   0.56854   0.00000  Uiso   1.00
H942   H     0.11818   0.61988   0.59306   0.00000  Uiso   1.00
C943   C     0.15669   0.65990   0.54338   0.00000  Uiso   1.00
H944   H     0.13053   0.34748   0.52819   0.00000  Uiso   1.00
H945   H     0.17520   0.34997   0.58293   0.00000  Uiso   1.00
H946   H     0.17597   0.64989   0.50500   0.00000  Uiso   1.00
O947   O     0.44690   0.36402   0.47362   0.00000  Uiso   1.00
C948   C     0.44910   0.65719   0.42299   0.00000  Uiso   1.00
H949   H     0.47626   0.63413   0.43010   0.00000  Uiso   1.00
H950   H     0.44993   0.33910   0.38406   0.00000  Uiso   1.00
C951   C     0.41034   0.62026   0.41020   0.00000  Uiso   1.00
H952   H     0.38055   0.63988   0.42054   0.00000  Uiso   1.00
H953   H     0.40751   0.60003   0.36245   0.00000  Uiso   1.00
H954   H     0.41461   0.59110   0.43554   0.00000  Uiso   1.00
O955   O     0.05375   0.63742   0.53465   0.00000  Uiso   1.00
C956   C     0.04363   0.34493   0.58083   0.00000  Uiso   1.00
H957   H     0.03804   0.66439   0.61985   0.00000  Uiso   1.00
H958   H     0.01747   0.36354   0.56306   0.00000  Uiso   1.00
C959   C     0.07748   0.38808   0.60186   0.00000  Uiso   1.00
H960   H     0.08463   0.40640   0.56621   0.00000  Uiso   1.00
H961   H     0.06473   0.41761   0.63762   0.00000  Uiso   1.00
H962   H     0.10724   0.37581   0.62060   0.00000  Uiso   1.00
O963   O     0.03638   0.36049   0.46016   0.00000  Uiso   1.00
C964   C     0.04217   0.34267   0.39933   0.00000  Uiso   1.00
H965   H     0.06392   0.36797   0.38354   0.00000  Uiso   1.00
H966   H     0.01372   0.34629   0.37268   0.00000  Uiso   1.00
C967   C     0.05502   0.62046   0.38549   0.00000  Uiso   1.00
H968   H     0.02853   0.59408   0.39043   0.00000  Uiso   1.00
H969   H     0.06410   0.60806   0.33902   0.00000  Uiso   1.00
H970   H     0.08248   0.61588   0.41604   0.00000  Uiso   1.00
O971   O     0.45978   0.63846   0.54538   0.00000  Uiso   1.00
C972   C     0.45372   0.65895   0.60659   0.00000  Uiso   1.00
H973   H     0.47595   0.64282   0.63464   0.00000  Uiso   1.00
H974   H     0.42292   0.64776   0.62087   0.00000  Uiso   1.00
C975   C     0.45332   0.38432   0.62185   0.00000  Uiso   1.00
H976   H     0.46233   0.40136   0.58550   0.00000  Uiso   1.00
H977   H     0.42042   0.39749   0.62896   0.00000  Uiso   1.00
H978   H     0.47458   0.40126   0.66234   0.00000  Uiso   1.00
C979   C     0.24067   0.64932   0.41167   0.00000  Uiso   1.00
H980   H     0.25648   0.66142   0.37743   0.00000  Uiso   1.00
O981   O     0.21263   0.61567   0.39509   0.00000  Uiso   1.00
C982   C     0.26217   0.34981   0.58600   0.00000  Uiso   1.00
H983   H     0.24346   0.33945   0.61932   0.00000  Uiso   1.00
O984   O     0.29112   0.38231   0.60197   0.00000  Uiso   1.00
C985   C     0.19398   0.48043   0.65726   0.00000  Uiso   1.00
H986   H     0.17561   0.51395   0.65832   0.00000  Uiso   1.00
O987   O     0.17648   0.43849   0.63890   0.00000  Uiso   1.00
C988   C     0.30503   0.52602   0.34578   0.00000  Uiso   1.00
H989   H     0.32688   0.49585   0.34612   0.00000  Uiso   1.00
O990   O     0.31804   0.57015   0.36333   0.00000  Uiso   1.00
C991   C     0.75009   0.40046   0.48454   0.00000  Uiso   1.00
C992   C     0.75066   0.59935   0.51509   0.00000  Uiso   1.00
C993   C     0.51725   0.40668   0.46923   0.00000  Uiso   1.00
C994   C     0.98131   0.59311   0.53585   0.00000  Uiso   1.00
C995   C     0.74932   0.34448   0.47558   0.00000  Uiso   1.00
C996   C     0.75430   0.65481   0.52272   0.00000  Uiso   1.00
C997   C     0.66456   0.49972   0.50072   0.00000  Uiso   1.00
C998   C     0.83526   0.49874   0.49901   0.00000  Uiso   1.00
C999   C     0.90943   0.54566   0.52080   0.00000  Uiso   1.00
C1000  C     0.58994   0.45164   0.48203   0.00000  Uiso   1.00
C1001  C     0.88407   0.50042   0.49812   0.00000  Uiso   1.00
C1002  C     0.61551   0.49789   0.50057   0.00000  Uiso   1.00
C1003  C     0.90534   0.45538   0.47986   0.00000  Uiso   1.00
C1004  C     0.59409   0.54386   0.51084   0.00000  Uiso   1.00
C1005  C     0.95129   0.45417   0.48370   0.00000  Uiso   1.00
C1006  C     0.54815   0.54568   0.51391   0.00000  Uiso   1.00
C1007  C     0.97677   0.50019   0.50073   0.00000  Uiso   1.00
C1008  C     0.52286   0.49950   0.50004   0.00000  Uiso   1.00
C1009  C     0.95585   0.54653   0.51974   0.00000  Uiso   1.00
C1010  C     0.54352   0.45248   0.48319   0.00000  Uiso   1.00
C1011  C     0.97161   0.40737   0.47139   0.00000  Uiso   1.00
C1012  C     0.52755   0.59305   0.52999   0.00000  Uiso   1.00
Cu1013 Cu    0.75500   0.50579   0.56146   0.00000  Uiso   1.00
Cu1014 Cu    0.74499   0.49421   0.43854   0.00000  Uiso   1.00
N1015  N     0.73744   0.48547   0.34617   0.00000  Uiso   1.00
N1016  N     0.76255   0.51453   0.65383   0.00000  Uiso   1.00
O1017  O     0.75325   0.42871   0.53992   0.00000  Uiso   1.00
O1018  O     0.74674   0.57129   0.46008   0.00000  Uiso   1.00
O1019  O     0.74480   0.41892   0.43612   0.00000  Uiso   1.00
O1020  O     0.75520   0.58108   0.56388   0.00000  Uiso   1.00
O1021  O     0.68935   0.50488   0.55191   0.00000  Uiso   1.00
O1022  O     0.81064   0.49512   0.44809   0.00000  Uiso   1.00
O1023  O     0.68090   0.49510   0.44810   0.00000  Uiso   1.00
O1024  O     0.81910   0.50490   0.55190   0.00000  Uiso   1.00
O1025  O     0.89061   0.58677   0.55485   0.00000  Uiso   1.00
C1026  C     0.85621   0.60553   0.52541   0.00000  Uiso   1.00
H1027  H     0.82762   0.59738   0.54677   0.00000  Uiso   1.00
H1028  H     0.85129   0.58861   0.47692   0.00000  Uiso   1.00
C1029  C     0.86094   0.66278   0.53732   0.00000  Uiso   1.00
H1030  H     0.89150   0.34130   0.52366   0.00000  Uiso   1.00
H1031  H     0.83539   0.34438   0.51207   0.00000  Uiso   1.00
H1032  H     0.86020   0.34654   0.58528   0.00000  Uiso   1.00
O1033  O     0.60911   0.40466   0.46774   0.00000  Uiso   1.00
C1034  C     0.63930   0.40204   0.42421   0.00000  Uiso   1.00
H1035  H     0.67077   0.41112   0.44846   0.00000  Uiso   1.00
H1036  H     0.63136   0.42638   0.39293   0.00000  Uiso   1.00
C1037  C     0.64504   0.34887   0.38765   0.00000  Uiso   1.00
H1038  H     0.61957   0.33444   0.35292   0.00000  Uiso   1.00
H1039  H     0.67411   0.34974   0.36273   0.00000  Uiso   1.00
H1040  H     0.64730   0.65571   0.41685   0.00000  Uiso   1.00
O1041  O     0.88005   0.41166   0.46007   0.00000  Uiso   1.00
C1042  C     0.87102   0.40403   0.39833   0.00000  Uiso   1.00
H1043  H     0.89725   0.38414   0.37543   0.00000  Uiso   1.00
H1044  H     0.86712   0.43957   0.38286   0.00000  Uiso   1.00
C1045  C     0.83054   0.37089   0.38047   0.00000  Uiso   1.00
H1046  H     0.80358   0.39503   0.37427   0.00000  Uiso   1.00
H1047  H     0.83400   0.34115   0.33936   0.00000  Uiso   1.00
H1048  H     0.82335   0.35154   0.41573   0.00000  Uiso   1.00
O1049  O     0.61696   0.58517   0.50235   0.00000  Uiso   1.00
C1050  C     0.63931   0.61158   0.55561   0.00000  Uiso   1.00
H1051  H     0.66694   0.59100   0.56854   0.00000  Uiso   1.00
H1052  H     0.61818   0.61988   0.59306   0.00000  Uiso   1.00
C1053  C     0.65669   0.65990   0.54338   0.00000  Uiso   1.00
H1054  H     0.63053   0.34748   0.52819   0.00000  Uiso   1.00
H1055  H     0.67520   0.34997   0.58293   0.00000  Uiso   1.00
H1056  H     0.67597   0.64989   0.50500   0.00000  Uiso   1.00
O1057  O     0.94690   0.36402   0.47362   0.00000  Uiso   1.00
C1058  C     0.94910   0.65719   0.42299   0.00000  Uiso   1.00
H1059  H     0.97626   0.63413   0.43010   0.00000  Uiso   1.00
H1060  H     0.94993   0.33910   0.38406   0.00000  Uiso   1.00
C1061  C     0.91034   0.62026   0.41020   0.00000  Uiso   1.00
H1062  H     0.88055   0.63988   0.42054   0.00000  Uiso   1.00
H1063  H     0.90751   0.60003   0.36245   0.00000  Uiso   1.00
H1064  H     0.91461   0.59110   0.43554   0.00000  Uiso   1.00
O1065  O     0.55375   0.63742   0.53465   0.00000  Uiso   1.00
C1066  C     0.54363   0.34493   0.58083   0.00000  Uiso   1.00
H1067  H     0.53804   0.66439   0.61985   0.00000  Uiso   1.00
H1068  H     0.51747   0.36354   0.56306   0.00000  Uiso   1.00
C1069  C     0.57748   0.38808   0.60186   0.00000  Uiso   1.00
H1070  H     0.58463   0.40640   0.56621   0.00000  Uiso   1.00
H1071  H     0.56473   0.41761   0.63762   0.00000  Uiso   1.00
H1072  H     0.60724   0.37581   0.62060   0.00000  Uiso   1.00
O1073  O     0.53638   0.36049   0.46016   0.00000  Uiso   1.00
C1074  C     0.54217   0.34267   0.39933   0.00000  Uiso   1.00
H1075  H     0.56392   0.36797   0.38354   0.00000  Uiso   1.00
H1076  H     0.51372   0.34629   0.37268   0.00000  Uiso   1.00
C1077  C     0.55502   0.62046   0.38549   0.00000  Uiso   1.00
H1078  H     0.52853   0.59408   0.39043   0.00000  Uiso   1.00
H1079  H     0.56410   0.60806   0.33902   0.00000  Uiso   1.00
H1080  H     0.58248   0.61588   0.41604   0.00000  Uiso   1.00
O1081  O     0.95978   0.63846   0.54538   0.00000  Uiso   1.00
C1082  C     0.95372   0.65895   0.60659   0.00000  Uiso   1.00
H1083  H     0.97595   0.64282   0.63464   0.00000  Uiso   1.00
H1084  H     0.92292   0.64776   0.62087   0.00000  Uiso   1.00
C1085  C     0.95332   0.38432   0.62185   0.00000  Uiso   1.00
H1086  H     0.96233   0.40136   0.58550   0.00000  Uiso   1.00
H1087  H     0.92042   0.39749   0.62896   0.00000  Uiso   1.00
H1088  H     0.97458   0.40126   0.66234   0.00000  Uiso   1.00
C1089  C     0.74067   0.64932   0.41167   0.00000  Uiso   1.00
H1090  H     0.75648   0.66142   0.37743   0.00000  Uiso   1.00
O1091  O     0.71263   0.61567   0.39509   0.00000  Uiso   1.00
C1092  C     0.76217   0.34981   0.58600   0.00000  Uiso   1.00
H1093  H     0.74346   0.33945   0.61932   0.00000  Uiso   1.00
O1094  O     0.79112   0.38231   0.60197   0.00000  Uiso   1.00
C1095  C     0.69398   0.48043   0.65726   0.00000  Uiso   1.00
H1096  H     0.67561   0.51395   0.65832   0.00000  Uiso   1.00
O1097  O     0.67648   0.43849   0.63890   0.00000  Uiso   1.00
C1098  C     0.80503   0.52602   0.34578   0.00000  Uiso   1.00
H1099  H     0.82688   0.49585   0.34612   0.00000  Uiso   1.00
O1100  O     0.81804   0.57015   0.36333   0.00000  Uiso   1.00
C1101  C     0.25009   0.73380   0.48454   0.00000  Uiso   1.00
C1102  C     0.25066   0.93268   0.51509   0.00000  Uiso   1.00
C1103  C     0.01725   0.74002   0.46923   0.00000  Uiso   1.00
C1104  C     0.48131   0.92645   0.53585   0.00000  Uiso   1.00
C1105  C     0.24932   0.67782   0.47558   0.00000  Uiso   1.00
C1106  C     0.25430   0.98814   0.52272   0.00000  Uiso   1.00
C1107  C     0.16456   0.83305   0.50072   0.00000  Uiso   1.00
C1108  C     0.33526   0.83207   0.49901   0.00000  Uiso   1.00
C1109  C     0.40943   0.87899   0.52080   0.00000  Uiso   1.00
C1110  C     0.08994   0.78497   0.48203   0.00000  Uiso   1.00
C1111  C     0.38407   0.83375   0.49812   0.00000  Uiso   1.00
C1112  C     0.11551   0.83122   0.50057   0.00000  Uiso   1.00
C1113  C     0.40534   0.78871   0.47986   0.00000  Uiso   1.00
C1114  C     0.09409   0.87720   0.51084   0.00000  Uiso   1.00
C1115  C     0.45129   0.78750   0.48370   0.00000  Uiso   1.00
C1116  C     0.04815   0.87901   0.51391   0.00000  Uiso   1.00
C1117  C     0.47677   0.83352   0.50073   0.00000  Uiso   1.00
C1118  C     0.02286   0.83283   0.50004   0.00000  Uiso   1.00
C1119  C     0.45585   0.87986   0.51974   0.00000  Uiso   1.00
C1120  C     0.04352   0.78581   0.48319   0.00000  Uiso   1.00
C1121  C     0.47161   0.74071   0.47139   0.00000  Uiso   1.00
C1122  C     0.02755   0.92638   0.52999   0.00000  Uiso   1.00
Cu1123 Cu    0.25500   0.83913   0.56146   0.00000  Uiso   1.00
Cu1124 Cu    0.24499   0.82754   0.43854   0.00000  Uiso   1.00
N1125  N     0.23744   0.81881   0.34617   0.00000  Uiso   1.00
N1126  N     0.26255   0.84786   0.65383   0.00000  Uiso   1.00
O1127  O     0.25325   0.76204   0.53992   0.00000  Uiso   1.00
O1128  O     0.24674   0.90462   0.46008   0.00000  Uiso   1.00
O1129  O     0.24480   0.75226   0.43612   0.00000  Uiso   1.00
O1130  O     0.25520   0.91441   0.56388   0.00000  Uiso   1.00
O1131  O     0.18935   0.83821   0.55191   0.00000  Uiso   1.00
O1132  O     0.31064   0.82845   0.44809   0.00000  Uiso   1.00
O1133  O     0.18090   0.82843   0.44810   0.00000  Uiso   1.00
O1134  O     0.31910   0.83824   0.55190   0.00000  Uiso   1.00
O1135  O     0.39061   0.92011   0.55485   0.00000  Uiso   1.00
C1136  C     0.35621   0.93886   0.52541   0.00000  Uiso   1.00
H1137  H     0.32762   0.93071   0.54677   0.00000  Uiso   1.00
H1138  H     0.35129   0.92194   0.47692   0.00000  Uiso   1.00
C1139  C     0.36094   0.99611   0.53732   0.00000  Uiso   1.00
H1140  H     0.39150   0.67463   0.52366   0.00000  Uiso   1.00
H1141  H     0.33539   0.67772   0.51207   0.00000  Uiso   1.00
H1142  H     0.36020   0.67987   0.58528   0.00000  Uiso   1.00
O1143  O     0.10911   0.73799   0.46774   0.00000  Uiso   1.00
C1144  C     0.13930   0.73537   0.42421   0.00000  Uiso   1.00
H1145  H     0.17077   0.74445   0.44846   0.00000  Uiso   1.00
H1146  H     0.13136   0.75971   0.39293   0.00000  Uiso   1.00
C1147  C     0.14504   0.68221   0.38765   0.00000  Uiso   1.00
H1148  H     0.11957   0.66777   0.35292   0.00000  Uiso   1.00
H1149  H     0.17411   0.68307   0.36273   0.00000  Uiso   1.00
H1150  H     0.14730   0.98905   0.41685   0.00000  Uiso   1.00
O1151  O     0.38005   0.74500   0.46007   0.00000  Uiso   1.00
C1152  C     0.37102   0.73736   0.39833   0.00000  Uiso   1.00
H1153  H     0.39725   0.71747   0.37543   0.00000  Uiso   1.00
H1154  H     0.36712   0.77290   0.38286   0.00000  Uiso   1.00
C1155  C     0.33054   0.70422   0.38047   0.00000  Uiso   1.00
H1156  H     0.30358   0.72836   0.37427   0.00000  Uiso   1.00
H1157  H     0.33400   0.67449   0.33936   0.00000  Uiso   1.00
H1158  H     0.32335   0.68487   0.41573   0.00000  Uiso   1.00
O1159  O     0.11696   0.91850   0.50235   0.00000  Uiso   1.00
C1160  C     0.13931   0.94492   0.55561   0.00000  Uiso   1.00
H1161  H     0.16694   0.92433   0.56854   0.00000  Uiso   1.00
H1162  H     0.11818   0.95321   0.59306   0.00000  Uiso   1.00
C1163  C     0.15669   0.99323   0.54338   0.00000  Uiso   1.00
H1164  H     0.13053   0.68081   0.52819   0.00000  Uiso   1.00
H1165  H     0.17520   0.68330   0.58293   0.00000  Uiso   1.00
H1166  H     0.17597   0.98322   0.50500   0.00000  Uiso   1.00
O1167  O     0.44690   0.69735   0.47362   0.00000  Uiso   1.00
C1168  C     0.44910   0.99052   0.42299   0.00000  Uiso   1.00
H1169  H     0.47626   0.96746   0.43010   0.00000  Uiso   1.00
H1170  H     0.44993   0.67243   0.38406   0.00000  Uiso   1.00
C1171  C     0.41034   0.95359   0.41020   0.00000  Uiso   1.00
H1172  H     0.38055   0.97321   0.42054   0.00000  Uiso   1.00
H1173  H     0.40751   0.93336   0.36245   0.00000  Uiso   1.00
H1174  H     0.41461   0.92443   0.43554   0.00000  Uiso   1.00
O1175  O     0.05375   0.97075   0.53465   0.00000  Uiso   1.00
C1176  C     0.04363   0.67826   0.58083   0.00000  Uiso   1.00
H1177  H     0.03804   0.99773   0.61985   0.00000  Uiso   1.00
H1178  H     0.01747   0.69687   0.56306   0.00000  Uiso   1.00
C1179  C     0.07748   0.72142   0.60186   0.00000  Uiso   1.00
H1180  H     0.08463   0.73973   0.56621   0.00000  Uiso   1.00
H1181  H     0.06473   0.75094   0.63762   0.00000  Uiso   1.00
H1182  H     0.10724   0.70914   0.62060   0.00000  Uiso   1.00
O1183  O     0.03638   0.69383   0.46016   0.00000  Uiso   1.00
C1184  C     0.04217   0.67600   0.39933   0.00000  Uiso   1.00
H1185  H     0.06392   0.70130   0.38354   0.00000  Uiso   1.00
H1186  H     0.01372   0.67962   0.37268   0.00000  Uiso   1.00
C1187  C     0.05502   0.95379   0.38549   0.00000  Uiso   1.00
H1188  H     0.02853   0.92741   0.39043   0.00000  Uiso   1.00
H1189  H     0.06410   0.94139   0.33902   0.00000  Uiso   1.00
H1190  H     0.08248   0.94921   0.41604   0.00000  Uiso   1.00
O1191  O     0.45978   0.97179   0.54538   0.00000  Uiso   1.00
C1192  C     0.45372   0.99229   0.60659   0.00000  Uiso   1.00
H1193  H     0.47595   0.97615   0.63464   0.00000  Uiso   1.00
H1194  H     0.42292   0.98110   0.62087   0.00000  Uiso   1.00
C1195  C     0.45332   0.71766   0.62185   0.00000  Uiso   1.00
H1196  H     0.46233   0.73470   0.58550   0.00000  Uiso   1.00
H1197  H     0.42042   0.73083   0.62896   0.00000  Uiso   1.00
H1198  H     0.47458   0.73459   0.66234   0.00000  Uiso   1.00
C1199  C     0.24067   0.98265   0.41167   0.00000  Uiso   1.00
H1200  H     0.25648   0.99475   0.37743   0.00000  Uiso   1.00
O1201  O     0.21263   0.94900   0.39509   0.00000  Uiso   1.00
C1202  C     0.26217   0.68314   0.58600   0.00000  Uiso   1.00
H1203  H     0.24346   0.67279   0.61932   0.00000  Uiso   1.00
O1204  O     0.29112   0.71564   0.60197   0.00000  Uiso   1.00
C1205  C     0.19398   0.81376   0.65726   0.00000  Uiso   1.00
H1206  H     0.17561   0.84728   0.65832   0.00000  Uiso   1.00
O1207  O     0.17648   0.77183   0.63890   0.00000  Uiso   1.00
C1208  C     0.30503   0.85935   0.34578   0.00000  Uiso   1.00
H1209  H     0.32688   0.82919   0.34612   0.00000  Uiso   1.00
O1210  O     0.31804   0.90348   0.36333   0.00000  Uiso   1.00
C1211  C     0.75009   0.73380   0.48454   0.00000  Uiso   1.00
C1212  C     0.75066   0.93268   0.51509   0.00000  Uiso   1.00
C1213  C     0.51725   0.74002   0.46923   0.00000  Uiso   1.00
C1214  C     0.98131   0.92645   0.53585   0.00000  Uiso   1.00
C1215  C     0.74932   0.67782   0.47558   0.00000  Uiso   1.00
C1216  C     0.75430   0.98814   0.52272   0.00000  Uiso   1.00
C1217  C     0.66456   0.83305   0.50072   0.00000  Uiso   1.00
C1218  C     0.83526   0.83207   0.49901   0.00000  Uiso   1.00
C1219  C     0.90943   0.87899   0.52080   0.00000  Uiso   1.00
C1220  C     0.58994   0.78497   0.48203   0.00000  Uiso   1.00
C1221  C     0.88407   0.83375   0.49812   0.00000  Uiso   1.00
C1222  C     0.61551   0.83122   0.50057   0.00000  Uiso   1.00
C1223  C     0.90534   0.78871   0.47986   0.00000  Uiso   1.00
C1224  C     0.59409   0.87720   0.51084   0.00000  Uiso   1.00
C1225  C     0.95129   0.78750   0.48370   0.00000  Uiso   1.00
C1226  C     0.54815   0.87901   0.51391   0.00000  Uiso   1.00
C1227  C     0.97677   0.83352   0.50073   0.00000  Uiso   1.00
C1228  C     0.52286   0.83283   0.50004   0.00000  Uiso   1.00
C1229  C     0.95585   0.87986   0.51974   0.00000  Uiso   1.00
C1230  C     0.54352   0.78581   0.48319   0.00000  Uiso   1.00
C1231  C     0.97161   0.74071   0.47139   0.00000  Uiso   1.00
C1232  C     0.52755   0.92638   0.52999   0.00000  Uiso   1.00
Cu1233 Cu    0.75500   0.83913   0.56146   0.00000  Uiso   1.00
Cu1234 Cu    0.74499   0.82754   0.43854   0.00000  Uiso   1.00
N1235  N     0.73744   0.81881   0.34617   0.00000  Uiso   1.00
N1236  N     0.76255   0.84786   0.65383   0.00000  Uiso   1.00
O1237  O     0.75325   0.76204   0.53992   0.00000  Uiso   1.00
O1238  O     0.74674   0.90462   0.46008   0.00000  Uiso   1.00
O1239  O     0.74480   0.75226   0.43612   0.00000  Uiso   1.00
O1240  O     0.75520   0.91441   0.56388   0.00000  Uiso   1.00
O1241  O     0.68935   0.83821   0.55191   0.00000  Uiso   1.00
O1242  O     0.81064   0.82845   0.44809   0.00000  Uiso   1.00
O1243  O     0.68090   0.82843   0.44810   0.00000  Uiso   1.00
O1244  O     0.81910   0.83824   0.55190   0.00000  Uiso   1.00
O1245  O     0.89061   0.92011   0.55485   0.00000  Uiso   1.00
C1246  C     0.85621   0.93886   0.52541   0.00000  Uiso   1.00
H1247  H     0.82762   0.93071   0.54677   0.00000  Uiso   1.00
H1248  H     0.85129   0.92194   0.47692   0.00000  Uiso   1.00
C1249  C     0.86094   0.99611   0.53732   0.00000  Uiso   1.00
H1250  H     0.89150   0.67463   0.52366   0.00000  Uiso   1.00
H1251  H     0.83539   0.67772   0.51207   0.00000  Uiso   1.00
H1252  H     0.86020   0.67987   0.58528   0.00000  Uiso   1.00
O1253  O     0.60911   0.73799   0.46774   0.00000  Uiso   1.00
C1254  C     0.63930   0.73537   0.42421   0.00000  Uiso   1.00
H1255  H     0.67077   0.74445   0.44846   0.00000  Uiso   1.00
H1256  H     0.63136   0.75971   0.39293   0.00000  Uiso   1.00
C1257  C     0.64504   0.68221   0.38765   0.00000  Uiso   1.00
H1258  H     0.61957   0.66777   0.35292   0.00000  Uiso   1.00
H1259  H     0.67411   0.68307   0.36273   0.00000  Uiso   1.00
H1260  H     0.64730   0.98905   0.41685   0.00000  Uiso   1.00
O1261  O     0.88005   0.74500   0.46007   0.00000  Uiso   1.00
C1262  C     0.87102   0.73736   0.39833   0.00000  Uiso   1.00
H1263  H     0.89725   0.71747   0.37543   0.00000  Uiso   1.00
H1264  H     0.86712   0.77290   0.38286   0.00000  Uiso   1.00
C1265  C     0.83054   0.70422   0.38047   0.00000  Uiso   1.00
H1266  H     0.80358   0.72836   0.37427   0.00000  Uiso   1.00
H1267  H     0.83400   0.67449   0.33936   0.00000  Uiso   1.00
H1268  H     0.82335   0.68487   0.41573   0.00000  Uiso   1.00
O1269  O     0.61696   0.91850   0.50235   0.00000  Uiso   1.00
C1270  C     0.63931   0.94492   0.55561   0.00000  Uiso   1.00
H1271  H     0.66694   0.92433   0.56854   0.00000  Uiso   1.00
H1272  H     0.61818   0.95321   0.59306   0.00000  Uiso   1.00
C1273  C     0.65669   0.99323   0.54338   0.00000  Uiso   1.00
H1274  H     0.63053   0.68081   0.52819   0.00000  Uiso   1.00
H1275  H     0.67520   0.68330   0.58293   0.00000  Uiso   1.00
H1276  H     0.67597   0.98322   0.50500   0.00000  Uiso   1.00
O1277  O     0.94690   0.69735   0.47362   0.00000  Uiso   1.00
C1278  C     0.94910   0.99052   0.42299   0.00000  Uiso   1.00
H1279  H     0.97626   0.96746   0.43010   0.00000  Uiso   1.00
H1280  H     0.94993   0.67243   0.38406   0.00000  Uiso   1.00
C1281  C     0.91034   0.95359   0.41020   0.00000  Uiso   1.00
H1282  H     0.88055   0.97321   0.42054   0.00000  Uiso   1.00
H1283  H     0.90751   0.93336   0.36245   0.00000  Uiso   1.00
H1284  H     0.91461   0.92443   0.43554   0.00000  Uiso   1.00
O1285  O     0.55375   0.97075   0.53465   0.00000  Uiso   1.00
C1286  C     0.54363   0.67826   0.58083   0.00000  Uiso   1.00
H1287  H     0.53804   0.99773   0.61985   0.00000  Uiso   1.00
H1288  H     0.51747   0.69687   0.56306   0.00000  Uiso   1.00
C1289  C     0.57748   0.72142   0.60186   0.00000  Uiso   1.00
H1290  H     0.58463   0.73973   0.56621   0.00000  Uiso   1.00
H1291  H     0.56473   0.75094   0.63762   0.00000  Uiso   1.00
H1292  H     0.60724   0.70914   0.62060   0.00000  Uiso   1.00
O1293  O     0.53638   0.69383   0.46016   0.00000  Uiso   1.00
C1294  C     0.54217   0.67600   0.39933   0.00000  Uiso   1.00
H1295  H     0.56392   0.70130   0.38354   0.00000  Uiso   1.00
H1296  H     0.51372   0.67962   0.37268   0.00000  Uiso   1.00
C1297  C     0.55502   0.95379   0.38549   0.00000  Uiso   1.00
H1298  H     0.52853   0.92741   0.39043   0.00000  Uiso   1.00
H1299  H     0.56410   0.94139   0.33902   0.00000  Uiso   1.00
H1300  H     0.58248   0.94921   0.41604   0.00000  Uiso   1.00
O1301  O     0.95978   0.97179   0.54538   0.00000  Uiso   1.00
C1302  C     0.95372   0.99229   0.60659   0.00000  Uiso   1.00
H1303  H     0.97595   0.97615   0.63464   0.00000  Uiso   1.00
H1304  H     0.92292   0.98110   0.62087   0.00000  Uiso   1.00
C1305  C     0.95332   0.71766   0.62185   0.00000  Uiso   1.00
H1306  H     0.96233   0.73470   0.58550   0.00000  Uiso   1.00
H1307  H     0.92042   0.73083   0.62896   0.00000  Uiso   1.00
H1308  H     0.97458   0.73459   0.66234   0.00000  Uiso   1.00
C1309  C     0.74067   0.98265   0.41167   0.00000  Uiso   1.00
H1310  H     0.75648   0.99475   0.37743   0.00000  Uiso   1.00
O1311  O     0.71263   0.94900   0.39509   0.00000  Uiso   1.00
C1312  C     0.76217   0.68314   0.58600   0.00000  Uiso   1.00
H1313  H     0.74346   0.67279   0.61932   0.00000  Uiso   1.00
O1314  O     0.79112   0.71564   0.60197   0.00000  Uiso   1.00
C1315  C     0.69398   0.81376   0.65726   0.00000  Uiso   1.00
H1316  H     0.67561   0.84728   0.65832   0.00000  Uiso   1.00
O1317  O     0.67648   0.77183   0.63890   0.00000  Uiso   1.00
C1318  C     0.80503   0.85935   0.34578   0.00000  Uiso   1.00
H1319  H     0.82688   0.82919   0.34612   0.00000  Uiso   1.00
O1320  O     0.81804   0.90348   0.36333   0.00000  Uiso   1.00
C1321  C     0.25009   0.06713   0.81787   0.00000  Uiso   1.00
C1322  C     0.25066   0.26601   0.84843   0.00000  Uiso   1.00
C1323  C     0.01725   0.07335   0.80256   0.00000  Uiso   1.00
C1324  C     0.48131   0.25978   0.86918   0.00000  Uiso   1.00
C1325  C     0.24932   0.01115   0.80891   0.00000  Uiso   1.00
C1326  C     0.25430   0.32148   0.85605   0.00000  Uiso   1.00
C1327  C     0.16456   0.16638   0.83406   0.00000  Uiso   1.00
C1328  C     0.33526   0.16541   0.83234   0.00000  Uiso   1.00
C1329  C     0.40943   0.21232   0.85414   0.00000  Uiso   1.00
C1330  C     0.08994   0.11831   0.81536   0.00000  Uiso   1.00
C1331  C     0.38407   0.16709   0.83145   0.00000  Uiso   1.00
C1332  C     0.11551   0.16455   0.83390   0.00000  Uiso   1.00
C1333  C     0.40534   0.12204   0.81320   0.00000  Uiso   1.00
C1334  C     0.09409   0.21053   0.84417   0.00000  Uiso   1.00
C1335  C     0.45129   0.12083   0.81703   0.00000  Uiso   1.00
C1336  C     0.04815   0.21235   0.84724   0.00000  Uiso   1.00
C1337  C     0.47677   0.16686   0.83406   0.00000  Uiso   1.00
C1338  C     0.02286   0.16617   0.83338   0.00000  Uiso   1.00
C1339  C     0.45585   0.21319   0.85307   0.00000  Uiso   1.00
C1340  C     0.04352   0.11914   0.81652   0.00000  Uiso   1.00
C1341  C     0.47161   0.07404   0.80473   0.00000  Uiso   1.00
C1342  C     0.02755   0.25972   0.86332   0.00000  Uiso   1.00
Cu1343 Cu    0.25500   0.17246   0.89479   0.00000  Uiso   1.00
Cu1344 Cu    0.24499   0.16087   0.77187   0.00000  Uiso   1.00
N1345  N     0.23744   0.15214   0.67951   0.00000  Uiso   1.00
N1346  N     0.26255   0.18119   0.98716   0.00000  Uiso   1.00
O1347  O     0.25325   0.09538   0.87326   0.00000  Uiso   1.00
O1348  O     0.24674   0.23796   0.79341   0.00000  Uiso   1.00
O1349  O     0.24480   0.08559   0.76945   0.00000  Uiso   1.00
O1350  O     0.25520   0.24774   0.89721   0.00000  Uiso   1.00
O1351  O     0.18935   0.17155   0.88524   0.00000  Uiso   1.00
O1352  O     0.31064   0.16179   0.78143   0.00000  Uiso   1.00
O1353  O     0.18090   0.16176   0.78143   0.00000  Uiso   1.00
O1354  O     0.31910   0.17157   0.88523   0.00000  Uiso   1.00
O1355  O     0.39061   0.25344   0.88818   0.00000  Uiso   1.00
C1356  C     0.35621   0.27219   0.85874   0.00000  Uiso   1.00
H1357  H     0.32762   0.26404   0.88011   0.00000  Uiso   1.00
H1358  H     0.35129   0.25528   0.81025   0.00000  Uiso   1.00
C1359  C     0.36094   0.32945   0.87065   0.00000  Uiso   1.00
H1360  H     0.39150   0.00797   0.85699   0.00000  Uiso   1.00
H1361  H     0.33539   0.01105   0.84540   0.00000  Uiso   1.00
H1362  H     0.36020   0.01321   0.91861   0.00000  Uiso   1.00
O1363  O     0.10911   0.07133   0.80107   0.00000  Uiso   1.00
C1364  C     0.13930   0.06870   0.75754   0.00000  Uiso   1.00
H1365  H     0.17077   0.07778   0.78179   0.00000  Uiso   1.00
H1366  H     0.13136   0.09305   0.72626   0.00000  Uiso   1.00
C1367  C     0.14504   0.01554   0.72099   0.00000  Uiso   1.00
H1368  H     0.11957   0.00110   0.68625   0.00000  Uiso   1.00
H1369  H     0.17411   0.01641   0.69606   0.00000  Uiso   1.00
H1370  H     0.14730   0.32238   0.75018   0.00000  Uiso   1.00
O1371  O     0.38005   0.07833   0.79340   0.00000  Uiso   1.00
C1372  C     0.37102   0.07069   0.73166   0.00000  Uiso   1.00
H1373  H     0.39725   0.05080   0.70876   0.00000  Uiso   1.00
H1374  H     0.36712   0.10624   0.71619   0.00000  Uiso   1.00
C1375  C     0.33054   0.03756   0.71381   0.00000  Uiso   1.00
H1376  H     0.30358   0.06170   0.70760   0.00000  Uiso   1.00
H1377  H     0.33400   0.00782   0.67269   0.00000  Uiso   1.00
H1378  H     0.32335   0.01821   0.74907   0.00000  Uiso   1.00
O1379  O     0.11696   0.25183   0.83568   0.00000  Uiso   1.00
C1380  C     0.13931   0.27825   0.88894   0.00000  Uiso   1.00
H1381  H     0.16694   0.25766   0.90188   0.00000  Uiso   1.00
H1382  H     0.11818   0.28655   0.92639   0.00000  Uiso   1.00
C1383  C     0.15669   0.32657   0.87671   0.00000  Uiso   1.00
H1384  H     0.13053   0.01415   0.86153   0.00000  Uiso   1.00
H1385  H     0.17520   0.01663   0.91626   0.00000  Uiso   1.00
H1386  H     0.17597   0.31656   0.83834   0.00000  Uiso   1.00
O1387  O     0.44690   0.03069   0.80695   0.00000  Uiso   1.00
C1388  C     0.44910   0.32386   0.75632   0.00000  Uiso   1.00
H1389  H     0.47626   0.30079   0.76344   0.00000  Uiso   1.00
H1390  H     0.44993   0.00576   0.71739   0.00000  Uiso   1.00
C1391  C     0.41034   0.28693   0.74354   0.00000  Uiso   1.00
H1392  H     0.38055   0.30655   0.75388   0.00000  Uiso   1.00
H1393  H     0.40751   0.26669   0.69578   0.00000  Uiso   1.00
H1394  H     0.41461   0.25777   0.76888   0.00000  Uiso   1.00
O1395  O     0.05375   0.30409   0.86798   0.00000  Uiso   1.00
C1396  C     0.04363   0.01159   0.91416   0.00000  Uiso   1.00
H1397  H     0.03804   0.33106   0.95319   0.00000  Uiso   1.00
H1398  H     0.01747   0.03021   0.89639   0.00000  Uiso   1.00
C1399  C     0.07748   0.05475   0.93519   0.00000  Uiso   1.00
H1400  H     0.08463   0.07307   0.89954   0.00000  Uiso   1.00
H1401  H     0.06473   0.08428   0.97096   0.00000  Uiso   1.00
H1402  H     0.10724   0.04248   0.95394   0.00000  Uiso   1.00
O1403  O     0.03638   0.02716   0.79349   0.00000  Uiso   1.00
C1404  C     0.04217   0.00933   0.73266   0.00000  Uiso   1.00
H1405  H     0.06392   0.03463   0.71688   0.00000  Uiso   1.00
H1406  H     0.01372   0.01295   0.70601   0.00000  Uiso   1.00
C1407  C     0.05502   0.28712   0.71883   0.00000  Uiso   1.00
H1408  H     0.02853   0.26074   0.72376   0.00000  Uiso   1.00
H1409  H     0.06410   0.27473   0.67236   0.00000  Uiso   1.00
H1410  H     0.08248   0.28255   0.74937   0.00000  Uiso   1.00
O1411  O     0.45978   0.30513   0.87871   0.00000  Uiso   1.00
C1412  C     0.45372   0.32562   0.93992   0.00000  Uiso   1.00
H1413  H     0.47595   0.30948   0.96797   0.00000  Uiso   1.00
H1414  H     0.42292   0.31443   0.95421   0.00000  Uiso   1.00
C1415  C     0.45332   0.05099   0.95519   0.00000  Uiso   1.00
H1416  H     0.46233   0.06803   0.91883   0.00000  Uiso   1.00
H1417  H     0.42042   0.06416   0.96229   0.00000  Uiso   1.00
H1418  H     0.47458   0.06793   0.99567   0.00000  Uiso   1.00
C1419  C     0.24067   0.31599   0.74500   0.00000  Uiso   1.00
H1420  H     0.25648   0.32809   0.71076   0.00000  Uiso   1.00
O1421  O     0.21263   0.28233   0.72842   0.00000  Uiso   1.00
C1422  C     0.26217   0.01648   0.91934   0.00000  Uiso   1.00
H1423  H     0.24346   0.00612   0.95266   0.00000  Uiso   1.00
O1424  O     0.29112   0.04897   0.93530   0.00000  Uiso   1.00
C1425  C     0.19398   0.14710   0.99060   0.00000  Uiso   1.00
H1426  H     0.17561   0.18062   0.99165   0.00000  Uiso   1.00
O1427  O     0.17648   0.10516   0.97224   0.00000  Uiso   1.00
C1428  C     0.30503   0.19268   0.67911   0.00000  Uiso   1.00
H1429  H     0.32688   0.16252   0.67946   0.00000  Uiso   1.00
O1430  O     0.31804   0.23682   0.69667   0.00000  Uiso   1.00
C1431  C     0.75009   0.06713   0.81787   0.00000  Uiso   1.00
C1432  C     0.75066   0.26601   0.84843   0.00000  Uiso   1.00
C1433  C     0.51725   0.07335   0.80256   0.00000  Uiso   1.00
C1434  C     0.98131   0.25978   0.86918   0.00000  Uiso   1.00
C1435  C     0.74932   0.01115   0.80891   0.00000  Uiso   1.00
C1436  C     0.75430   0.32148   0.85605   0.00000  Uiso   1.00
C1437  C     0.66456   0.16638   0.83406   0.00000  Uiso   1.00
C1438  C     0.83526   0.16541   0.83234   0.00000  Uiso   1.00
C1439  C     0.90943   0.21232   0.85414   0.00000  Uiso   1.00
C1440  C     0.58994   0.11831   0.81536   0.00000  Uiso   1.00
C1441  C     0.88407   0.16709   0.83145   0.00000  Uiso   1.00
C1442  C     0.61551   0.16455   0.83390   0.00000  Uiso   1.00
C1443  C     0.90534   0.12204   0.81320   0.00000  Uiso   1.00
C1444  C     0.59409   0.21053   0.84417   0.00000  Uiso   1.00
C1445  C     0.95129   0.12083   0.81703   0.00000  Uiso   1.00
C1446  C     0.54815   0.21235   0.84724   0.00000  Uiso   1.00
C1447  C     0.97677   0.16686   0.83406   0.00000  Uiso   1.00
C1448  C     0.52286   0.16617   0.83338   0.00000  Uiso   1.00
C1449  C     0.95585   0.21319   0.85307   0.00000  Uiso   1.00
C1450  C     0.54352   0.11914   0.81652   0.00000  Uiso   1.00
C1451  C     0.97161   0.07404   0.80473   0.00000  Uiso   1.00
C1452  C     0.52755   0.25972   0.86332   0.00000  Uiso   1.00
Cu1453 Cu    0.75500   0.17246   0.89479   0.00000  Uiso   1.00
Cu1454 Cu    0.74499   0.16087   0.77187   0.00000  Uiso   1.00
N1455  N     0.73744   0.15214   0.67951   0.00000  Uiso   1.00
N1456  N     0.76255   0.18119   0.98716   0.00000  Uiso   1.00
O1457  O     0.75325   0.09538   0.87326   0.00000  Uiso   1.00
O1458  O     0.74674   0.23796   0.79341   0.00000  Uiso   1.00
O1459  O     0.74480   0.08559   0.76945   0.00000  Uiso   1.00
O1460  O     0.75520   0.24774   0.89721   0.00000  Uiso   1.00
O1461  O     0.68935   0.17155   0.88524   0.00000  Uiso   1.00
O1462  O     0.81064   0.16179   0.78143   0.00000  Uiso   1.00
O1463  O     0.68090   0.16176   0.78143   0.00000  Uiso   1.00
O1464  O     0.81910   0.17157   0.88523   0.00000  Uiso   1.00
O1465  O     0.89061   0.25344   0.88818   0.00000  Uiso   1.00
C1466  C     0.85621   0.27219   0.85874   0.00000  Uiso   1.00
H1467  H     0.82762   0.26404   0.88011   0.00000  Uiso   1.00
H1468  H     0.85129   0.25528   0.81025   0.00000  Uiso   1.00
C1469  C     0.86094   0.32945   0.87065   0.00000  Uiso   1.00
H1470  H     0.89150   0.00797   0.85699   0.00000  Uiso   1.00
H1471  H     0.83539   0.01105   0.84540   0.00000  Uiso   1.00
H1472  H     0.86020   0.01321   0.91861   0.00000  Uiso   1.00
O1473  O     0.60911   0.07133   0.80107   0.00000  Uiso   1.00
C1474  C     0.63930   0.06870   0.75754   0.00000  Uiso   1.00
H1475  H     0.67077   0.07778   0.78179   0.00000  Uiso   1.00
H1476  H     0.63136   0.09305   0.72626   0.00000  Uiso   1.00
C1477  C     0.64504   0.01554   0.72099   0.00000  Uiso   1.00
H1478  H     0.61957   0.00110   0.68625   0.00000  Uiso   1.00
H1479  H     0.67411   0.01641   0.69606   0.00000  Uiso   1.00
H1480  H     0.64730   0.32238   0.75018   0.00000  Uiso   1.00
O1481  O     0.88005   0.07833   0.79340   0.00000  Uiso   1.00
C1482  C     0.87102   0.07069   0.73166   0.00000  Uiso   1.00
H1483  H     0.89725   0.05080   0.70876   0.00000  Uiso   1.00
H1484  H     0.86712   0.10624   0.71619   0.00000  Uiso   1.00
C1485  C     0.83054   0.03756   0.71381   0.00000  Uiso   1.00
H1486  H     0.80358   0.06170   0.70760   0.00000  Uiso   1.00
H1487  H     0.83400   0.00782   0.67269   0.00000  Uiso   1.00
H1488  H     0.82335   0.01821   0.74907   0.00000  Uiso   1.00
O1489  O     0.61696   0.25183   0.83568   0.00000  Uiso   1.00
C1490  C     0.63931   0.27825   0.88894   0.00000  Uiso   1.00
H1491  H     0.66694   0.25766   0.90188   0.00000  Uiso   1.00
H1492  H     0.61818   0.28655   0.92639   0.00000  Uiso   1.00
C1493  C     0.65669   0.32657   0.87671   0.00000  Uiso   1.00
H1494  H     0.63053   0.01415   0.86153   0.00000  Uiso   1.00
H1495  H     0.67520   0.01663   0.91626   0.00000  Uiso   1.00
H1496  H     0.67597   0.31656   0.83834   0.00000  Uiso   1.00
O1497  O     0.94690   0.03069   0.80695   0.00000  Uiso   1.00
C1498  C     0.94910   0.32386   0.75632   0.00000  Uiso   1.00
H1499  H     0.97626   0.30079   0.76344   0.00000  Uiso   1.00
H1500  H     0.94993   0.00576   0.71739   0.00000  Uiso   1.00
C1501  C     0.91034   0.28693   0.74354   0.00000  Uiso   1.00
H1502  H     0.88055   0.30655   0.75388   0.00000  Uiso   1.00
H1503  H     0.90751   0.26669   0.69578   0.00000  Uiso   1.00
H1504  H     0.91461   0.25777   0.76888   0.00000  Uiso   1.00
O1505  O     0.55375   0.30409   0.86798   0.00000  Uiso   1.00
C1506  C     0.54363   0.01159   0.91416   0.00000  Uiso   1.00
H1507  H     0.53804   0.33106   0.95319   0.00000  Uiso   1.00
H1508  H     0.51747   0.03021   0.89639   0.00000  Uiso   1.00
C1509  C     0.57748   0.05475   0.93519   0.00000  Uiso   1.00
H1510  H     0.58463   0.07307   0.89954   0.00000  Uiso   1.00
H1511  H     0.56473   0.08428   0.97096   0.00000  Uiso   1.00
H1512  H     0.60724   0.04248   0.95394   0.00000  Uiso   1.00
O1513  O     0.53638   0.02716   0.79349   0.00000  Uiso   1.00
C1514  C     0.54217   0.00933   0.73266   0.00000  Uiso   1.00
H1515  H     0.56392   0.03463   0.71688   0.00000  Uiso   1.00
H1516  H     0.51372   0.01295   0.70601   0.00000  Uiso   1.00
C1517  C     0.55502   0.28712   0.71883   0.00000  Uiso   1.00
H1518  H     0.52853   0.26074   0.72376   0.00000  Uiso   1.00
H1519  H     0.56410   0.27473   0.67236   0.00000  Uiso   1.00
H1520  H     0.58248   0.28255   0.74937   0.00000  Uiso   1.00
O1521  O     0.95978   0.30513   0.87871   0.00000  Uiso   1.00
C1522  C     0.95372   0.32562   0.93992   0.00000  Uiso   1.00
H1523  H     0.97595   0.30948   0.96797   0.00000  Uiso   1.00
H1524  H     0.92292   0.31443   0.95421   0.00000  Uiso   1.00
C1525  C     0.95332   0.05099   0.95519   0.00000  Uiso   1.00
H1526  H     0.96233   0.06803   0.91883   0.00000  Uiso   1.00
H1527  H     0.92042   0.06416   0.96229   0.00000  Uiso   1.00
H1528  H     0.97458   0.06793   0.99567   0.00000  Uiso   1.00
C1529  C     0.74067   0.31599   0.74500   0.00000  Uiso   1.00
H1530  H     0.75648   0.32809   0.71076   0.00000  Uiso   1.00
O1531  O     0.71263   0.28233   0.72842   0.00000  Uiso   1.00
C1532  C     0.76217   0.01648   0.91934   0.00000  Uiso   1.00
H1533  H     0.74346   0.00612   0.95266   0.00000  Uiso   1.00
O1534  O     0.79112   0.04897   0.93530   0.00000  Uiso   1.00
C1535  C     0.69398   0.14710   0.99060   0.00000  Uiso   1.00
H1536  H     0.67561   0.18062   0.99165   0.00000  Uiso   1.00
O1537  O     0.67648   0.10516   0.97224   0.00000  Uiso   1.00
C1538  C     0.80503   0.19268   0.67911   0.00000  Uiso   1.00
H1539  H     0.82688   0.16252   0.67946   0.00000  Uiso   1.00
O1540  O     0.81804   0.23682   0.69667   0.00000  Uiso   1.00
C1541  C     0.25009   0.40046   0.81787   0.00000  Uiso   1.00
C1542  C     0.25066   0.59935   0.84843   0.00000  Uiso   1.00
C1543  C     0.01725   0.40668   0.80256   0.00000  Uiso   1.00
C1544  C     0.48131   0.59311   0.86918   0.00000  Uiso   1.00
C1545  C     0.24932   0.34448   0.80891   0.00000  Uiso   1.00
C1546  C     0.25430   0.65481   0.85605   0.00000  Uiso   1.00
C1547  C     0.16456   0.49972   0.83406   0.00000  Uiso   1.00
C1548  C     0.33526   0.49874   0.83234   0.00000  Uiso   1.00
C1549  C     0.40943   0.54566   0.85414   0.00000  Uiso   1.00
C1550  C     0.08994   0.45164   0.81536   0.00000  Uiso   1.00
C1551  C     0.38407   0.50042   0.83145   0.00000  Uiso   1.00
C1552  C     0.11551   0.49789   0.83390   0.00000  Uiso   1.00
C1553  C     0.40534   0.45538   0.81320   0.00000  Uiso   1.00
C1554  C     0.09409   0.54386   0.84417   0.00000  Uiso   1.00
C1555  C     0.45129   0.45417   0.81703   0.00000  Uiso   1.00
C1556  C     0.04815   0.54568   0.84724   0.00000  Uiso   1.00
C1557  C     0.47677   0.50019   0.83406   0.00000  Uiso   1.00
C1558  C     0.02286   0.49950   0.83338   0.00000  Uiso   1.00
C1559  C     0.45585   0.54653   0.85307   0.00000  Uiso   1.00
C1560  C     0.04352   0.45248   0.81652   0.00000  Uiso   1.00
C1561  C     0.47161   0.40737   0.80473   0.00000  Uiso   1.00
C1562  C     0.02755   0.59305   0.86332   0.00000  Uiso   1.00
Cu1563 Cu    0.25500   0.50579   0.89479   0.00000  Uiso   1.00
Cu1564 Cu    0.24499   0.49421   0.77187   0.00000  Uiso   1.00
N1565  N     0.23744   0.48547   0.67951   0.00000  Uiso   1.00
N1566  N     0.26255   0.51453   0.98716   0.00000  Uiso   1.00
O1567  O     0.25325   0.42871   0.87326   0.00000  Uiso   1.00
O1568  O     0.24674   0.57129   0.79341   0.00000  Uiso   1.00
O1569  O     0.24480   0.41892   0.76945   0.00000  Uiso   1.00
O1570  O     0.25520   0.58108   0.89721   0.00000  Uiso   1.00
O1571  O     0.18935   0.50488   0.88524   0.00000  Uiso   1.00
O1572  O     0.31064   0.49512   0.78143   0.00000  Uiso   1.00
O1573  O     0.18090   0.49510   0.78143   0.00000  Uiso   1.00
O1574  O     0.31910   0.50490   0.88523   0.00000  Uiso   1.00
O1575  O     0.39061   0.58677   0.88818   0.00000  Uiso   1.00
C1576  C     0.35621   0.60553   0.85874   0.00000  Uiso   1.00
H1577  H     0.32762   0.59738   0.88011   0.00000  Uiso   1.00
H1578  H     0.35129   0.58861   0.81025   0.00000  Uiso   1.00
C1579  C     0.36094   0.66278   0.87065   0.00000  Uiso   1.00
H1580  H     0.39150   0.34130   0.85699   0.00000  Uiso   1.00
H1581  H     0.33539   0.34438   0.84540   0.00000  Uiso   1.00
H1582  H     0.36020   0.34654   0.91861   0.00000  Uiso   1.00
O1583  O     0.10911   0.40466   0.80107   0.00000  Uiso   1.00
C1584  C     0.13930   0.40204   0.75754   0.00000  Uiso   1.00
H1585  H     0.17077   0.41112   0.78179   0.00000  Uiso   1.00
H1586  H     0.13136   0.42638   0.72626   0.00000  Uiso   1.00
C1587  C     0.14504   0.34887   0.72099   0.00000  Uiso   1.00
H1588  H     0.11957   0.33444   0.68625   0.00000  Uiso   1.00
H1589  H     0.17411   0.34974   0.69606   0.00000  Uiso   1.00
H1590  H     0.14730   0.65571   0.75018   0.00000  Uiso   1.00
O1591  O     0.38005   0.41166   0.79340   0.00000  Uiso   1.00
C1592  C     0.37102   0.40403   0.73166   0.00000  Uiso   1.00
H1593  H     0.39725   0.38414   0.70876   0.00000  Uiso   1.00
H1594  H     0.36712   0.43957   0.71619   0.00000  Uiso   1.00
C1595  C     0.33054   0.37089   0.71381   0.00000  Uiso   1.00
H1596  H     0.30358   0.39503   0.70760   0.00000  Uiso   1.00
H1597  H     0.33400   0.34115   0.67269   0.00000  Uiso   1.00
H1598  H     0.32335   0.35154   0.74907   0.00000  Uiso   1.00
O1599  O     0.11696   0.58517   0.83568   0.00000  Uiso   1.00
C1600  C     0.13931   0.61158   0.88894   0.00000  Uiso   1.00
H1601  H     0.16694   0.59100   0.90188   0.00000  Uiso   1.00
H1602  H     0.11818   0.61988   0.92639   0.00000  Uiso   1.00
C1603  C     0.15669   0.65990   0.87671   0.00000  Uiso   1.00
H1604  H     0.13053   0.34748   0.86153   0.00000  Uiso   1.00
H1605  H     0.17520   0.34997   0.91626   0.00000  Uiso   1.00
H1606  H     0.17597   0.64989   0.83834   0.00000  Uiso   1.00
O1607  O     0.44690   0.36402   0.80695   0.00000  Uiso   1.00
C1608  C     0.44910   0.65719   0.75632   0.00000  Uiso   1.00
H1609  H     0.47626   0.63413   0.76344   0.00000  Uiso   1.00
H1610  H     0.44993   0.33910   0.71739   0.00000  Uiso   1.00
C1611  C     0.41034   0.62026   0.74354   0.00000  Uiso   1.00
H1612  H     0.38055   0.63988   0.75388   0.00000  Uiso   1.00
H1613  H     0.40751   0.60003   0.69578   0.00000  Uiso   1.00
H1614  H     0.41461   0.59110   0.76888   0.00000  Uiso   1.00
O1615  O     0.05375   0.63742   0.86798   0.00000  Uiso   1.00
C1616  C     0.04363   0.34493   0.91416   0.00000  Uiso   1.00
H1617  H     0.03804   0.66439   0.95319   0.00000  Uiso   1.00
H1618  H     0.01747   0.36354   0.89639   0.00000  Uiso   1.00
C1619  C     0.07748   0.38808   0.93519   0.00000  Uiso   1.00
H1620  H     0.08463   0.40640   0.89954   0.00000  Uiso   1.00
H1621  H     0.06473   0.41761   0.97096   0.00000  Uiso   1.00
H1622  H     0.10724   0.37581   0.95394   0.00000  Uiso   1.00
O1623  O     0.03638   0.36049   0.79349   0.00000  Uiso   1.00
C1624  C     0.04217   0.34267   0.73266   0.00000  Uiso   1.00
H1625  H     0.06392   0.36797   0.71688   0.00000  Uiso   1.00
H1626  H     0.01372   0.34629   0.70601   0.00000  Uiso   1.00
C1627  C     0.05502   0.62046   0.71883   0.00000  Uiso   1.00
H1628  H     0.02853   0.59408   0.72376   0.00000  Uiso   1.00
H1629  H     0.06410   0.60806   0.67236   0.00000  Uiso   1.00
H1630  H     0.08248   0.61588   0.74937   0.00000  Uiso   1.00
O1631  O     0.45978   0.63846   0.87871   0.00000  Uiso   1.00
C1632  C     0.45372   0.65895   0.93992   0.00000  Uiso   1.00
H1633  H     0.47595   0.64282   0.96797   0.00000  Uiso   1.00
H1634  H     0.42292   0.64776   0.95421   0.00000  Uiso   1.00
C1635  C     0.45332   0.38432   0.95519   0.00000  Uiso   1.00
H1636  H     0.46233   0.40136   0.91883   0.00000  Uiso   1.00
H1637  H     0.42042   0.39749   0.96229   0.00000  Uiso   1.00
H1638  H     0.47458   0.40126   0.99567   0.00000  Uiso   1.00
C1639  C     0.24067   0.64932   0.74500   0.00000  Uiso   1.00
H1640  H     0.25648   0.66142   0.71076   0.00000  Uiso   1.00
O1641  O     0.21263   0.61567   0.72842   0.00000  Uiso   1.00
C1642  C     0.26217   0.34981   0.91934   0.00000  Uiso   1.00
H1643  H     0.24346   0.33945   0.95266   0.00000  Uiso   1.00
O1644  O     0.29112   0.38231   0.93530   0.00000  Uiso   1.00
C1645  C     0.19398   0.48043   0.99060   0.00000  Uiso   1.00
H1646  H     0.17561   0.51395   0.99165   0.00000  Uiso   1.00
O1647  O     0.17648   0.43849   0.97224   0.00000  Uiso   1.00
C1648  C     0.30503   0.52602   0.67911   0.00000  Uiso   1.00
H1649  H     0.32688   0.49585   0.67946   0.00000  Uiso   1.00
O1650  O     0.31804   0.57015   0.69667   0.00000  Uiso   1.00
C1651  C     0.75009   0.40046   0.81787   0.00000  Uiso   1.00
C1652  C     0.75066   0.59935   0.84843   0.00000  Uiso   1.00
C1653  C     0.51725   0.40668   0.80256   0.00000  Uiso   1.00
C1654  C     0.98131   0.59311   0.86918   0.00000  Uiso   1.00
C1655  C     0.74932   0.34448   0.80891   0.00000  Uiso   1.00
C1656  C     0.75430   0.65481   0.85605   0.00000  Uiso   1.00
C1657  C     0.66456   0.49972   0.83406   0.00000  Uiso   1.00
C1658  C     0.83526   0.49874   0.83234   0.00000  Uiso   1.00
C1659  C     0.90943   0.54566   0.85414   0.00000  Uiso   1.00
C1660  C     0.58994   0.45164   0.81536   0.00000  Uiso   1.00
C1661  C     0.88407   0.50042   0.83145   0.00000  Uiso   1.00
C1662  C     0.61551   0.49789   0.83390   0.00000  Uiso   1.00
C1663  C     0.90534   0.45538   0.81320   0.00000  Uiso   1.00
C1664  C     0.59409   0.54386   0.84417   0.00000  Uiso   1.00
C1665  C     0.95129   0.45417   0.81703   0.00000  Uiso   1.00
C1666  C     0.54815   0.54568   0.84724   0.00000  Uiso   1.00
C1667  C     0.97677   0.50019   0.83406   0.00000  Uiso   1.00
C1668  C     0.52286   0.49950   0.83338   0.00000  Uiso   1.00
C1669  C     0.95585   0.54653   0.85307   0.00000  Uiso   1.00
C1670  C     0.54352   0.45248   0.81652   0.00000  Uiso   1.00
C1671  C     0.97161   0.40737   0.80473   0.00000  Uiso   1.00
C1672  C     0.52755   0.59305   0.86332   0.00000  Uiso   1.00
Cu1673 Cu    0.75500   0.50579   0.89479   0.00000  Uiso   1.00
Cu1674 Cu    0.74499   0.49421   0.77187   0.00000  Uiso   1.00
N1675  N     0.73744   0.48547   0.67951   0.00000  Uiso   1.00
N1676  N     0.76255   0.51453   0.98716   0.00000  Uiso   1.00
O1677  O     0.75325   0.42871   0.87326   0.00000  Uiso   1.00
O1678  O     0.74674   0.57129   0.79341   0.00000  Uiso   1.00
O1679  O     0.74480   0.41892   0.76945   0.00000  Uiso   1.00
O1680  O     0.75520   0.58108   0.89721   0.00000  Uiso   1.00
O1681  O     0.68935   0.50488   0.88524   0.00000  Uiso   1.00
O1682  O     0.81064   0.49512   0.78143   0.00000  Uiso   1.00
O1683  O     0.68090   0.49510   0.78143   0.00000  Uiso   1.00
O1684  O     0.81910   0.50490   0.88523   0.00000  Uiso   1.00
O1685  O     0.89061   0.58677   0.88818   0.00000  Uiso   1.00
C1686  C     0.85621   0.60553   0.85874   0.00000  Uiso   1.00
H1687  H     0.82762   0.59738   0.88011   0.00000  Uiso   1.00
H1688  H     0.85129   0.58861   0.81025   0.00000  Uiso   1.00
C1689  C     0.86094   0.66278   0.87065   0.00000  Uiso   1.00
H1690  H     0.89150   0.34130   0.85699   0.00000  Uiso   1.00
H1691  H     0.83539   0.34438   0.84540   0.00000  Uiso   1.00
H1692  H     0.86020   0.34654   0.91861   0.00000  Uiso   1.00
O1693  O     0.60911   0.40466   0.80107   0.00000  Uiso   1.00
C1694  C     0.63930   0.40204   0.75754   0.00000  Uiso   1.00
H1695  H     0.67077   0.41112   0.78179   0.00000  Uiso   1.00
H1696  H     0.63136   0.42638   0.72626   0.00000  Uiso   1.00
C1697  C     0.64504   0.34887   0.72099   0.00000  Uiso   1.00
H1698  H     0.61957   0.33444   0.68625   0.00000  Uiso   1.00
H1699  H     0.67411   0.34974   0.69606   0.00000  Uiso   1.00
H1700  H     0.64730   0.65571   0.75018   0.00000  Uiso   1.00
O1701  O     0.88005   0.41166   0.79340   0.00000  Uiso   1.00
C1702  C     0.87102   0.40403   0.73166   0.00000  Uiso   1.00
H1703  H     0.89725   0.38414   0.70876   0.00000  Uiso   1.00
H1704  H     0.86712   0.43957   0.71619   0.00000  Uiso   1.00
C1705  C     0.83054   0.37089   0.71381   0.00000  Uiso   1.00
H1706  H     0.80358   0.39503   0.70760   0.00000  Uiso   1.00
H1707  H     0.83400   0.34115   0.67269   0.00000  Uiso   1.00
H1708  H     0.82335   0.35154   0.74907   0.00000  Uiso   1.00
O1709  O     0.61696   0.58517   0.83568   0.00000  Uiso   1.00
C1710  C     0.63931   0.61158   0.88894   0.00000  Uiso   1.00
H1711  H     0.66694   0.59100   0.90188   0.00000  Uiso   1.00
H1712  H     0.61818   0.61988   0.92639   0.00000  Uiso   1.00
C1713  C     0.65669   0.65990   0.87671   0.00000  Uiso   1.00
H1714  H     0.63053   0.34748   0.86153   0.00000  Uiso   1.00
H1715  H     0.67520   0.34997   0.91626   0.00000  Uiso   1.00
H1716  H     0.67597   0.64989   0.83834   0.00000  Uiso   1.00
O1717  O     0.94690   0.36402   0.80695   0.00000  Uiso   1.00
C1718  C     0.94910   0.65719   0.75632   0.00000  Uiso   1.00
H1719  H     0.97626   0.63413   0.76344   0.00000  Uiso   1.00
H1720  H     0.94993   0.33910   0.71739   0.00000  Uiso   1.00
C1721  C     0.91034   0.62026   0.74354   0.00000  Uiso   1.00
H1722  H     0.88055   0.63988   0.75388   0.00000  Uiso   1.00
H1723  H     0.90751   0.60003   0.69578   0.00000  Uiso   1.00
H1724  H     0.91461   0.59110   0.76888   0.00000  Uiso   1.00
O1725  O     0.55375   0.63742   0.86798   0.00000  Uiso   1.00
C1726  C     0.54363   0.34493   0.91416   0.00000  Uiso   1.00
H1727  H     0.53804   0.66439   0.95319   0.00000  Uiso   1.00
H1728  H     0.51747   0.36354   0.89639   0.00000  Uiso   1.00
C1729  C     0.57748   0.38808   0.93519   0.00000  Uiso   1.00
H1730  H     0.58463   0.40640   0.89954   0.00000  Uiso   1.00
H1731  H     0.56473   0.41761   0.97096   0.00000  Uiso   1.00
H1732  H     0.60724   0.37581   0.95394   0.00000  Uiso   1.00
O1733  O     0.53638   0.36049   0.79349   0.00000  Uiso   1.00
C1734  C     0.54217   0.34267   0.73266   0.00000  Uiso   1.00
H1735  H     0.56392   0.36797   0.71688   0.00000  Uiso   1.00
H1736  H     0.51372   0.34629   0.70601   0.00000  Uiso   1.00
C1737  C     0.55502   0.62046   0.71883   0.00000  Uiso   1.00
H1738  H     0.52853   0.59408   0.72376   0.00000  Uiso   1.00
H1739  H     0.56410   0.60806   0.67236   0.00000  Uiso   1.00
H1740  H     0.58248   0.61588   0.74937   0.00000  Uiso   1.00
O1741  O     0.95978   0.63846   0.87871   0.00000  Uiso   1.00
C1742  C     0.95372   0.65895   0.93992   0.00000  Uiso   1.00
H1743  H     0.97595   0.64282   0.96797   0.00000  Uiso   1.00
H1744  H     0.92292   0.64776   0.95421   0.00000  Uiso   1.00
C1745  C     0.95332   0.38432   0.95519   0.00000  Uiso   1.00
H1746  H     0.96233   0.40136   0.91883   0.00000  Uiso   1.00
H1747  H     0.92042   0.39749   0.96229   0.00000  Uiso   1.00
H1748  H     0.97458   0.40126   0.99567   0.00000  Uiso   1.00
C1749  C     0.74067   0.64932   0.74500   0.00000  Uiso   1.00
H1750  H     0.75648   0.66142   0.71076   0.00000  Uiso   1.00
O1751  O     0.71263   0.61567   0.72842   0.00000  Uiso   1.00
C1752  C     0.76217   0.34981   0.91934   0.00000  Uiso   1.00
H1753  H     0.74346   0.33945   0.95266   0.00000  Uiso   1.00
O1754  O     0.79112   0.38231   0.93530   0.00000  Uiso   1.00
C1755  C     0.69398   0.48043   0.99060   0.00000  Uiso   1.00
H1756  H     0.67561   0.51395   0.99165   0.00000  Uiso   1.00
O1757  O     0.67648   0.43849   0.97224   0.00000  Uiso   1.00
C1758  C     0.80503   0.52602   0.67911   0.00000  Uiso   1.00
H1759  H     0.82688   0.49585   0.67946   0.00000  Uiso   1.00
O1760  O     0.81804   0.57015   0.69667   0.00000  Uiso   1.00
C1761  C     0.25009   0.73380   0.81787   0.00000  Uiso   1.00
C1762  C     0.25066   0.93268   0.84843   0.00000  Uiso   1.00
C1763  C     0.01725   0.74002   0.80256   0.00000  Uiso   1.00
C1764  C     0.48131   0.92645   0.86918   0.00000  Uiso   1.00
C1765  C     0.24932   0.67782   0.80891   0.00000  Uiso   1.00
C1766  C     0.25430   0.98814   0.85605   0.00000  Uiso   1.00
C1767  C     0.16456   0.83305   0.83406   0.00000  Uiso   1.00
C1768  C     0.33526   0.83207   0.83234   0.00000  Uiso   1.00
C1769  C     0.40943   0.87899   0.85414   0.00000  Uiso   1.00
C1770  C     0.08994   0.78497   0.81536   0.00000  Uiso   1.00
C1771  C     0.38407   0.83375   0.83145   0.00000  Uiso   1.00
C1772  C     0.11551   0.83122   0.83390   0.00000  Uiso   1.00
C1773  C     0.40534   0.78871   0.81320   0.00000  Uiso   1.00
C1774  C     0.09409   0.87720   0.84417   0.00000  Uiso   1.00
C1775  C     0.45129   0.78750   0.81703   0.00000  Uiso   1.00
C1776  C     0.04815   0.87901   0.84724   0.00000  Uiso   1.00
C1777  C     0.47677   0.83352   0.83406   0.00000  Uiso   1.00
C1778  C     0.02286   0.83283   0.83338   0.00000  Uiso   1.00
C1779  C     0.45585   0.87986   0.85307   0.00000  Uiso   1.00
C1780  C     0.04352   0.78581   0.81652   0.00000  Uiso   1.00
C1781  C     0.47161   0.74071   0.80473   0.00000  Uiso   1.00
C1782  C     0.02755   0.92638   0.86332   0.00000  Uiso   1.00
Cu1783 Cu    0.25500   0.83913   0.89479   0.00000  Uiso   1.00
Cu1784 Cu    0.24499   0.82754   0.77187   0.00000  Uiso   1.00
N1785  N     0.23744   0.81881   0.67951   0.00000  Uiso   1.00
N1786  N     0.26255   0.84786   0.98716   0.00000  Uiso   1.00
O1787  O     0.25325   0.76204   0.87326   0.00000  Uiso   1.00
O1788  O     0.24674   0.90462   0.79341   0.00000  Uiso   1.00
O1789  O     0.24480   0.75226   0.76945   0.00000  Uiso   1.00
O1790  O     0.25520   0.91441   0.89721   0.00000  Uiso   1.00
O1791  O     0.18935   0.83821   0.88524   0.00000  Uiso   1.00
O1792  O     0.31064   0.82845   0.78143   0.00000  Uiso   1.00
O1793  O     0.18090   0.82843   0.78143   0.00000  Uiso   1.00
O1794  O     0.31910   0.83824   0.88523   0.00000  Uiso   1.00
O1795  O     0.39061   0.92011   0.88818   0.00000  Uiso   1.00
C1796  C     0.35621   0.93886   0.85874   0.00000  Uiso   1.00
H1797  H     0.32762   0.93071   0.88011   0.00000  Uiso   1.00
H1798  H     0.35129   0.92194   0.81025   0.00000  Uiso   1.00
C1799  C     0.36094   0.99611   0.87065   0.00000  Uiso   1.00
H1800  H     0.39150   0.67463   0.85699   0.00000  Uiso   1.00
H1801  H     0.33539   0.67772   0.84540   0.00000  Uiso   1.00
H1802  H     0.36020   0.67987   0.91861   0.00000  Uiso   1.00
O1803  O     0.10911   0.73799   0.80107   0.00000  Uiso   1.00
C1804  C     0.13930   0.73537   0.75754   0.00000  Uiso   1.00
H1805  H     0.17077   0.74445   0.78179   0.00000  Uiso   1.00
H1806  H     0.13136   0.75971   0.72626   0.00000  Uiso   1.00
C1807  C     0.14504   0.68221   0.72099   0.00000  Uiso   1.00
H1808  H     0.11957   0.66777   0.68625   0.00000  Uiso   1.00
H1809  H     0.17411   0.68307   0.69606   0.00000  Uiso   1.00
H1810  H     0.14730   0.98905   0.75018   0.00000  Uiso   1.00
O1811  O     0.38005   0.74500   0.79340   0.00000  Uiso   1.00
C1812  C     0.37102   0.73736   0.73166   0.00000  Uiso   1.00
H1813  H     0.39725   0.71747   0.70876   0.00000  Uiso   1.00
H1814  H     0.36712   0.77290   0.71619   0.00000  Uiso   1.00
C1815  C     0.33054   0.70422   0.71381   0.00000  Uiso   1.00
H1816  H     0.30358   0.72836   0.70760   0.00000  Uiso   1.00
H1817  H     0.33400   0.67449   0.67269   0.00000  Uiso   1.00
H1818  H     0.32335   0.68487   0.74907   0.00000  Uiso   1.00
O1819  O     0.11696   0.91850   0.83568   0.00000  Uiso   1.00
C1820  C     0.13931   0.94492   0.88894   0.00000  Uiso   1.00
H1821  H     0.16694   0.92433   0.90188   0.00000  Uiso   1.00
H1822  H     0.11818   0.95321   0.92639   0.00000  Uiso   1.00
C1823  C     0.15669   0.99323   0.87671   0.00000  Uiso   1.00
H1824  H     0.13053   0.68081   0.86153   0.00000  Uiso   1.00
H1825  H     0.17520   0.68330   0.91626   0.00000  Uiso   1.00
H1826  H     0.17597   0.98322   0.83834   0.00000  Uiso   1.00
O1827  O     0.44690   0.69735   0.80695   0.00000  Uiso   1.00
C1828  C     0.44910   0.99052   0.75632   0.00000  Uiso   1.00
H1829  H     0.47626   0.96746   0.76344   0.00000  Uiso   1.00
H1830  H     0.44993   0.67243   0.71739   0.00000  Uiso   1.00
C1831  C     0.41034   0.95359   0.74354   0.00000  Uiso   1.00
H1832  H     0.38055   0.97321   0.75388   0.00000  Uiso   1.00
H1833  H     0.40751   0.93336   0.69578   0.00000  Uiso   1.00
H1834  H     0.41461   0.92443   0.76888   0.00000  Uiso   1.00
O1835  O     0.05375   0.97075   0.86798   0.00000  Uiso   1.00
C1836  C     0.04363   0.67826   0.91416   0.00000  Uiso   1.00
H1837  H     0.03804   0.99773   0.95319   0.00000  Uiso   1.00
H1838  H     0.01747   0.69687   0.89639   0.00000  Uiso   1.00
C1839  C     0.07748   0.72142   0.93519   0.00000  Uiso   1.00
H1840  H     0.08463   0.73973   0.89954   0.00000  Uiso   1.00
H1841  H     0.06473   0.75094   0.97096   0.00000  Uiso   1.00
H1842  H     0.10724   0.70914   0.95394   0.00000  Uiso   1.00
O1843  O     0.03638   0.69383   0.79349   0.00000  Uiso   1.00
C1844  C     0.04217   0.67600   0.73266   0.00000  Uiso   1.00
H1845  H     0.06392   0.70130   0.71688   0.00000  Uiso   1.00
H1846  H     0.01372   0.67962   0.70601   0.00000  Uiso   1.00
C1847  C     0.05502   0.95379   0.71883   0.00000  Uiso   1.00
H1848  H     0.02853   0.92741   0.72376   0.00000  Uiso   1.00
H1849  H     0.06410   0.94139   0.67236   0.00000  Uiso   1.00
H1850  H     0.08248   0.94921   0.74937   0.00000  Uiso   1.00
O1851  O     0.45978   0.97179   0.87871   0.00000  Uiso   1.00
C1852  C     0.45372   0.99229   0.93992   0.00000  Uiso   1.00
H1853  H     0.47595   0.97615   0.96797   0.00000  Uiso   1.00
H1854  H     0.42292   0.98110   0.95421   0.00000  Uiso   1.00
C1855  C     0.45332   0.71766   0.95519   0.00000  Uiso   1.00
H1856  H     0.46233   0.73470   0.91883   0.00000  Uiso   1.00
H1857  H     0.42042   0.73083   0.96229   0.00000  Uiso   1.00
H1858  H     0.47458   0.73459   0.99567   0.00000  Uiso   1.00
C1859  C     0.24067   0.98265   0.74500   0.00000  Uiso   1.00
H1860  H     0.25648   0.99475   0.71076   0.00000  Uiso   1.00
O1861  O     0.21263   0.94900   0.72842   0.00000  Uiso   1.00
C1862  C     0.26217   0.68314   0.91934   0.00000  Uiso   1.00
H1863  H     0.24346   0.67279   0.95266   0.00000  Uiso   1.00
O1864  O     0.29112   0.71564   0.93530   0.00000  Uiso   1.00
C1865  C     0.19398   0.81376   0.99060   0.00000  Uiso   1.00
H1866  H     0.17561   0.84728   0.99165   0.00000  Uiso   1.00
O1867  O     0.17648   0.77183   0.97224   0.00000  Uiso   1.00
C1868  C     0.30503   0.85935   0.67911   0.00000  Uiso   1.00
H1869  H     0.32688   0.82919   0.67946   0.00000  Uiso   1.00
O1870  O     0.31804   0.90348   0.69667   0.00000  Uiso   1.00
C1871  C     0.75009   0.73380   0.81787   0.00000  Uiso   1.00
C1872  C     0.75066   0.93268   0.84843   0.00000  Uiso   1.00
C1873  C     0.51725   0.74002   0.80256   0.00000  Uiso   1.00
C1874  C     0.98131   0.92645   0.86918   0.00000  Uiso   1.00
C1875  C     0.74932   0.67782   0.80891   0.00000  Uiso   1.00
C1876  C     0.75430   0.98814   0.85605   0.00000  Uiso   1.00
C1877  C     0.66456   0.83305   0.83406   0.00000  Uiso   1.00
C1878  C     0.83526   0.83207   0.83234   0.00000  Uiso   1.00
C1879  C     0.90943   0.87899   0.85414   0.00000  Uiso   1.00
C1880  C     0.58994   0.78497   0.81536   0.00000  Uiso   1.00
C1881  C     0.88407   0.83375   0.83145   0.00000  Uiso   1.00
C1882  C     0.61551   0.83122   0.83390   0.00000  Uiso   1.00
C1883  C     0.90534   0.78871   0.81320   0.00000  Uiso   1.00
C1884  C     0.59409   0.87720   0.84417   0.00000  Uiso   1.00
C1885  C     0.95129   0.78750   0.81703   0.00000  Uiso   1.00
C1886  C     0.54815   0.87901   0.84724   0.00000  Uiso   1.00
C1887  C     0.97677   0.83352   0.83406   0.00000  Uiso   1.00
C1888  C     0.52286   0.83283   0.83338   0.00000  Uiso   1.00
C1889  C     0.95585   0.87986   0.85307   0.00000  Uiso   1.00
C1890  C     0.54352   0.78581   0.81652   0.00000  Uiso   1.00
C1891  C     0.97161   0.74071   0.80473   0.00000  Uiso   1.00
C1892  C     0.52755   0.92638   0.86332   0.00000  Uiso   1.00
Cu1893 Cu    0.75500   0.83913   0.89479   0.00000  Uiso   1.00
Cu1894 Cu    0.74499   0.82754   0.77187   0.00000  Uiso   1.00
N1895  N     0.73744   0.81881   0.67951   0.00000  Uiso   1.00
N1896  N     0.76255   0.84786   0.98716   0.00000  Uiso   1.00
O1897  O     0.75325   0.76204   0.87326   0.00000  Uiso   1.00
O1898  O     0.74674   0.90462   0.79341   0.00000  Uiso   1.00
O1899  O     0.74480   0.75226   0.76945   0.00000  Uiso   1.00
O1900  O     0.75520   0.91441   0.89721   0.00000  Uiso   1.00
O1901  O     0.68935   0.83821   0.88524   0.00000  Uiso   1.00
O1902  O     0.81064   0.82845   0.78143   0.00000  Uiso   1.00
O1903  O     0.68090   0.82843   0.78143   0.00000  Uiso   1.00
O1904  O     0.81910   0.83824   0.88523   0.00000  Uiso   1.00
O1905  O     0.89061   0.92011   0.88818   0.00000  Uiso   1.00
C1906  C     0.85621   0.93886   0.85874   0.00000  Uiso   1.00
H1907  H     0.82762   0.93071   0.88011   0.00000  Uiso   1.00
H1908  H     0.85129   0.92194   0.81025   0.00000  Uiso   1.00
C1909  C     0.86094   0.99611   0.87065   0.00000  Uiso   1.00
H1910  H     0.89150   0.67463   0.85699   0.00000  Uiso   1.00
H1911  H     0.83539   0.67772   0.84540   0.00000  Uiso   1.00
H1912  H     0.86020   0.67987   0.91861   0.00000  Uiso   1.00
O1913  O     0.60911   0.73799   0.80107   0.00000  Uiso   1.00
C1914  C     0.63930   0.73537   0.75754   0.00000  Uiso   1.00
H1915  H     0.67077   0.74445   0.78179   0.00000  Uiso   1.00
H1916  H     0.63136   0.75971   0.72626   0.00000  Uiso   1.00
C1917  C     0.64504   0.68221   0.72099   0.00000  Uiso   1.00
H1918  H     0.61957   0.66777   0.68625   0.00000  Uiso   1.00
H1919  H     0.67411   0.68307   0.69606   0.00000  Uiso   1.00
H1920  H     0.64730   0.98905   0.75018   0.00000  Uiso   1.00
O1921  O     0.88005   0.74500   0.79340   0.00000  Uiso   1.00
C1922  C     0.87102   0.73736   0.73166   0.00000  Uiso   1.00
H1923  H     0.89725   0.71747   0.70876   0.00000  Uiso   1.00
H1924  H     0.86712   0.77290   0.71619   0.00000  Uiso   1.00
C1925  C     0.83054   0.70422   0.71381   0.00000  Uiso   1.00
H1926  H     0.80358   0.72836   0.70760   0.00000  Uiso   1.00
H1927  H     0.83400   0.67449   0.67269   0.00000  Uiso   1.00
H1928  H     0.82335   0.68487   0.74907   0.00000  Uiso   1.00
O1929  O     0.61696   0.91850   0.83568   0.00000  Uiso   1.00
C1930  C     0.63931   0.94492   0.88894   0.00000  Uiso   1.00
H1931  H     0.66694   0.92433   0.90188   0.00000  Uiso   1.00
H1932  H     0.61818   0.95321   0.92639   0.00000  Uiso   1.00
C1933  C     0.65669   0.99323   0.87671   0.00000  Uiso   1.00
H1934  H     0.63053   0.68081   0.86153   0.00000  Uiso   1.00
H1935  H     0.67520   0.68330   0.91626   0.00000  Uiso   1.00
H1936  H     0.67597   0.98322   0.83834   0.00000  Uiso   1.00
O1937  O     0.94690   0.69735   0.80695   0.00000  Uiso   1.00
C1938  C     0.94910   0.99052   0.75632   0.00000  Uiso   1.00
H1939  H     0.97626   0.96746   0.76344   0.00000  Uiso   1.00
H1940  H     0.94993   0.67243   0.71739   0.00000  Uiso   1.00
C1941  C     0.91034   0.95359   0.74354   0.00000  Uiso   1.00
H1942  H     0.88055   0.97321   0.75388   0.00000  Uiso   1.00
H1943  H     0.90751   0.93336   0.69578   0.00000  Uiso   1.00
H1944  H     0.91461   0.92443   0.76888   0.00000  Uiso   1.00
O1945  O     0.55375   0.97075   0.86798   0.00000  Uiso   1.00
C1946  C     0.54363   0.67826   0.91416   0.00000  Uiso   1.00
H1947  H     0.53804   0.99773   0.95319   0.00000  Uiso   1.00
H1948  H     0.51747   0.69687   0.89639   0.00000  Uiso   1.00
C1949  C     0.57748   0.72142   0.93519   0.00000  Uiso   1.00
H1950  H     0.58463   0.73973   0.89954   0.00000  Uiso   1.00
H1951  H     0.56473   0.75094   0.97096   0.00000  Uiso   1.00
H1952  H     0.60724   0.70914   0.95394   0.00000  Uiso   1.00
O1953  O     0.53638   0.69383   0.79349   0.00000  Uiso   1.00
C1954  C     0.54217   0.67600   0.73266   0.00000  Uiso   1.00
H1955  H     0.56392   0.70130   0.71688   0.00000  Uiso   1.00
H1956  H     0.51372   0.67962   0.70601   0.00000  Uiso   1.00
C1957  C     0.55502   0.95379   0.71883   0.00000  Uiso   1.00
H1958  H     0.52853   0.92741   0.72376   0.00000  Uiso   1.00
H1959  H     0.56410   0.94139   0.67236   0.00000  Uiso   1.00
H1960  H     0.58248   0.94921   0.74937   0.00000  Uiso   1.00
O1961  O     0.95978   0.97179   0.87871   0.00000  Uiso   1.00
C1962  C     0.95372   0.99229   0.93992   0.00000  Uiso   1.00
H1963  H     0.97595   0.97615   0.96797   0.00000  Uiso   1.00
H1964  H     0.92292   0.98110   0.95421   0.00000  Uiso   1.00
C1965  C     0.95332   0.71766   0.95519   0.00000  Uiso   1.00
H1966  H     0.96233   0.73470   0.91883   0.00000  Uiso   1.00
H1967  H     0.92042   0.73083   0.96229   0.00000  Uiso   1.00
H1968  H     0.97458   0.73459   0.99567   0.00000  Uiso   1.00
C1969  C     0.74067   0.98265   0.74500   0.00000  Uiso   1.00
H1970  H     0.75648   0.99475   0.71076   0.00000  Uiso   1.00
O1971  O     0.71263   0.94900   0.72842   0.00000  Uiso   1.00
C1972  C     0.76217   0.68314   0.91934   0.00000  Uiso   1.00
H1973  H     0.74346   0.67279   0.95266   0.00000  Uiso   1.00
O1974  O     0.79112   0.71564   0.93530   0.00000  Uiso   1.00
C1975  C     0.69398   0.81376   0.99060   0.00000  Uiso   1.00
H1976  H     0.67561   0.84728   0.99165   0.00000  Uiso   1.00
O1977  O     0.67648   0.77183   0.97224   0.00000  Uiso   1.00
C1978  C     0.80503   0.85935   0.67911   0.00000  Uiso   1.00
H1979  H     0.82688   0.82919   0.67946   0.00000  Uiso   1.00
O1980  O     0.81804   0.90348   0.69667   0.00000  Uiso   1.00
loop_
_geom_bond_atom_site_label_1
_geom_bond_atom_site_label_2
_geom_bond_distance
_geom_bond_site_symmetry_2
_ccdc_geom_bond_type
C1     C5      1.484   .     S
C1     O27     1.327   .     A
C1     O29     1.338   .     A
C2     C6      1.475   .     S
C2     O30     1.341   .     A
C2     O28     1.319   .     A
C3     C20     1.426   .     A
C3     O83     1.381   .     S
C3     C131    1.425   1_455 S
C4     C19     1.430   .     A
C4     O91     1.398   .     S
C4     C132    1.454   .     S
C5     C446    1.386   1_545 S
C5     C539    1.504   1_545 S
C6     C225    1.386   .     S
C6     C322    1.489   .     S
C7     O33     1.333   .     A
C7     C12     1.525   .     S
C7     O31     1.350   .     A
C8     C11     1.520   .     S
C8     O32     1.348   .     A
C8     O34     1.332   .     A
C9     C19     1.446   .     A
C9     C11     1.411   .     A
C9     O35     1.376   .     S
C10    C12     1.427   .     A
C10    O43     1.402   .     S
C10    C20     1.447   .     A
C11    C13     1.397   .     A
C12    C14     1.411   .     A
C13    O51     1.371   .     S
C13    C15     1.429   .     A
C14    O59     1.371   .     S
C14    C16     1.438   .     A
C15    C17     1.419   .     A
C15    C21     1.413   .     A
C16    C22     1.435   .     A
C16    C18     1.419   .     A
C17    C19     1.423   .     A
C17    C128    1.436   .     S
C18    C20     1.429   .     A
C18    C127    1.436   1_455 S
C21    O67     1.400   .     S
C21    C113    1.425   .     S
C22    O75     1.413   .     S
C22    C114    1.454   1_455 S
Cu23   N26     2.097   .     S
Cu23   O27     2.032   .     S
Cu23   O30     2.032   .     S
Cu23   O31     2.040   .     S
Cu23   O34     2.021   .     S
Cu24   O29     2.032   .     S
Cu24   N25     2.097   .     S
Cu24   O32     2.040   .     S
Cu24   O28     2.032   .     S
Cu24   O33     2.021   .     S
N25    N1346   1.355   1_554 S
N25    C1425   1.407   1_554 S
N26    N685    1.355   .     S
N26    C768    1.406   .     S
O35    C36     1.406   .     S
C36    H37     1.088   .     S
C36    C39     1.514   .     S
C36    H38     1.109   .     S
C39    H260    1.085   .     S
C39    H261    1.101   .     S
C39    H262    1.102   .     S
H40    C479    1.085   1_545 S
H41    C479    1.101   1_545 S
H42    C479    1.102   1_545 S
O43    C44     1.415   .     S
C44    H46     1.114   .     S
C44    C47     1.513   .     S
C44    H45     1.089   .     S
C47    H49     1.107   .     S
C47    H48     1.087   .     S
C47    H490    1.100   1_545 S
H50    C267    1.100   .     S
O51    C52     1.407   .     S
C52    H53     1.089   .     S
C52    H54     1.114   .     S
C52    C55     1.502   .     S
C55    H56     1.103   .     S
C55    H57     1.108   .     S
C55    H58     1.103   .     S
O59    C60     1.402   .     S
C60    C63     1.500   .     S
C60    H62     1.108   .     S
C60    H61     1.103   .     S
C63    H66     1.091   .     S
C63    H284    1.093   .     S
C63    H285    1.101   .     S
H64    C503    1.093   1_545 S
H65    C503    1.101   1_545 S
O67    C508    1.408   1_545 S
C68    H69     1.094   .     S
C68    C71     1.513   .     S
C68    O287    1.408   .     S
C68    H290    1.081   .     S
H70    C508    1.081   1_545 S
C71    H73     1.111   .     S
C71    H74     1.099   .     S
C71    H72     1.095   .     S
O75    C296    1.407   .     S
C76    H78     1.081   .     S
C76    C79     1.520   .     S
C76    O515    1.407   1_545 S
C76    H517    1.082   1_545 S
H77    C296    1.082   .     S
C79    H80     1.093   .     S
C79    H81     1.111   .     S
C79    H82     1.093   .     S
O83    C84     1.405   .     S
C84    H85     1.090   .     S
C84    H86     1.068   .     S
C84    C527    1.537   1_545 S
C87    H88     1.106   .     S
C87    H90     1.104   .     S
C87    H89     1.109   .     S
C87    C304    1.537   .     S
O91    C92     1.425   .     S
C92    H94     1.092   .     S
C92    H93     1.091   .     S
C92    C315    1.550   .     S
C95    H96     1.101   .     S
C95    H98     1.109   .     S
C95    H97     1.104   .     S
C95    C532    1.550   1_545 S
C99    H100    1.071   .     S
C99    O101    1.220   .     D
C99    C225    1.504   .     S
C102   O104    1.217   .     D
C102   H103    1.081   .     S
C102   C446    1.489   1_545 S
C105   O107    1.216   .     D
C105   H106    1.086   .     S
C105   N685    1.407   .     S
C108   H109    1.082   .     S
C108   O110    1.219   .     D
C108   N1346   1.406   1_554 S
C111   C115    1.484   .     S
C111   O137    1.327   .     A
C111   O139    1.338   .     A
C112   C116    1.475   .     S
C112   O140    1.341   .     A
C112   O138    1.319   .     A
C113   C130    1.426   .     A
C113   O193    1.381   .     S
C114   C129    1.430   .     A
C114   O201    1.398   .     S
C114   C22     1.454   1_655 S
C115   C556    1.386   1_545 S
C115   C649    1.504   1_545 S
C116   C335    1.386   .     S
C116   C432    1.489   .     S
C117   O143    1.333   .     A
C117   C122    1.525   .     S
C117   O141    1.350   .     A
C118   C121    1.520   .     S
C118   O142    1.348   .     A
C118   O144    1.332   .     A
C119   C129    1.446   .     A
C119   C121    1.411   .     A
C119   O145    1.376   .     S
C120   C122    1.427   .     A
C120   O153    1.402   .     S
C120   C130    1.447   .     A
C121   C123    1.397   .     A
C122   C124    1.411   .     A
C123   O161    1.371   .     S
C123   C125    1.429   .     A
C124   O169    1.371   .     S
C124   C126    1.438   .     A
C125   C127    1.419   .     A
C125   C131    1.413   .     A
C126   C132    1.435   .     A
C126   C128    1.419   .     A
C127   C129    1.423   .     A
C127   C18     1.436   1_655 S
C128   C130    1.429   .     A
C131   O177    1.400   .     S
C131   C3      1.425   1_655 S
C132   O185    1.413   .     S
Cu133  N136    2.097   .     S
Cu133  O137    2.032   .     S
Cu133  O140    2.032   .     S
Cu133  O141    2.040   .     S
Cu133  O144    2.021   .     S
Cu134  O139    2.032   .     S
Cu134  N135    2.097   .     S
Cu134  O142    2.040   .     S
Cu134  O138    2.032   .     S
Cu134  O143    2.021   .     S
N135   N1456   1.355   1_554 S
N135   C1535   1.407   1_554 S
N136   N795    1.355   .     S
N136   C878    1.406   .     S
O145   C146    1.406   .     S
C146   H147    1.088   .     S
C146   C149    1.514   .     S
C146   H148    1.109   .     S
C149   H370    1.085   .     S
C149   H371    1.101   .     S
C149   H372    1.102   .     S
H150   C589    1.085   1_545 S
H151   C589    1.101   1_545 S
H152   C589    1.102   1_545 S
O153   C154    1.415   .     S
C154   H156    1.114   .     S
C154   C157    1.513   .     S
C154   H155    1.089   .     S
C157   H159    1.107   .     S
C157   H158    1.087   .     S
C157   H600    1.100   1_545 S
H160   C377    1.100   .     S
O161   C162    1.407   .     S
C162   H163    1.089   .     S
C162   H164    1.114   .     S
C162   C165    1.502   .     S
C165   H166    1.103   .     S
C165   H167    1.108   .     S
C165   H168    1.103   .     S
O169   C170    1.402   .     S
C170   C173    1.500   .     S
C170   H172    1.108   .     S
C170   H171    1.103   .     S
C173   H176    1.091   .     S
C173   H394    1.093   .     S
C173   H395    1.101   .     S
H174   C613    1.093   1_545 S
H175   C613    1.101   1_545 S
O177   C618    1.408   1_545 S
C178   H179    1.094   .     S
C178   C181    1.513   .     S
C178   O397    1.408   .     S
C178   H400    1.081   .     S
H180   C618    1.081   1_545 S
C181   H183    1.111   .     S
C181   H184    1.099   .     S
C181   H182    1.095   .     S
O185   C406    1.407   .     S
C186   H188    1.081   .     S
C186   C189    1.520   .     S
C186   O625    1.407   1_545 S
C186   H627    1.082   1_545 S
H187   C406    1.082   .     S
C189   H190    1.093   .     S
C189   H191    1.111   .     S
C189   H192    1.093   .     S
O193   C194    1.405   .     S
C194   H195    1.090   .     S
C194   H196    1.068   .     S
C194   C637    1.537   1_545 S
C197   H198    1.106   .     S
C197   H200    1.104   .     S
C197   H199    1.109   .     S
C197   C414    1.537   .     S
O201   C202    1.425   .     S
C202   H204    1.092   .     S
C202   H203    1.091   .     S
C202   C425    1.550   .     S
C205   H206    1.101   .     S
C205   H208    1.109   .     S
C205   H207    1.104   .     S
C205   C642    1.550   1_545 S
C209   H210    1.071   .     S
C209   O211    1.220   .     D
C209   C335    1.504   .     S
C212   O214    1.217   .     D
C212   H213    1.081   .     S
C212   C556    1.489   1_545 S
C215   O217    1.216   .     D
C215   H216    1.086   .     S
C215   N795    1.407   .     S
C218   H219    1.082   .     S
C218   O220    1.219   .     D
C218   N1456   1.406   1_554 S
C221   C225    1.484   .     S
C221   O247    1.327   .     A
C221   O249    1.338   .     A
C222   C226    1.475   .     S
C222   O250    1.341   .     A
C222   O248    1.319   .     A
C223   C240    1.426   .     A
C223   O303    1.381   .     S
C223   C351    1.425   1_455 S
C224   C239    1.430   .     A
C224   O311    1.398   .     S
C224   C352    1.454   .     S
C226   C445    1.386   .     S
C226   C542    1.489   .     S
C227   O253    1.333   .     A
C227   C232    1.525   .     S
C227   O251    1.350   .     A
C228   C231    1.520   .     S
C228   O252    1.348   .     A
C228   O254    1.332   .     A
C229   C239    1.446   .     A
C229   C231    1.411   .     A
C229   O255    1.376   .     S
C230   C232    1.427   .     A
C230   O263    1.402   .     S
C230   C240    1.447   .     A
C231   C233    1.397   .     A
C232   C234    1.411   .     A
C233   O271    1.371   .     S
C233   C235    1.429   .     A
C234   O279    1.371   .     S
C234   C236    1.438   .     A
C235   C237    1.419   .     A
C235   C241    1.413   .     A
C236   C242    1.435   .     A
C236   C238    1.419   .     A
C237   C239    1.423   .     A
C237   C348    1.436   .     S
C238   C240    1.429   .     A
C238   C347    1.436   1_455 S
C241   O287    1.400   .     S
C241   C333    1.425   .     S
C242   O295    1.413   .     S
C242   C334    1.454   1_455 S
Cu243  N246    2.097   .     S
Cu243  O247    2.032   .     S
Cu243  O250    2.032   .     S
Cu243  O251    2.040   .     S
Cu243  O254    2.021   .     S
Cu244  O249    2.032   .     S
Cu244  N245    2.097   .     S
Cu244  O252    2.040   .     S
Cu244  O248    2.032   .     S
Cu244  O253    2.021   .     S
N245   N1566   1.355   1_554 S
N245   C1645   1.407   1_554 S
N246   N905    1.355   .     S
N246   C988    1.406   .     S
O255   C256    1.406   .     S
C256   H257    1.088   .     S
C256   C259    1.514   .     S
C256   H258    1.109   .     S
C259   H480    1.085   .     S
C259   H481    1.101   .     S
C259   H482    1.102   .     S
O263   C264    1.415   .     S
C264   H266    1.114   .     S
C264   C267    1.513   .     S
C264   H265    1.089   .     S
C267   H269    1.107   .     S
C267   H268    1.087   .     S
H270   C487    1.100   .     S
O271   C272    1.407   .     S
C272   H273    1.089   .     S
C272   H274    1.114   .     S
C272   C275    1.502   .     S
C275   H276    1.103   .     S
C275   H277    1.108   .     S
C275   H278    1.103   .     S
O279   C280    1.402   .     S
C280   C283    1.500   .     S
C280   H282    1.108   .     S
C280   H281    1.103   .     S
C283   H286    1.091   .     S
C283   H504    1.093   .     S
C283   H505    1.101   .     S
C288   H289    1.094   .     S
C288   C291    1.513   .     S
C288   O507    1.408   .     S
C288   H510    1.081   .     S
C291   H293    1.111   .     S
C291   H294    1.099   .     S
C291   H292    1.095   .     S
O295   C516    1.407   .     S
C296   H298    1.081   .     S
C296   C299    1.520   .     S
H297   C516    1.082   .     S
C299   H300    1.093   .     S
C299   H301    1.111   .     S
C299   H302    1.093   .     S
O303   C304    1.405   .     S
C304   H305    1.090   .     S
C304   H306    1.068   .     S
C307   H308    1.106   .     S
C307   H310    1.104   .     S
C307   H309    1.109   .     S
C307   C524    1.537   .     S
O311   C312    1.425   .     S
C312   H314    1.092   .     S
C312   H313    1.091   .     S
C312   C535    1.550   .     S
C315   H316    1.101   .     S
C315   H318    1.109   .     S
C315   H317    1.104   .     S
C319   H320    1.071   .     S
C319   O321    1.220   .     D
C319   C445    1.504   .     S
C322   O324    1.217   .     D
C322   H323    1.081   .     S
C325   O327    1.216   .     D
C325   H326    1.086   .     S
C325   N905    1.407   .     S
C328   H329    1.082   .     S
C328   O330    1.219   .     D
C328   N1566   1.406   1_554 S
C331   C335    1.484   .     S
C331   O357    1.327   .     A
C331   O359    1.338   .     A
C332   C336    1.475   .     S
C332   O360    1.341   .     A
C332   O358    1.319   .     A
C333   C350    1.426   .     A
C333   O413    1.381   .     S
C334   C349    1.430   .     A
C334   O421    1.398   .     S
C334   C242    1.454   1_655 S
C336   C555    1.386   .     S
C336   C652    1.489   .     S
C337   O363    1.333   .     A
C337   C342    1.525   .     S
C337   O361    1.350   .     A
C338   C341    1.520   .     S
C338   O362    1.348   .     A
C338   O364    1.332   .     A
C339   C349    1.446   .     A
C339   C341    1.411   .     A
C339   O365    1.376   .     S
C340   C342    1.427   .     A
C340   O373    1.402   .     S
C340   C350    1.447   .     A
C341   C343    1.397   .     A
C342   C344    1.411   .     A
C343   O381    1.371   .     S
C343   C345    1.429   .     A
C344   O389    1.371   .     S
C344   C346    1.438   .     A
C345   C347    1.419   .     A
C345   C351    1.413   .     A
C346   C352    1.435   .     A
C346   C348    1.419   .     A
C347   C349    1.423   .     A
C347   C238    1.436   1_655 S
C348   C350    1.429   .     A
C351   O397    1.400   .     S
C351   C223    1.425   1_655 S
C352   O405    1.413   .     S
Cu353  N356    2.097   .     S
Cu353  O357    2.032   .     S
Cu353  O360    2.032   .     S
Cu353  O361    2.040   .     S
Cu353  O364    2.021   .     S
Cu354  O359    2.032   .     S
Cu354  N355    2.097   .     S
Cu354  O362    2.040   .     S
Cu354  O358    2.032   .     S
Cu354  O363    2.021   .     S
N355   N1676   1.355   1_554 S
N355   C1755   1.407   1_554 S
N356   N1015   1.355   .     S
N356   C1098   1.406   .     S
O365   C366    1.406   .     S
C366   H367    1.088   .     S
C366   C369    1.514   .     S
C366   H368    1.109   .     S
C369   H590    1.085   .     S
C369   H591    1.101   .     S
C369   H592    1.102   .     S
O373   C374    1.415   .     S
C374   H376    1.114   .     S
C374   C377    1.513   .     S
C374   H375    1.089   .     S
C377   H379    1.107   .     S
C377   H378    1.087   .     S
H380   C597    1.100   .     S
O381   C382    1.407   .     S
C382   H383    1.089   .     S
C382   H384    1.114   .     S
C382   C385    1.502   .     S
C385   H386    1.103   .     S
C385   H387    1.108   .     S
C385   H388    1.103   .     S
O389   C390    1.402   .     S
C390   C393    1.500   .     S
C390   H392    1.108   .     S
C390   H391    1.103   .     S
C393   H396    1.091   .     S
C393   H614    1.093   .     S
C393   H615    1.101   .     S
C398   H399    1.094   .     S
C398   C401    1.513   .     S
C398   O617    1.408   .     S
C398   H620    1.081   .     S
C401   H403    1.111   .     S
C401   H404    1.099   .     S
C401   H402    1.095   .     S
O405   C626    1.407   .     S
C406   H408    1.081   .     S
C406   C409    1.520   .     S
H407   C626    1.082   .     S
C409   H410    1.093   .     S
C409   H411    1.111   .     S
C409   H412    1.093   .     S
O413   C414    1.405   .     S
C414   H415    1.090   .     S
C414   H416    1.068   .     S
C417   H418    1.106   .     S
C417   H420    1.104   .     S
C417   H419    1.109   .     S
C417   C634    1.537   .     S
O421   C422    1.425   .     S
C422   H424    1.092   .     S
C422   H423    1.091   .     S
C422   C645    1.550   .     S
C425   H426    1.101   .     S
C425   H428    1.109   .     S
C425   H427    1.104   .     S
C429   H430    1.071   .     S
C429   O431    1.220   .     D
C429   C555    1.504   .     S
C432   O434    1.217   .     D
C432   H433    1.081   .     S
C435   O437    1.216   .     D
C435   H436    1.086   .     S
C435   N1015   1.407   .     S
C438   H439    1.082   .     S
C438   O440    1.219   .     D
C438   N1676   1.406   1_554 S
C441   C445    1.484   .     S
C441   O467    1.327   .     A
C441   O469    1.338   .     A
C442   C446    1.475   .     S
C442   O470    1.341   .     A
C442   O468    1.319   .     A
C443   C460    1.426   .     A
C443   O523    1.381   .     S
C443   C571    1.425   1_455 S
C444   C459    1.430   .     A
C444   O531    1.398   .     S
C444   C572    1.454   .     S
C446   C5      1.386   1_565 S
C446   C102    1.489   1_565 S
C447   O473    1.333   .     A
C447   C452    1.525   .     S
C447   O471    1.350   .     A
C448   C451    1.520   .     S
C448   O472    1.348   .     A
C448   O474    1.332   .     A
C449   C459    1.446   .     A
C449   C451    1.411   .     A
C449   O475    1.376   .     S
C450   C452    1.427   .     A
C450   O483    1.402   .     S
C450   C460    1.447   .     A
C451   C453    1.397   .     A
C452   C454    1.411   .     A
C453   O491    1.371   .     S
C453   C455    1.429   .     A
C454   O499    1.371   .     S
C454   C456    1.438   .     A
C455   C457    1.419   .     A
C455   C461    1.413   .     A
C456   C462    1.435   .     A
C456   C458    1.419   .     A
C457   C459    1.423   .     A
C457   C568    1.436   .     S
C458   C460    1.429   .     A
C458   C567    1.436   1_455 S
C461   O507    1.400   .     S
C461   C553    1.425   .     S
C462   O515    1.413   .     S
C462   C554    1.454   1_455 S
Cu463  N466    2.097   .     S
Cu463  O467    2.032   .     S
Cu463  O470    2.032   .     S
Cu463  O471    2.040   .     S
Cu463  O474    2.021   .     S
Cu464  O469    2.032   .     S
Cu464  N465    2.097   .     S
Cu464  O472    2.040   .     S
Cu464  O468    2.032   .     S
Cu464  O473    2.021   .     S
N465   N1786   1.355   1_554 S
N465   C1865   1.407   1_554 S
N466   N1125   1.355   .     S
N466   C1208   1.406   .     S
O475   C476    1.406   .     S
C476   H477    1.088   .     S
C476   C479    1.514   .     S
C476   H478    1.109   .     S
C479   H40     1.085   1_565 S
C479   H41     1.101   1_565 S
C479   H42     1.102   1_565 S
O483   C484    1.415   .     S
C484   H486    1.114   .     S
C484   C487    1.513   .     S
C484   H485    1.089   .     S
C487   H489    1.107   .     S
C487   H488    1.087   .     S
H490   C47     1.100   1_565 S
O491   C492    1.407   .     S
C492   H493    1.089   .     S
C492   H494    1.114   .     S
C492   C495    1.502   .     S
C495   H496    1.103   .     S
C495   H497    1.108   .     S
C495   H498    1.103   .     S
O499   C500    1.402   .     S
C500   C503    1.500   .     S
C500   H502    1.108   .     S
C500   H501    1.103   .     S
C503   H506    1.091   .     S
C503   H64     1.093   1_565 S
C503   H65     1.101   1_565 S
C508   H509    1.094   .     S
C508   C511    1.513   .     S
C508   O67     1.408   1_565 S
C508   H70     1.081   1_565 S
C511   H513    1.111   .     S
C511   H514    1.099   .     S
C511   H512    1.095   .     S
O515   C76     1.407   1_565 S
C516   H518    1.081   .     S
C516   C519    1.520   .     S
H517   C76     1.082   1_565 S
C519   H520    1.093   .     S
C519   H521    1.111   .     S
C519   H522    1.093   .     S
O523   C524    1.405   .     S
C524   H525    1.090   .     S
C524   H526    1.068   .     S
C527   H528    1.106   .     S
C527   H530    1.104   .     S
C527   H529    1.109   .     S
C527   C84     1.537   1_565 S
O531   C532    1.425   .     S
C532   H534    1.092   .     S
C532   H533    1.091   .     S
C532   C95     1.550   1_565 S
C535   H536    1.101   .     S
C535   H538    1.109   .     S
C535   H537    1.104   .     S
C539   H540    1.071   .     S
C539   O541    1.220   .     D
C539   C5      1.504   1_565 S
C542   O544    1.217   .     D
C542   H543    1.081   .     S
C545   O547    1.216   .     D
C545   H546    1.086   .     S
C545   N1125   1.407   .     S
C548   H549    1.082   .     S
C548   O550    1.219   .     D
C548   N1786   1.406   1_554 S
C551   C555    1.484   .     S
C551   O577    1.327   .     A
C551   O579    1.338   .     A
C552   C556    1.475   .     S
C552   O580    1.341   .     A
C552   O578    1.319   .     A
C553   C570    1.426   .     A
C553   O633    1.381   .     S
C554   C569    1.430   .     A
C554   O641    1.398   .     S
C554   C462    1.454   1_655 S
C556   C115    1.386   1_565 S
C556   C212    1.489   1_565 S
C557   O583    1.333   .     A
C557   C562    1.525   .     S
C557   O581    1.350   .     A
C558   C561    1.520   .     S
C558   O582    1.348   .     A
C558   O584    1.332   .     A
C559   C569    1.446   .     A
C559   C561    1.411   .     A
C559   O585    1.376   .     S
C560   C562    1.427   .     A
C560   O593    1.402   .     S
C560   C570    1.447   .     A
C561   C563    1.397   .     A
C562   C564    1.411   .     A
C563   O601    1.371   .     S
C563   C565    1.429   .     A
C564   O609    1.371   .     S
C564   C566    1.438   .     A
C565   C567    1.419   .     A
C565   C571    1.413   .     A
C566   C572    1.435   .     A
C566   C568    1.419   .     A
C567   C569    1.423   .     A
C567   C458    1.436   1_655 S
C568   C570    1.429   .     A
C571   O617    1.400   .     S
C571   C443    1.425   1_655 S
C572   O625    1.413   .     S
Cu573  N576    2.097   .     S
Cu573  O577    2.032   .     S
Cu573  O580    2.032   .     S
Cu573  O581    2.040   .     S
Cu573  O584    2.021   .     S
Cu574  O579    2.032   .     S
Cu574  N575    2.097   .     S
Cu574  O582    2.040   .     S
Cu574  O578    2.032   .     S
Cu574  O583    2.021   .     S
N575   N1896   1.355   1_554 S
N575   C1975   1.407   1_554 S
N576   N1235   1.355   .     S
N576   C1318   1.406   .     S
O585   C586    1.406   .     S
C586   H587    1.088   .     S
C586   C589    1.514   .     S
C586   H588    1.109   .     S
C589   H150    1.085   1_565 S
C589   H151    1.101   1_565 S
C589   H152    1.102   1_565 S
O593   C594    1.415   .     S
C594   H596    1.114   .     S
C594   C597    1.513   .     S
C594   H595    1.089   .     S
C597   H599    1.107   .     S
C597   H598    1.087   .     S
H600   C157    1.100   1_565 S
O601   C602    1.407   .     S
C602   H603    1.089   .     S
C602   H604    1.114   .     S
C602   C605    1.502   .     S
C605   H606    1.103   .     S
C605   H607    1.108   .     S
C605   H608    1.103   .     S
O609   C610    1.402   .     S
C610   C613    1.500   .     S
C610   H612    1.108   .     S
C610   H611    1.103   .     S
C613   H616    1.091   .     S
C613   H174    1.093   1_565 S
C613   H175    1.101   1_565 S
C618   H619    1.094   .     S
C618   C621    1.513   .     S
C618   O177    1.408   1_565 S
C618   H180    1.081   1_565 S
C621   H623    1.111   .     S
C621   H624    1.099   .     S
C621   H622    1.095   .     S
O625   C186    1.407   1_565 S
C626   H628    1.081   .     S
C626   C629    1.520   .     S
H627   C186    1.082   1_565 S
C629   H630    1.093   .     S
C629   H631    1.111   .     S
C629   H632    1.093   .     S
O633   C634    1.405   .     S
C634   H635    1.090   .     S
C634   H636    1.068   .     S
C637   H638    1.106   .     S
C637   H640    1.104   .     S
C637   H639    1.109   .     S
C637   C194    1.537   1_565 S
O641   C642    1.425   .     S
C642   H644    1.092   .     S
C642   H643    1.091   .     S
C642   C205    1.550   1_565 S
C645   H646    1.101   .     S
C645   H648    1.109   .     S
C645   H647    1.104   .     S
C649   H650    1.071   .     S
C649   O651    1.220   .     D
C649   C115    1.504   1_565 S
C652   O654    1.217   .     D
C652   H653    1.081   .     S
C655   O657    1.216   .     D
C655   H656    1.086   .     S
C655   N1235   1.407   .     S
C658   H659    1.082   .     S
C658   O660    1.219   .     D
C658   N1896   1.406   1_554 S
C661   C665    1.484   .     S
C661   O687    1.327   .     A
C661   O689    1.338   .     A
C662   C666    1.475   .     S
C662   O690    1.341   .     A
C662   O688    1.319   .     A
C663   C680    1.426   .     A
C663   O743    1.381   .     S
C663   C791    1.425   1_455 S
C664   C679    1.430   .     A
C664   O751    1.398   .     S
C664   C792    1.454   .     S
C665   C1106   1.386   1_545 S
C665   C1199   1.504   1_545 S
C666   C885    1.386   .     S
C666   C982    1.489   .     S
C667   O693    1.333   .     A
C667   C672    1.525   .     S
C667   O691    1.350   .     A
C668   C671    1.520   .     S
C668   O692    1.348   .     A
C668   O694    1.332   .     A
C669   C679    1.446   .     A
C669   C671    1.411   .     A
C669   O695    1.376   .     S
C670   C672    1.427   .     A
C670   O703    1.402   .     S
C670   C680    1.447   .     A
C671   C673    1.397   .     A
C672   C674    1.411   .     A
C673   O711    1.371   .     S
C673   C675    1.429   .     A
C674   O719    1.371   .     S
C674   C676    1.438   .     A
C675   C677    1.419   .     A
C675   C681    1.413   .     A
C676   C682    1.435   .     A
C676   C678    1.419   .     A
C677   C679    1.423   .     A
C677   C788    1.436   .     S
C678   C680    1.429   .     A
C678   C787    1.436   1_455 S
C681   O727    1.400   .     S
C681   C773    1.425   .     S
C682   O735    1.413   .     S
C682   C774    1.454   1_455 S
Cu683  N686    2.097   .     S
Cu683  O687    2.032   .     S
Cu683  O690    2.032   .     S
Cu683  O691    2.040   .     S
Cu683  O694    2.021   .     S
Cu684  O689    2.032   .     S
Cu684  N685    2.097   .     S
Cu684  O692    2.040   .     S
Cu684  O688    2.032   .     S
Cu684  O693    2.021   .     S
N686   N1345   1.355   .     S
N686   C1428   1.406   .     S
O695   C696    1.406   .     S
C696   H697    1.088   .     S
C696   C699    1.514   .     S
C696   H698    1.109   .     S
C699   H920    1.085   .     S
C699   H921    1.101   .     S
C699   H922    1.102   .     S
H700   C1139   1.085   1_545 S
H701   C1139   1.101   1_545 S
H702   C1139   1.102   1_545 S
O703   C704    1.415   .     S
C704   H706    1.114   .     S
C704   C707    1.513   .     S
C704   H705    1.089   .     S
C707   H709    1.107   .     S
C707   H708    1.087   .     S
C707   H1150   1.100   1_545 S
H710   C927    1.100   .     S
O711   C712    1.407   .     S
C712   H713    1.089   .     S
C712   H714    1.114   .     S
C712   C715    1.502   .     S
C715   H716    1.103   .     S
C715   H717    1.108   .     S
C715   H718    1.103   .     S
O719   C720    1.402   .     S
C720   C723    1.500   .     S
C720   H722    1.108   .     S
C720   H721    1.103   .     S
C723   H726    1.091   .     S
C723   H944    1.093   .     S
C723   H945    1.101   .     S
H724   C1163   1.093   1_545 S
H725   C1163   1.101   1_545 S
O727   C1168   1.408   1_545 S
C728   H729    1.094   .     S
C728   C731    1.513   .     S
C728   O947    1.408   .     S
C728   H950    1.081   .     S
H730   C1168   1.081   1_545 S
C731   H733    1.111   .     S
C731   H734    1.099   .     S
C731   H732    1.095   .     S
O735   C956    1.407   .     S
C736   H738    1.081   .     S
C736   C739    1.520   .     S
C736   O1175   1.407   1_545 S
C736   H1177   1.082   1_545 S
H737   C956    1.082   .     S
C739   H740    1.093   .     S
C739   H741    1.111   .     S
C739   H742    1.093   .     S
O743   C744    1.405   .     S
C744   H745    1.090   .     S
C744   H746    1.068   .     S
C744   C1187   1.537   1_545 S
C747   H748    1.106   .     S
C747   H750    1.104   .     S
C747   H749    1.109   .     S
C747   C964    1.537   .     S
O751   C752    1.425   .     S
C752   H754    1.092   .     S
C752   H753    1.091   .     S
C752   C975    1.550   .     S
C755   H756    1.101   .     S
C755   H758    1.109   .     S
C755   H757    1.104   .     S
C755   C1192   1.550   1_545 S
C759   H760    1.071   .     S
C759   O761    1.220   .     D
C759   C885    1.504   .     S
C762   O764    1.217   .     D
C762   H763    1.081   .     S
C762   C1106   1.489   1_545 S
C765   O767    1.216   .     D
C765   H766    1.086   .     S
C765   N1345   1.407   .     S
C768   H769    1.082   .     S
C768   O770    1.219   .     D
C771   C775    1.484   .     S
C771   O797    1.327   .     A
C771   O799    1.338   .     A
C772   C776    1.475   .     S
C772   O800    1.341   .     A
C772   O798    1.319   .     A
C773   C790    1.426   .     A
C773   O853    1.381   .     S
C774   C789    1.430   .     A
C774   O861    1.398   .     S
C774   C682    1.454   1_655 S
C775   C1216   1.386   1_545 S
C775   C1309   1.504   1_545 S
C776   C995    1.386   .     S
C776   C1092   1.489   .     S
C777   O803    1.333   .     A
C777   C782    1.525   .     S
C777   O801    1.350   .     A
C778   C781    1.520   .     S
C778   O802    1.348   .     A
C778   O804    1.332   .     A
C779   C789    1.446   .     A
C779   C781    1.411   .     A
C779   O805    1.376   .     S
C780   C782    1.427   .     A
C780   O813    1.402   .     S
C780   C790    1.447   .     A
C781   C783    1.397   .     A
C782   C784    1.411   .     A
C783   O821    1.371   .     S
C783   C785    1.429   .     A
C784   O829    1.371   .     S
C784   C786    1.438   .     A
C785   C787    1.419   .     A
C785   C791    1.413   .     A
C786   C792    1.435   .     A
C786   C788    1.419   .     A
C787   C789    1.423   .     A
C787   C678    1.436   1_655 S
C788   C790    1.429   .     A
C791   O837    1.400   .     S
C791   C663    1.425   1_655 S
C792   O845    1.413   .     S
Cu793  N796    2.097   .     S
Cu793  O797    2.032   .     S
Cu793  O800    2.032   .     S
Cu793  O801    2.040   .     S
Cu793  O804    2.021   .     S
Cu794  O799    2.032   .     S
Cu794  N795    2.097   .     S
Cu794  O802    2.040   .     S
Cu794  O798    2.032   .     S
Cu794  O803    2.021   .     S
N796   N1455   1.355   .     S
N796   C1538   1.406   .     S
O805   C806    1.406   .     S
C806   H807    1.088   .     S
C806   C809    1.514   .     S
C806   H808    1.109   .     S
C809   H1030   1.085   .     S
C809   H1031   1.101   .     S
C809   H1032   1.102   .     S
H810   C1249   1.085   1_545 S
H811   C1249   1.101   1_545 S
H812   C1249   1.102   1_545 S
O813   C814    1.415   .     S
C814   H816    1.114   .     S
C814   C817    1.513   .     S
C814   H815    1.089   .     S
C817   H819    1.107   .     S
C817   H818    1.087   .     S
C817   H1260   1.100   1_545 S
H820   C1037   1.100   .     S
O821   C822    1.407   .     S
C822   H823    1.089   .     S
C822   H824    1.114   .     S
C822   C825    1.502   .     S
C825   H826    1.103   .     S
C825   H827    1.108   .     S
C825   H828    1.103   .     S
O829   C830    1.402   .     S
C830   C833    1.500   .     S
C830   H832    1.108   .     S
C830   H831    1.103   .     S
C833   H836    1.091   .     S
C833   H1054   1.093   .     S
C833   H1055   1.101   .     S
H834   C1273   1.093   1_545 S
H835   C1273   1.101   1_545 S
O837   C1278   1.408   1_545 S
C838   H839    1.094   .     S
C838   C841    1.513   .     S
C838   O1057   1.408   .     S
C838   H1060   1.081   .     S
H840   C1278   1.081   1_545 S
C841   H843    1.111   .     S
C841   H844    1.099   .     S
C841   H842    1.095   .     S
O845   C1066   1.407   .     S
C846   H848    1.081   .     S
C846   C849    1.520   .     S
C846   O1285   1.407   1_545 S
C846   H1287   1.082   1_545 S
H847   C1066   1.082   .     S
C849   H850    1.093   .     S
C849   H851    1.111   .     S
C849   H852    1.093   .     S
O853   C854    1.405   .     S
C854   H855    1.090   .     S
C854   H856    1.068   .     S
C854   C1297   1.537   1_545 S
C857   H858    1.106   .     S
C857   H860    1.104   .     S
C857   H859    1.109   .     S
C857   C1074   1.537   .     S
O861   C862    1.425   .     S
C862   H864    1.092   .     S
C862   H863    1.091   .     S
C862   C1085   1.550   .     S
C865   H866    1.101   .     S
C865   H868    1.109   .     S
C865   H867    1.104   .     S
C865   C1302   1.550   1_545 S
C869   H870    1.071   .     S
C869   O871    1.220   .     D
C869   C995    1.504   .     S
C872   O874    1.217   .     D
C872   H873    1.081   .     S
C872   C1216   1.489   1_545 S
C875   O877    1.216   .     D
C875   H876    1.086   .     S
C875   N1455   1.407   .     S
C878   H879    1.082   .     S
C878   O880    1.219   .     D
C881   C885    1.484   .     S
C881   O907    1.327   .     A
C881   O909    1.338   .     A
C882   C886    1.475   .     S
C882   O910    1.341   .     A
C882   O908    1.319   .     A
C883   C900    1.426   .     A
C883   O963    1.381   .     S
C883   C1011   1.425   1_455 S
C884   C899    1.430   .     A
C884   O971    1.398   .     S
C884   C1012   1.454   .     S
C886   C1105   1.386   .     S
C886   C1202   1.489   .     S
C887   O913    1.333   .     A
C887   C892    1.525   .     S
C887   O911    1.350   .     A
C888   C891    1.520   .     S
C888   O912    1.348   .     A
C888   O914    1.332   .     A
C889   C899    1.446   .     A
C889   C891    1.411   .     A
C889   O915    1.376   .     S
C890   C892    1.427   .     A
C890   O923    1.402   .     S
C890   C900    1.447   .     A
C891   C893    1.397   .     A
C892   C894    1.411   .     A
C893   O931    1.371   .     S
C893   C895    1.429   .     A
C894   O939    1.371   .     S
C894   C896    1.438   .     A
C895   C897    1.419   .     A
C895   C901    1.413   .     A
C896   C902    1.435   .     A
C896   C898    1.419   .     A
C897   C899    1.423   .     A
C897   C1008   1.436   .     S
C898   C900    1.429   .     A
C898   C1007   1.436   1_455 S
C901   O947    1.400   .     S
C901   C993    1.425   .     S
C902   O955    1.413   .     S
C902   C994    1.454   1_455 S
Cu903  N906    2.097   .     S
Cu903  O907    2.032   .     S
Cu903  O910    2.032   .     S
Cu903  O911    2.040   .     S
Cu903  O914    2.021   .     S
Cu904  O909    2.032   .     S
Cu904  N905    2.097   .     S
Cu904  O912    2.040   .     S
Cu904  O908    2.032   .     S
Cu904  O913    2.021   .     S
N906   N1565   1.355   .     S
N906   C1648   1.406   .     S
O915   C916    1.406   .     S
C916   H917    1.088   .     S
C916   C919    1.514   .     S
C916   H918    1.109   .     S
C919   H1140   1.085   .     S
C919   H1141   1.101   .     S
C919   H1142   1.102   .     S
O923   C924    1.415   .     S
C924   H926    1.114   .     S
C924   C927    1.513   .     S
C924   H925    1.089   .     S
C927   H929    1.107   .     S
C927   H928    1.087   .     S
H930   C1147   1.100   .     S
O931   C932    1.407   .     S
C932   H933    1.089   .     S
C932   H934    1.114   .     S
C932   C935    1.502   .     S
C935   H936    1.103   .     S
C935   H937    1.108   .     S
C935   H938    1.103   .     S
O939   C940    1.402   .     S
C940   C943    1.500   .     S
C940   H942    1.108   .     S
C940   H941    1.103   .     S
C943   H946    1.091   .     S
C943   H1164   1.093   .     S
C943   H1165   1.101   .     S
C948   H949    1.094   .     S
C948   C951    1.513   .     S
C948   O1167   1.408   .     S
C948   H1170   1.081   .     S
C951   H953    1.111   .     S
C951   H954    1.099   .     S
C951   H952    1.095   .     S
O955   C1176   1.407   .     S
C956   H958    1.081   .     S
C956   C959    1.520   .     S
H957   C1176   1.082   .     S
C959   H960    1.093   .     S
C959   H961    1.111   .     S
C959   H962    1.093   .     S
O963   C964    1.405   .     S
C964   H965    1.090   .     S
C964   H966    1.068   .     S
C967   H968    1.106   .     S
C967   H970    1.104   .     S
C967   H969    1.109   .     S
C967   C1184   1.537   .     S
O971   C972    1.425   .     S
C972   H974    1.092   .     S
C972   H973    1.091   .     S
C972   C1195   1.550   .     S
C975   H976    1.101   .     S
C975   H978    1.109   .     S
C975   H977    1.104   .     S
C979   H980    1.071   .     S
C979   O981    1.220   .     D
C979   C1105   1.504   .     S
C982   O984    1.217   .     D
C982   H983    1.081   .     S
C985   O987    1.216   .     D
C985   H986    1.086   .     S
C985   N1565   1.407   .     S
C988   H989    1.082   .     S
C988   O990    1.219   .     D
C991   C995    1.484   .     S
C991   O1017   1.327   .     A
C991   O1019   1.338   .     A
C992   C996    1.475   .     S
C992   O1020   1.341   .     A
C992   O1018   1.319   .     A
C993   C1010   1.426   .     A
C993   O1073   1.381   .     S
C994   C1009   1.430   .     A
C994   O1081   1.398   .     S
C994   C902    1.454   1_655 S
C996   C1215   1.386   .     S
C996   C1312   1.489   .     S
C997   O1023   1.333   .     A
C997   C1002   1.525   .     S
C997   O1021   1.350   .     A
C998   C1001   1.520   .     S
C998   O1022   1.348   .     A
C998   O1024   1.332   .     A
C999   C1009   1.446   .     A
C999   C1001   1.411   .     A
C999   O1025   1.376   .     S
C1000  C1002   1.427   .     A
C1000  O1033   1.402   .     S
C1000  C1010   1.447   .     A
C1001  C1003   1.397   .     A
C1002  C1004   1.411   .     A
C1003  O1041   1.371   .     S
C1003  C1005   1.429   .     A
C1004  O1049   1.371   .     S
C1004  C1006   1.438   .     A
C1005  C1007   1.419   .     A
C1005  C1011   1.413   .     A
C1006  C1012   1.435   .     A
C1006  C1008   1.419   .     A
C1007  C1009   1.423   .     A
C1007  C898    1.436   1_655 S
C1008  C1010   1.429   .     A
C1011  O1057   1.400   .     S
C1011  C883    1.425   1_655 S
C1012  O1065   1.413   .     S
Cu1013 N1016   2.097   .     S
Cu1013 O1017   2.032   .     S
Cu1013 O1020   2.032   .     S
Cu1013 O1021   2.040   .     S
Cu1013 O1024   2.021   .     S
Cu1014 O1019   2.032   .     S
Cu1014 N1015   2.097   .     S
Cu1014 O1022   2.040   .     S
Cu1014 O1018   2.032   .     S
Cu1014 O1023   2.021   .     S
N1016  N1675   1.355   .     S
N1016  C1758   1.406   .     S
O1025  C1026   1.406   .     S
C1026  H1027   1.088   .     S
C1026  C1029   1.514   .     S
C1026  H1028   1.109   .     S
C1029  H1250   1.085   .     S
C1029  H1251   1.101   .     S
C1029  H1252   1.102   .     S
O1033  C1034   1.415   .     S
C1034  H1036   1.114   .     S
C1034  C1037   1.513   .     S
C1034  H1035   1.089   .     S
C1037  H1039   1.107   .     S
C1037  H1038   1.087   .     S
H1040  C1257   1.100   .     S
O1041  C1042   1.407   .     S
C1042  H1043   1.089   .     S
C1042  H1044   1.114   .     S
C1042  C1045   1.502   .     S
C1045  H1046   1.103   .     S
C1045  H1047   1.108   .     S
C1045  H1048   1.103   .     S
O1049  C1050   1.402   .     S
C1050  C1053   1.500   .     S
C1050  H1052   1.108   .     S
C1050  H1051   1.103   .     S
C1053  H1056   1.091   .     S
C1053  H1274   1.093   .     S
C1053  H1275   1.101   .     S
C1058  H1059   1.094   .     S
C1058  C1061   1.513   .     S
C1058  O1277   1.408   .     S
C1058  H1280   1.081   .     S
C1061  H1063   1.111   .     S
C1061  H1064   1.099   .     S
C1061  H1062   1.095   .     S
O1065  C1286   1.407   .     S
C1066  H1068   1.081   .     S
C1066  C1069   1.520   .     S
H1067  C1286   1.082   .     S
C1069  H1070   1.093   .     S
C1069  H1071   1.111   .     S
C1069  H1072   1.093   .     S
O1073  C1074   1.405   .     S
C1074  H1075   1.090   .     S
C1074  H1076   1.068   .     S
C1077  H1078   1.106   .     S
C1077  H1080   1.104   .     S
C1077  H1079   1.109   .     S
C1077  C1294   1.537   .     S
O1081  C1082   1.425   .     S
C1082  H1084   1.092   .     S
C1082  H1083   1.091   .     S
C1082  C1305   1.550   .     S
C1085  H1086   1.101   .     S
C1085  H1088   1.109   .     S
C1085  H1087   1.104   .     S
C1089  H1090   1.071   .     S
C1089  O1091   1.220   .     D
C1089  C1215   1.504   .     S
C1092  O1094   1.217   .     D
C1092  H1093   1.081   .     S
C1095  O1097   1.216   .     D
C1095  H1096   1.086   .     S
C1095  N1675   1.407   .     S
C1098  H1099   1.082   .     S
C1098  O1100   1.219   .     D
C1101  C1105   1.484   .     S
C1101  O1127   1.327   .     A
C1101  O1129   1.338   .     A
C1102  C1106   1.475   .     S
C1102  O1130   1.341   .     A
C1102  O1128   1.319   .     A
C1103  C1120   1.426   .     A
C1103  O1183   1.381   .     S
C1103  C1231   1.425   1_455 S
C1104  C1119   1.430   .     A
C1104  O1191   1.398   .     S
C1104  C1232   1.454   .     S
C1106  C665    1.386   1_565 S
C1106  C762    1.489   1_565 S
C1107  O1133   1.333   .     A
C1107  C1112   1.525   .     S
C1107  O1131   1.350   .     A
C1108  C1111   1.520   .     S
C1108  O1132   1.348   .     A
C1108  O1134   1.332   .     A
C1109  C1119   1.446   .     A
C1109  C1111   1.411   .     A
C1109  O1135   1.376   .     S
C1110  C1112   1.427   .     A
C1110  O1143   1.402   .     S
C1110  C1120   1.447   .     A
C1111  C1113   1.397   .     A
C1112  C1114   1.411   .     A
C1113  O1151   1.371   .     S
C1113  C1115   1.429   .     A
C1114  O1159   1.371   .     S
C1114  C1116   1.438   .     A
C1115  C1117   1.419   .     A
C1115  C1121   1.413   .     A
C1116  C1122   1.435   .     A
C1116  C1118   1.419   .     A
C1117  C1119   1.423   .     A
C1117  C1228   1.436   .     S
C1118  C1120   1.429   .     A
C1118  C1227   1.436   1_455 S
C1121  O1167   1.400   .     S
C1121  C1213   1.425   .     S
C1122  O1175   1.413   .     S
C1122  C1214   1.454   1_455 S
Cu1123 N1126   2.097   .     S
Cu1123 O1127   2.032   .     S
Cu1123 O1130   2.032   .     S
Cu1123 O1131   2.040   .     S
Cu1123 O1134   2.021   .     S
Cu1124 O1129   2.032   .     S
Cu1124 N1125   2.097   .     S
Cu1124 O1132   2.040   .     S
Cu1124 O1128   2.032   .     S
Cu1124 O1133   2.021   .     S
N1126  N1785   1.355   .     S
N1126  C1868   1.406   .     S
O1135  C1136   1.406   .     S
C1136  H1137   1.088   .     S
C1136  C1139   1.514   .     S
C1136  H1138   1.109   .     S
C1139  H700    1.085   1_565 S
C1139  H701    1.101   1_565 S
C1139  H702    1.102   1_565 S
O1143  C1144   1.415   .     S
C1144  H1146   1.114   .     S
C1144  C1147   1.513   .     S
C1144  H1145   1.089   .     S
C1147  H1149   1.107   .     S
C1147  H1148   1.087   .     S
H1150  C707    1.100   1_565 S
O1151  C1152   1.407   .     S
C1152  H1153   1.089   .     S
C1152  H1154   1.114   .     S
C1152  C1155   1.502   .     S
C1155  H1156   1.103   .     S
C1155  H1157   1.108   .     S
C1155  H1158   1.103   .     S
O1159  C1160   1.402   .     S
C1160  C1163   1.500   .     S
C1160  H1162   1.108   .     S
C1160  H1161   1.103   .     S
C1163  H1166   1.091   .     S
C1163  H724    1.093   1_565 S
C1163  H725    1.101   1_565 S
C1168  H1169   1.094   .     S
C1168  C1171   1.513   .     S
C1168  O727    1.408   1_565 S
C1168  H730    1.081   1_565 S
C1171  H1173   1.111   .     S
C1171  H1174   1.099   .     S
C1171  H1172   1.095   .     S
O1175  C736    1.407   1_565 S
C1176  H1178   1.081   .     S
C1176  C1179   1.520   .     S
H1177  C736    1.082   1_565 S
C1179  H1180   1.093   .     S
C1179  H1181   1.111   .     S
C1179  H1182   1.093   .     S
O1183  C1184   1.405   .     S
C1184  H1185   1.090   .     S
C1184  H1186   1.068   .     S
C1187  H1188   1.106   .     S
C1187  H1190   1.104   .     S
C1187  H1189   1.109   .     S
C1187  C744    1.537   1_565 S
O1191  C1192   1.425   .     S
C1192  H1194   1.092   .     S
C1192  H1193   1.091   .     S
C1192  C755    1.550   1_565 S
C1195  H1196   1.101   .     S
C1195  H1198   1.109   .     S
C1195  H1197   1.104   .     S
C1199  H1200   1.071   .     S
C1199  O1201   1.220   .     D
C1199  C665    1.504   1_565 S
C1202  O1204   1.217   .     D
C1202  H1203   1.081   .     S
C1205  O1207   1.216   .     D
C1205  H1206   1.086   .     S
C1205  N1785   1.407   .     S
C1208  H1209   1.082   .     S
C1208  O1210   1.219   .     D
C1211  C1215   1.484   .     S
C1211  O1237   1.327   .     A
C1211  O1239   1.338   .     A
C1212  C1216   1.475   .     S
C1212  O1240   1.341   .     A
C1212  O1238   1.319   .     A
C1213  C1230   1.426   .     A
C1213  O1293   1.381   .     S
C1214  C1229   1.430   .     A
C1214  O1301   1.398   .     S
C1214  C1122   1.454   1_655 S
C1216  C775    1.386   1_565 S
C1216  C872    1.489   1_565 S
C1217  O1243   1.333   .     A
C1217  C1222   1.525   .     S
C1217  O1241   1.350   .     A
C1218  C1221   1.520   .     S
C1218  O1242   1.348   .     A
C1218  O1244   1.332   .     A
C1219  C1229   1.446   .     A
C1219  C1221   1.411   .     A
C1219  O1245   1.376   .     S
C1220  C1222   1.427   .     A
C1220  O1253   1.402   .     S
C1220  C1230   1.447   .     A
C1221  C1223   1.397   .     A
C1222  C1224   1.411   .     A
C1223  O1261   1.371   .     S
C1223  C1225   1.429   .     A
C1224  O1269   1.371   .     S
C1224  C1226   1.438   .     A
C1225  C1227   1.419   .     A
C1225  C1231   1.413   .     A
C1226  C1232   1.435   .     A
C1226  C1228   1.419   .     A
C1227  C1229   1.423   .     A
C1227  C1118   1.436   1_655 S
C1228  C1230   1.429   .     A
C1231  O1277   1.400   .     S
C1231  C1103   1.425   1_655 S
C1232  O1285   1.413   .     S
Cu1233 N1236   2.097   .     S
Cu1233 O1237   2.032   .     S
Cu1233 O1240   2.032   .     S
Cu1233 O1241   2.040   .     S
Cu1233 O1244   2.021   .     S
Cu1234 O1239   2.032   .     S
Cu1234 N1235   2.097   .     S
Cu1234 O1242   2.040   .     S
Cu1234 O1238   2.032   .     S
Cu1234 O1243   2.021   .     S
N1236  N1895   1.355   .     S
N1236  C1978   1.406   .     S
O1245  C1246   1.406   .     S
C1246  H1247   1.088   .     S
C1246  C1249   1.514   .     S
C1246  H1248   1.109   .     S
C1249  H810    1.085   1_565 S
C1249  H811    1.101   1_565 S
C1249  H812    1.102   1_565 S
O1253  C1254   1.415   .     S
C1254  H1256   1.114   .     S
C1254  C1257   1.513   .     S
C1254  H1255   1.089   .     S
C1257  H1259   1.107   .     S
C1257  H1258   1.087   .     S
H1260  C817    1.100   1_565 S
O1261  C1262   1.407   .     S
C1262  H1263   1.089   .     S
C1262  H1264   1.114   .     S
C1262  C1265   1.502   .     S
C1265  H1266   1.103   .     S
C1265  H1267   1.108   .     S
C1265  H1268   1.103   .     S
O1269  C1270   1.402   .     S
C1270  C1273   1.500   .     S
C1270  H1272   1.108   .     S
C1270  H1271   1.103   .     S
C1273  H1276   1.091   .     S
C1273  H834    1.093   1_565 S
C1273  H835    1.101   1_565 S
C1278  H1279   1.094   .     S
C1278  C1281   1.513   .     S
C1278  O837    1.408   1_565 S
C1278  H840    1.081   1_565 S
C1281  H1283   1.111   .     S
C1281  H1284   1.099   .     S
C1281  H1282   1.095   .     S
O1285  C846    1.407   1_565 S
C1286  H1288   1.081   .     S
C1286  C1289   1.520   .     S
H1287  C846    1.082   1_565 S
C1289  H1290   1.093   .     S
C1289  H1291   1.111   .     S
C1289  H1292   1.093   .     S
O1293  C1294   1.405   .     S
C1294  H1295   1.090   .     S
C1294  H1296   1.068   .     S
C1297  H1298   1.106   .     S
C1297  H1300   1.104   .     S
C1297  H1299   1.109   .     S
C1297  C854    1.537   1_565 S
O1301  C1302   1.425   .     S
C1302  H1304   1.092   .     S
C1302  H1303   1.091   .     S
C1302  C865    1.550   1_565 S
C1305  H1306   1.101   .     S
C1305  H1308   1.109   .     S
C1305  H1307   1.104   .     S
C1309  H1310   1.071   .     S
C1309  O1311   1.220   .     D
C1309  C775    1.504   1_565 S
C1312  O1314   1.217   .     D
C1312  H1313   1.081   .     S
C1315  O1317   1.216   .     D
C1315  H1316   1.086   .     S
C1315  N1895   1.407   .     S
C1318  H1319   1.082   .     S
C1318  O1320   1.219   .     D
C1321  C1325   1.484   .     S
C1321  O1347   1.327   .     A
C1321  O1349   1.338   .     A
C1322  C1326   1.475   .     S
C1322  O1350   1.341   .     A
C1322  O1348   1.319   .     A
C1323  C1340   1.426   .     A
C1323  O1403   1.381   .     S
C1323  C1451   1.425   1_455 S
C1324  C1339   1.430   .     A
C1324  O1411   1.398   .     S
C1324  C1452   1.454   .     S
C1325  C1766   1.386   1_545 S
C1325  C1859   1.504   1_545 S
C1326  C1545   1.386   .     S
C1326  C1642   1.489   .     S
C1327  O1353   1.333   .     A
C1327  C1332   1.525   .     S
C1327  O1351   1.350   .     A
C1328  C1331   1.520   .     S
C1328  O1352   1.348   .     A
C1328  O1354   1.332   .     A
C1329  C1339   1.446   .     A
C1329  C1331   1.411   .     A
C1329  O1355   1.376   .     S
C1330  C1332   1.427   .     A
C1330  O1363   1.402   .     S
C1330  C1340   1.447   .     A
C1331  C1333   1.397   .     A
C1332  C1334   1.411   .     A
C1333  O1371   1.371   .     S
C1333  C1335   1.429   .     A
C1334  O1379   1.371   .     S
C1334  C1336   1.438   .     A
C1335  C1337   1.419   .     A
C1335  C1341   1.413   .     A
C1336  C1342   1.435   .     A
C1336  C1338   1.419   .     A
C1337  C1339   1.423   .     A
C1337  C1448   1.436   .     S
C1338  C1340   1.429   .     A
C1338  C1447   1.436   1_455 S
C1341  O1387   1.400   .     S
C1341  C1433   1.425   .     S
C1342  O1395   1.413   .     S
C1342  C1434   1.454   1_455 S
Cu1343 N1346   2.097   .     S
Cu1343 O1347   2.032   .     S
Cu1343 O1350   2.032   .     S
Cu1343 O1351   2.040   .     S
Cu1343 O1354   2.021   .     S
Cu1344 O1349   2.032   .     S
Cu1344 N1345   2.097   .     S
Cu1344 O1352   2.040   .     S
Cu1344 O1348   2.032   .     S
Cu1344 O1353   2.021   .     S
N1346  N25     1.355   1_556 S
N1346  C108    1.406   1_556 S
O1355  C1356   1.406   .     S
C1356  H1357   1.088   .     S
C1356  C1359   1.514   .     S
C1356  H1358   1.109   .     S
C1359  H1580   1.085   .     S
C1359  H1581   1.101   .     S
C1359  H1582   1.102   .     S
H1360  C1799   1.085   1_545 S
H1361  C1799   1.101   1_545 S
H1362  C1799   1.102   1_545 S
O1363  C1364   1.415   .     S
C1364  H1366   1.114   .     S
C1364  C1367   1.513   .     S
C1364  H1365   1.089   .     S
C1367  H1369   1.107   .     S
C1367  H1368   1.087   .     S
C1367  H1810   1.100   1_545 S
H1370  C1587   1.100   .     S
O1371  C1372   1.407   .     S
C1372  H1373   1.089   .     S
C1372  H1374   1.114   .     S
C1372  C1375   1.502   .     S
C1375  H1376   1.103   .     S
C1375  H1377   1.108   .     S
C1375  H1378   1.103   .     S
O1379  C1380   1.402   .     S
C1380  C1383   1.500   .     S
C1380  H1382   1.108   .     S
C1380  H1381   1.103   .     S
C1383  H1386   1.091   .     S
C1383  H1604   1.093   .     S
C1383  H1605   1.101   .     S
H1384  C1823   1.093   1_545 S
H1385  C1823   1.101   1_545 S
O1387  C1828   1.408   1_545 S
C1388  H1389   1.094   .     S
C1388  C1391   1.513   .     S
C1388  O1607   1.408   .     S
C1388  H1610   1.081   .     S
H1390  C1828   1.081   1_545 S
C1391  H1393   1.111   .     S
C1391  H1394   1.099   .     S
C1391  H1392   1.095   .     S
O1395  C1616   1.407   .     S
C1396  H1398   1.081   .     S
C1396  C1399   1.520   .     S
C1396  O1835   1.407   1_545 S
C1396  H1837   1.082   1_545 S
H1397  C1616   1.082   .     S
C1399  H1400   1.093   .     S
C1399  H1401   1.111   .     S
C1399  H1402   1.093   .     S
O1403  C1404   1.405   .     S
C1404  H1405   1.090   .     S
C1404  H1406   1.068   .     S
C1404  C1847   1.537   1_545 S
C1407  H1408   1.106   .     S
C1407  H1410   1.104   .     S
C1407  H1409   1.109   .     S
C1407  C1624   1.537   .     S
O1411  C1412   1.425   .     S
C1412  H1414   1.092   .     S
C1412  H1413   1.091   .     S
C1412  C1635   1.550   .     S
C1415  H1416   1.101   .     S
C1415  H1418   1.109   .     S
C1415  H1417   1.104   .     S
C1415  C1852   1.550   1_545 S
C1419  H1420   1.071   .     S
C1419  O1421   1.220   .     D
C1419  C1545   1.504   .     S
C1422  O1424   1.217   .     D
C1422  H1423   1.081   .     S
C1422  C1766   1.489   1_545 S
C1425  O1427   1.216   .     D
C1425  H1426   1.086   .     S
C1425  N25     1.407   1_556 S
C1428  H1429   1.082   .     S
C1428  O1430   1.219   .     D
C1431  C1435   1.484   .     S
C1431  O1457   1.327   .     A
C1431  O1459   1.338   .     A
C1432  C1436   1.475   .     S
C1432  O1460   1.341   .     A
C1432  O1458   1.319   .     A
C1433  C1450   1.426   .     A
C1433  O1513   1.381   .     S
C1434  C1449   1.430   .     A
C1434  O1521   1.398   .     S
C1434  C1342   1.454   1_655 S
C1435  C1876   1.386   1_545 S
C1435  C1969   1.504   1_545 S
C1436  C1655   1.386   .     S
C1436  C1752   1.489   .     S
C1437  O1463   1.333   .     A
C1437  C1442   1.525   .     S
C1437  O1461   1.350   .     A
C1438  C1441   1.520   .     S
C1438  O1462   1.348   .     A
C1438  O1464   1.332   .     A
C1439  C1449   1.446   .     A
C1439  C1441   1.411   .     A
C1439  O1465   1.376   .     S
C1440  C1442   1.427   .     A
C1440  O1473   1.402   .     S
C1440  C1450   1.447   .     A
C1441  C1443   1.397   .     A
C1442  C1444   1.411   .     A
C1443  O1481   1.371   .     S
C1443  C1445   1.429   .     A
C1444  O1489   1.371   .     S
C1444  C1446   1.438   .     A
C1445  C1447   1.419   .     A
C1445  C1451   1.413   .     A
C1446  C1452   1.435   .     A
C1446  C1448   1.419   .     A
C1447  C1449   1.423   .     A
C1447  C1338   1.436   1_655 S
C1448  C1450   1.429   .     A
C1451  O1497   1.400   .     S
C1451  C1323   1.425   1_655 S
C1452  O1505   1.413   .     S
Cu1453 N1456   2.097   .     S
Cu1453 O1457   2.032   .     S
Cu1453 O1460   2.032   .     S
Cu1453 O1461   2.040   .     S
Cu1453 O1464   2.021   .     S
Cu1454 O1459   2.032   .     S
Cu1454 N1455   2.097   .     S
Cu1454 O1462   2.040   .     S
Cu1454 O1458   2.032   .     S
Cu1454 O1463   2.021   .     S
N1456  N135    1.355   1_556 S
N1456  C218    1.406   1_556 S
O1465  C1466   1.406   .     S
C1466  H1467   1.088   .     S
C1466  C1469   1.514   .     S
C1466  H1468   1.109   .     S
C1469  H1690   1.085   .     S
C1469  H1691   1.101   .     S
C1469  H1692   1.102   .     S
H1470  C1909   1.085   1_545 S
H1471  C1909   1.101   1_545 S
H1472  C1909   1.102   1_545 S
O1473  C1474   1.415   .     S
C1474  H1476   1.114   .     S
C1474  C1477   1.513   .     S
C1474  H1475   1.089   .     S
C1477  H1479   1.107   .     S
C1477  H1478   1.087   .     S
C1477  H1920   1.100   1_545 S
H1480  C1697   1.100   .     S
O1481  C1482   1.407   .     S
C1482  H1483   1.089   .     S
C1482  H1484   1.114   .     S
C1482  C1485   1.502   .     S
C1485  H1486   1.103   .     S
C1485  H1487   1.108   .     S
C1485  H1488   1.103   .     S
O1489  C1490   1.402   .     S
C1490  C1493   1.500   .     S
C1490  H1492   1.108   .     S
C1490  H1491   1.103   .     S
C1493  H1496   1.091   .     S
C1493  H1714   1.093   .     S
C1493  H1715   1.101   .     S
H1494  C1933   1.093   1_545 S
H1495  C1933   1.101   1_545 S
O1497  C1938   1.408   1_545 S
C1498  H1499   1.094   .     S
C1498  C1501   1.513   .     S
C1498  O1717   1.408   .     S
C1498  H1720   1.081   .     S
H1500  C1938   1.081   1_545 S
C1501  H1503   1.111   .     S
C1501  H1504   1.099   .     S
C1501  H1502   1.095   .     S
O1505  C1726   1.407   .     S
C1506  H1508   1.081   .     S
C1506  C1509   1.520   .     S
C1506  O1945   1.407   1_545 S
C1506  H1947   1.082   1_545 S
H1507  C1726   1.082   .     S
C1509  H1510   1.093   .     S
C1509  H1511   1.111   .     S
C1509  H1512   1.093   .     S
O1513  C1514   1.405   .     S
C1514  H1515   1.090   .     S
C1514  H1516   1.068   .     S
C1514  C1957   1.537   1_545 S
C1517  H1518   1.106   .     S
C1517  H1520   1.104   .     S
C1517  H1519   1.109   .     S
C1517  C1734   1.537   .     S
O1521  C1522   1.425   .     S
C1522  H1524   1.092   .     S
C1522  H1523   1.091   .     S
C1522  C1745   1.550   .     S
C1525  H1526   1.101   .     S
C1525  H1528   1.109   .     S
C1525  H1527   1.104   .     S
C1525  C1962   1.550   1_545 S
C1529  H1530   1.071   .     S
C1529  O1531   1.220   .     D
C1529  C1655   1.504   .     S
C1532  O1534   1.217   .     D
C1532  H1533   1.081   .     S
C1532  C1876   1.489   1_545 S
C1535  O1537   1.216   .     D
C1535  H1536   1.086   .     S
C1535  N135    1.407   1_556 S
C1538  H1539   1.082   .     S
C1538  O1540   1.219   .     D
C1541  C1545   1.484   .     S
C1541  O1567   1.327   .     A
C1541  O1569   1.338   .     A
C1542  C1546   1.475   .     S
C1542  O1570   1.341   .     A
C1542  O1568   1.319   .     A
C1543  C1560   1.426   .     A
C1543  O1623   1.381   .     S
C1543  C1671   1.425   1_455 S
C1544  C1559   1.430   .     A
C1544  O1631   1.398   .     S
C1544  C1672   1.454   .     S
C1546  C1765   1.386   .     S
C1546  C1862   1.489   .     S
C1547  O1573   1.333   .     A
C1547  C1552   1.525   .     S
C1547  O1571   1.350   .     A
C1548  C1551   1.520   .     S
C1548  O1572   1.348   .     A
C1548  O1574   1.332   .     A
C1549  C1559   1.446   .     A
C1549  C1551   1.411   .     A
C1549  O1575   1.376   .     S
C1550  C1552   1.427   .     A
C1550  O1583   1.402   .     S
C1550  C1560   1.447   .     A
C1551  C1553   1.397   .     A
C1552  C1554   1.411   .     A
C1553  O1591   1.371   .     S
C1553  C1555   1.429   .     A
C1554  O1599   1.371   .     S
C1554  C1556   1.438   .     A
C1555  C1557   1.419   .     A
C1555  C1561   1.413   .     A
C1556  C1562   1.435   .     A
C1556  C1558   1.419   .     A
C1557  C1559   1.423   .     A
C1557  C1668   1.436   .     S
C1558  C1560   1.429   .     A
C1558  C1667   1.436   1_455 S
C1561  O1607   1.400   .     S
C1561  C1653   1.425   .     S
C1562  O1615   1.413   .     S
C1562  C1654   1.454   1_455 S
Cu1563 N1566   2.097   .     S
Cu1563 O1567   2.032   .     S
Cu1563 O1570   2.032   .     S
Cu1563 O1571   2.040   .     S
Cu1563 O1574   2.021   .     S
Cu1564 O1569   2.032   .     S
Cu1564 N1565   2.097   .     S
Cu1564 O1572   2.040   .     S
Cu1564 O1568   2.032   .     S
Cu1564 O1573   2.021   .     S
N1566  N245    1.355   1_556 S
N1566  C328    1.406   1_556 S
O1575  C1576   1.406   .     S
C1576  H1577   1.088   .     S
C1576  C1579   1.514   .     S
C1576  H1578   1.109   .     S
C1579  H1800   1.085   .     S
C1579  H1801   1.101   .     S
C1579  H1802   1.102   .     S
O1583  C1584   1.415   .     S
C1584  H1586   1.114   .     S
C1584  C1587   1.513   .     S
C1584  H1585   1.089   .     S
C1587  H1589   1.107   .     S
C1587  H1588   1.087   .     S
H1590  C1807   1.100   .     S
O1591  C1592   1.407   .     S
C1592  H1593   1.089   .     S
C1592  H1594   1.114   .     S
C1592  C1595   1.502   .     S
C1595  H1596   1.103   .     S
C1595  H1597   1.108   .     S
C1595  H1598   1.103   .     S
O1599  C1600   1.402   .     S
C1600  C1603   1.500   .     S
C1600  H1602   1.108   .     S
C1600  H1601   1.103   .     S
C1603  H1606   1.091   .     S
C1603  H1824   1.093   .     S
C1603  H1825   1.101   .     S
C1608  H1609   1.094   .     S
C1608  C1611   1.513   .     S
C1608  O1827   1.408   .     S
C1608  H1830   1.081   .     S
C1611  H1613   1.111   .     S
C1611  H1614   1.099   .     S
C1611  H1612   1.095   .     S
O1615  C1836   1.407   .     S
C1616  H1618   1.081   .     S
C1616  C1619   1.520   .     S
H1617  C1836   1.082   .     S
C1619  H1620   1.093   .     S
C1619  H1621   1.111   .     S
C1619  H1622   1.093   .     S
O1623  C1624   1.405   .     S
C1624  H1625   1.090   .     S
C1624  H1626   1.068   .     S
C1627  H1628   1.106   .     S
C1627  H1630   1.104   .     S
C1627  H1629   1.109   .     S
C1627  C1844   1.537   .     S
O1631  C1632   1.425   .     S
C1632  H1634   1.092   .     S
C1632  H1633   1.091   .     S
C1632  C1855   1.550   .     S
C1635  H1636   1.101   .     S
C1635  H1638   1.109   .     S
C1635  H1637   1.104   .     S
C1639  H1640   1.071   .     S
C1639  O1641   1.220   .     D
C1639  C1765   1.504   .     S
C1642  O1644   1.217   .     D
C1642  H1643   1.081   .     S
C1645  O1647   1.216   .     D
C1645  H1646   1.086   .     S
C1645  N245    1.407   1_556 S
C1648  H1649   1.082   .     S
C1648  O1650   1.219   .     D
C1651  C1655   1.484   .     S
C1651  O1677   1.327   .     A
C1651  O1679   1.338   .     A
C1652  C1656   1.475   .     S
C1652  O1680   1.341   .     A
C1652  O1678   1.319   .     A
C1653  C1670   1.426   .     A
C1653  O1733   1.381   .     S
C1654  C1669   1.430   .     A
C1654  O1741   1.398   .     S
C1654  C1562   1.454   1_655 S
C1656  C1875   1.386   .     S
C1656  C1972   1.489   .     S
C1657  O1683   1.333   .     A
C1657  C1662   1.525   .     S
C1657  O1681   1.350   .     A
C1658  C1661   1.520   .     S
C1658  O1682   1.348   .     A
C1658  O1684   1.332   .     A
C1659  C1669   1.446   .     A
C1659  C1661   1.411   .     A
C1659  O1685   1.376   .     S
C1660  C1662   1.427   .     A
C1660  O1693   1.402   .     S
C1660  C1670   1.447   .     A
C1661  C1663   1.397   .     A
C1662  C1664   1.411   .     A
C1663  O1701   1.371   .     S
C1663  C1665   1.429   .     A
C1664  O1709   1.371   .     S
C1664  C1666   1.438   .     A
C1665  C1667   1.419   .     A
C1665  C1671   1.413   .     A
C1666  C1672   1.435   .     A
C1666  C1668   1.419   .     A
C1667  C1669   1.423   .     A
C1667  C1558   1.436   1_655 S
C1668  C1670   1.429   .     A
C1671  O1717   1.400   .     S
C1671  C1543   1.425   1_655 S
C1672  O1725   1.413   .     S
Cu1673 N1676   2.097   .     S
Cu1673 O1677   2.032   .     S
Cu1673 O1680   2.032   .     S
Cu1673 O1681   2.040   .     S
Cu1673 O1684   2.021   .     S
Cu1674 O1679   2.032   .     S
Cu1674 N1675   2.097   .     S
Cu1674 O1682   2.040   .     S
Cu1674 O1678   2.032   .     S
Cu1674 O1683   2.021   .     S
N1676  N355    1.355   1_556 S
N1676  C438    1.406   1_556 S
O1685  C1686   1.406   .     S
C1686  H1687   1.088   .     S
C1686  C1689   1.514   .     S
C1686  H1688   1.109   .     S
C1689  H1910   1.085   .     S
C1689  H1911   1.101   .     S
C1689  H1912   1.102   .     S
O1693  C1694   1.415   .     S
C1694  H1696   1.114   .     S
C1694  C1697   1.513   .     S
C1694  H1695   1.089   .     S
C1697  H1699   1.107   .     S
C1697  H1698   1.087   .     S
H1700  C1917   1.100   .     S
O1701  C1702   1.407   .     S
C1702  H1703   1.089   .     S
C1702  H1704   1.114   .     S
C1702  C1705   1.502   .     S
C1705  H1706   1.103   .     S
C1705  H1707   1.108   .     S
C1705  H1708   1.103   .     S
O1709  C1710   1.402   .     S
C1710  C1713   1.500   .     S
C1710  H1712   1.108   .     S
C1710  H1711   1.103   .     S
C1713  H1716   1.091   .     S
C1713  H1934   1.093   .     S
C1713  H1935   1.101   .     S
C1718  H1719   1.094   .     S
C1718  C1721   1.513   .     S
C1718  O1937   1.408   .     S
C1718  H1940   1.081   .     S
C1721  H1723   1.111   .     S
C1721  H1724   1.099   .     S
C1721  H1722   1.095   .     S
O1725  C1946   1.407   .     S
C1726  H1728   1.081   .     S
C1726  C1729   1.520   .     S
H1727  C1946   1.082   .     S
C1729  H1730   1.093   .     S
C1729  H1731   1.111   .     S
C1729  H1732   1.093   .     S
O1733  C1734   1.405   .     S
C1734  H1735   1.090   .     S
C1734  H1736   1.068   .     S
C1737  H1738   1.106   .     S
C1737  H1740   1.104   .     S
C1737  H1739   1.109   .     S
C1737  C1954   1.537   .     S
O1741  C1742   1.425   .     S
C1742  H1744   1.092   .     S
C1742  H1743   1.091   .     S
C1742  C1965   1.550   .     S
C1745  H1746   1.101   .     S
C1745  H1748   1.109   .     S
C1745  H1747   1.104   .     S
C1749  H1750   1.071   .     S
C1749  O1751   1.220   .     D
C1749  C1875   1.504   .     S
C1752  O1754   1.217   .     D
C1752  H1753   1.081   .     S
C1755  O1757   1.216   .     D
C1755  H1756   1.086   .     S
C1755  N355    1.407   1_556 S
C1758  H1759   1.082   .     S
C1758  O1760   1.219   .     D
C1761  C1765   1.484   .     S
C1761  O1787   1.327   .     A
C1761  O1789   1.338   .     A
C1762  C1766   1.475   .     S
C1762  O1790   1.341   .     A
C1762  O1788   1.319   .     A
C1763  C1780   1.426   .     A
C1763  O1843   1.381   .     S
C1763  C1891   1.425   1_455 S
C1764  C1779   1.430   .     A
C1764  O1851   1.398   .     S
C1764  C1892   1.454   .     S
C1766  C1325   1.386   1_565 S
C1766  C1422   1.489   1_565 S
C1767  O1793   1.333   .     A
C1767  C1772   1.525   .     S
C1767  O1791   1.350   .     A
C1768  C1771   1.520   .     S
C1768  O1792   1.348   .     A
C1768  O1794   1.332   .     A
C1769  C1779   1.446   .     A
C1769  C1771   1.411   .     A
C1769  O1795   1.376   .     S
C1770  C1772   1.427   .     A
C1770  O1803   1.402   .     S
C1770  C1780   1.447   .     A
C1771  C1773   1.397   .     A
C1772  C1774   1.411   .     A
C1773  O1811   1.371   .     S
C1773  C1775   1.429   .     A
C1774  O1819   1.371   .     S
C1774  C1776   1.438   .     A
C1775  C1777   1.419   .     A
C1775  C1781   1.413   .     A
C1776  C1782   1.435   .     A
C1776  C1778   1.419   .     A
C1777  C1779   1.423   .     A
C1777  C1888   1.436   .     S
C1778  C1780   1.429   .     A
C1778  C1887   1.436   1_455 S
C1781  O1827   1.400   .     S
C1781  C1873   1.425   .     S
C1782  O1835   1.413   .     S
C1782  C1874   1.454   1_455 S
Cu1783 N1786   2.097   .     S
Cu1783 O1787   2.032   .     S
Cu1783 O1790   2.032   .     S
Cu1783 O1791   2.040   .     S
Cu1783 O1794   2.021   .     S
Cu1784 O1789   2.032   .     S
Cu1784 N1785   2.097   .     S
Cu1784 O1792   2.040   .     S
Cu1784 O1788   2.032   .     S
Cu1784 O1793   2.021   .     S
N1786  N465    1.355   1_556 S
N1786  C548    1.406   1_556 S
O1795  C1796   1.406   .     S
C1796  H1797   1.088   .     S
C1796  C1799   1.514   .     S
C1796  H1798   1.109   .     S
C1799  H1360   1.085   1_565 S
C1799  H1361   1.101   1_565 S
C1799  H1362   1.102   1_565 S
O1803  C1804   1.415   .     S
C1804  H1806   1.114   .     S
C1804  C1807   1.513   .     S
C1804  H1805   1.089   .     S
C1807  H1809   1.107   .     S
C1807  H1808   1.087   .     S
H1810  C1367   1.100   1_565 S
O1811  C1812   1.407   .     S
C1812  H1813   1.089   .     S
C1812  H1814   1.114   .     S
C1812  C1815   1.502   .     S
C1815  H1816   1.103   .     S
C1815  H1817   1.108   .     S
C1815  H1818   1.103   .     S
O1819  C1820   1.402   .     S
C1820  C1823   1.500   .     S
C1820  H1822   1.108   .     S
C1820  H1821   1.103   .     S
C1823  H1826   1.091   .     S
C1823  H1384   1.093   1_565 S
C1823  H1385   1.101   1_565 S
C1828  H1829   1.094   .     S
C1828  C1831   1.513   .     S
C1828  O1387   1.408   1_565 S
C1828  H1390   1.081   1_565 S
C1831  H1833   1.111   .     S
C1831  H1834   1.099   .     S
C1831  H1832   1.095   .     S
O1835  C1396   1.407   1_565 S
C1836  H1838   1.081   .     S
C1836  C1839   1.520   .     S
H1837  C1396   1.082   1_565 S
C1839  H1840   1.093   .     S
C1839  H1841   1.111   .     S
C1839  H1842   1.093   .     S
O1843  C1844   1.405   .     S
C1844  H1845   1.090   .     S
C1844  H1846   1.068   .     S
C1847  H1848   1.106   .     S
C1847  H1850   1.104   .     S
C1847  H1849   1.109   .     S
C1847  C1404   1.537   1_565 S
O1851  C1852   1.425   .     S
C1852  H1854   1.092   .     S
C1852  H1853   1.091   .     S
C1852  C1415   1.550   1_565 S
C1855  H1856   1.101   .     S
C1855  H1858   1.109   .     S
C1855  H1857   1.104   .     S
C1859  H1860   1.071   .     S
C1859  O1861   1.220   .     D
C1859  C1325   1.504   1_565 S
C1862  O1864   1.217   .     D
C1862  H1863   1.081   .     S
C1865  O1867   1.216   .     D
C1865  H1866   1.086   .     S
C1865  N465    1.407   1_556 S
C1868  H1869   1.082   .     S
C1868  O1870   1.219   .     D
C1871  C1875   1.484   .     S
C1871  O1897   1.327   .     A
C1871  O1899   1.338   .     A
C1872  C1876   1.475   .     S
C1872  O1900   1.341   .     A
C1872  O1898   1.319   .     A
C1873  C1890   1.426   .     A
C1873  O1953   1.381   .     S
C1874  C1889   1.430   .     A
C1874  O1961   1.398   .     S
C1874  C1782   1.454   1_655 S
C1876  C1435   1.386   1_565 S
C1876  C1532   1.489   1_565 S
C1877  O1903   1.333   .     A
C1877  C1882   1.525   .     S
C1877  O1901   1.350   .     A
C1878  C1881   1.520   .     S
C1878  O1902   1.348   .     A
C1878  O1904   1.332   .     A
C1879  C1889   1.446   .     A
C1879  C1881   1.411   .     A
C1879  O1905   1.376   .     S
C1880  C1882   1.427   .     A
C1880  O1913   1.402   .     S
C1880  C1890   1.447   .     A
C1881  C1883   1.397   .     A
C1882  C1884   1.411   .     A
C1883  O1921   1.371   .     S
C1883  C1885   1.429   .     A
C1884  O1929   1.371   .     S
C1884  C1886   1.438   .     A
C1885  C1887   1.419   .     A
C1885  C1891   1.413   .     A
C1886  C1892   1.435   .     A
C1886  C1888   1.419   .     A
C1887  C1889   1.423   .     A
C1887  C1778   1.436   1_655 S
C1888  C1890   1.429   .     A
C1891  O1937   1.400   .     S
C1891  C1763   1.425   1_655 S
C1892  O1945   1.413   .     S
Cu1893 N1896   2.097   .     S
Cu1893 O1897   2.032   .     S
Cu1893 O1900   2.032   .     S
Cu1893 O1901   2.040   .     S
Cu1893 O1904   2.021   .     S
Cu1894 O1899   2.032   .     S
Cu1894 N1895   2.097   .     S
Cu1894 O1902   2.040   .     S
Cu1894 O1898   2.032   .     S
Cu1894 O1903   2.021   .     S
N1896  N575    1.355   1_556 S
N1896  C658    1.406   1_556 S
O1905  C1906   1.406   .     S
C1906  H1907   1.088   .     S
C1906  C1909   1.514   .     S
C1906  H1908   1.109   .     S
C1909  H1470   1.085   1_565 S
C1909  H1471   1.101   1_565 S
C1909  H1472   1.102   1_565 S
O1913  C1914   1.415   .     S
C1914  H1916   1.114   .     S
C1914  C1917   1.513   .     S
C1914  H1915   1.089   .     S
C1917  H1919   1.107   .     S
C1917  H1918   1.087   .     S
H1920  C1477   1.100   1_565 S
O1921  C1922   1.407   .     S
C1922  H1923   1.089   .     S
C1922  H1924   1.114   .     S
C1922  C1925   1.502   .     S
C1925  H1926   1.103   .     S
C1925  H1927   1.108   .     S
C1925  H1928   1.103   .     S
O1929  C1930   1.402   .     S
C1930  C1933   1.500   .     S
C1930  H1932   1.108   .     S
C1930  H1931   1.103   .     S
C1933  H1936   1.091   .     S
C1933  H1494   1.093   1_565 S
C1933  H1495   1.101   1_565 S
C1938  H1939   1.094   .     S
C1938  C1941   1.513   .     S
C1938  O1497   1.408   1_565 S
C1938  H1500   1.081   1_565 S
C1941  H1943   1.111   .     S
C1941  H1944   1.099   .     S
C1941  H1942   1.095   .     S
O1945  C1506   1.407   1_565 S
C1946  H1948   1.081   .     S
C1946  C1949   1.520   .     S
H1947  C1506   1.082   1_565 S
C1949  H1950   1.093   .     S
C1949  H1951   1.111   .     S
C1949  H1952   1.093   .     S
O1953  C1954   1.405   .     S
C1954  H1955   1.090   .     S
C1954  H1956   1.068   .     S
C1957  H1958   1.106   .     S
C1957  H1960   1.104   .     S
C1957  H1959   1.109   .     S
C1957  C1514   1.537   1_565 S
O1961  C1962   1.425   .     S
C1962  H1964   1.092   .     S
C1962  H1963   1.091   .     S
C1962  C1525   1.550   1_565 S
C1965  H1966   1.101   .     S
C1965  H1968   1.109   .     S
C1965  H1967   1.104   .     S
C1969  H1970   1.071   .     S
C1969  O1971   1.220   .     D
C1969  C1435   1.504   1_565 S
C1972  O1974   1.217   .     D
C1972  H1973   1.081   .     S
C1975  O1977   1.216   .     D
C1975  H1976   1.086   .     S
C1975  N575    1.407   1_556 S
C1978  H1979   1.082   .     S
C1978  O1980   1.219   .     D
