data_str_m3_o1_o17_pcu_sym.183
_audit_creation_date              2020-01-03
_audit_creation_method            'Materials Studio'
_symmetry_space_group_name_H-M    'P1'
_symmetry_Int_Tables_number       1
_symmetry_cell_setting            triclinic
loop_
_symmetry_equiv_pos_as_xyz
  x,y,z
_cell_length_a                    32.7970
_cell_length_b                    29.3970
_cell_length_c                    29.8480
_cell_angle_alpha                 90.0861
_cell_angle_beta                  89.6332
_cell_angle_gamma                 90.2937
loop_
_atom_site_label
_atom_site_type_symbol
_atom_site_fract_x
_atom_site_fract_y
_atom_site_fract_z
_atom_site_U_iso_or_equiv
_atom_site_adp_type
_atom_site_occupancy
O1     O     0.10559   0.20487   0.24999   0.00000  Uiso   1.00
O2     O     0.22774   0.12846   0.25000   0.00000  Uiso   1.00
O3     O     0.22774   0.20487   0.25000   0.00000  Uiso   1.00
O4     O     0.10559   0.12846   0.24999   0.00000  Uiso   1.00
C5     C     0.08658   0.16649   0.25145   0.00000  Uiso   1.00
C6     C     0.24682   0.16676   0.24983   0.00000  Uiso   1.00
O7     O     0.16666   0.20489   0.18392   0.00000  Uiso   1.00
O8     O     0.16667   0.12844   0.31607   0.00000  Uiso   1.00
O9     O     0.16667   0.20489   0.31607   0.00000  Uiso   1.00
O10    O     0.16666   0.12844   0.18392   0.00000  Uiso   1.00
C11    C     0.16691   0.16660   0.16343   0.00000  Uiso   1.00
C12    C     0.16609   0.16657   0.33658   0.00000  Uiso   1.00
Zn13   Zn    0.16667   0.21771   0.25000   0.00000  Uiso   1.00
Zn14   Zn    0.16667   0.11563   0.25000   0.00000  Uiso   1.00
C15    C     0.20321   0.16556   0.40676   0.00000  Uiso   1.00
C16    C     0.12915   0.16227   0.09375   0.00000  Uiso   1.00
C17    C     0.16585   0.16503   0.38445   0.00000  Uiso   1.00
C18    C     0.16669   0.16544   0.11556   0.00000  Uiso   1.00
C19    C     0.12880   0.15726   0.40684   0.00000  Uiso   1.00
C20    C     0.20381   0.16256   0.09250   0.00000  Uiso   1.00
C21    C     0.12903   0.15052   0.45328   0.00000  Uiso   1.00
C22    C     0.20337   0.15444   0.04642   0.00000  Uiso   1.00
C23    C     0.16623   0.15425   0.47650   0.00000  Uiso   1.00
C24    C     0.16599   0.15463   0.02343   0.00000  Uiso   1.00
C25    C     0.20380   0.15734   0.45303   0.00000  Uiso   1.00
C26    C     0.12850   0.15504   0.04715   0.00000  Uiso   1.00
C27    C     0.09364   0.13825   0.47733   0.00000  Uiso   1.00
C28    C     0.23903   0.14334   0.02281   0.00000  Uiso   1.00
C29    C     0.09233   0.14462   0.02371   0.00000  Uiso   1.00
C30    C     0.24030   0.14869   0.47641   0.00000  Uiso   1.00
C31    C     0.02092   0.12496   0.24626   0.00000  Uiso   1.00
C32    C     0.31254   0.20746   0.25955   0.00000  Uiso   1.00
C33    C     0.31220   0.12540   0.24406   0.00000  Uiso   1.00
C34    C     0.02130   0.20684   0.26246   0.00000  Uiso   1.00
C35    C     0.29104   0.16674   0.25030   0.00000  Uiso   1.00
C36    C     0.04244   0.16595   0.25408   0.00000  Uiso   1.00
C37    C     0.18933   0.02421   0.28038   0.00000  Uiso   1.00
C38    C     0.14392   0.30913   0.21969   0.00000  Uiso   1.00
C39    C     0.14396   0.02386   0.21965   0.00000  Uiso   1.00
C40    C     0.18931   0.30948   0.28039   0.00000  Uiso   1.00
H41    H     0.20742   0.04265   0.30462   0.00000  Uiso   1.00
H42    H     0.12573   0.29068   0.19554   0.00000  Uiso   1.00
H43    H     0.12589   0.04203   0.19542   0.00000  Uiso   1.00
H44    H     0.20733   0.29132   0.30468   0.00000  Uiso   1.00
N45    N     0.16667   0.28573   0.25000   0.00000  Uiso   1.00
N46    N     0.16667   0.04760   0.25000   0.00000  Uiso   1.00
N47    N     0.23969   0.17780   0.38270   0.00000  Uiso   1.00
O48    O     0.25332   0.15207   0.35050   0.00000  Uiso   1.00
O49    O     0.25868   0.21551   0.39226   0.00000  Uiso   1.00
N50    N     0.09237   0.16971   0.11895   0.00000  Uiso   1.00
O51    O     0.08053   0.14028   0.14888   0.00000  Uiso   1.00
O52    O     0.07399   0.20872   0.11635   0.00000  Uiso   1.00
N53    N     0.09110   0.16237   0.38315   0.00000  Uiso   1.00
O54    O     0.06476   0.19270   0.39613   0.00000  Uiso   1.00
O55    O     0.08238   0.13580   0.34964   0.00000  Uiso   1.00
N56    N     0.24132   0.17386   0.11473   0.00000  Uiso   1.00
O57    O     0.26539   0.20497   0.09815   0.00000  Uiso   1.00
O58    O     0.25211   0.15241   0.15074   0.00000  Uiso   1.00
I59    I     0.04891   0.09380   0.44883   0.00000  Uiso   1.00
I60    I     0.28267   0.09945   0.05282   0.00000  Uiso   1.00
N61    N     0.05484   0.13631   0.04676   0.00000  Uiso   1.00
O62    O     0.02591   0.16633   0.04501   0.00000  Uiso   1.00
O63    O     0.04941   0.09861   0.06885   0.00000  Uiso   1.00
N64    N     0.27773   0.14003   0.45329   0.00000  Uiso   1.00
O65    O     0.30895   0.16666   0.45967   0.00000  Uiso   1.00
O66    O     0.28140   0.10401   0.42823   0.00000  Uiso   1.00
N67    N     0.04120   0.08219   0.24029   0.00000  Uiso   1.00
O68    O     0.05315   0.05954   0.27521   0.00000  Uiso   1.00
O69    O     0.04100   0.06236   0.20129   0.00000  Uiso   1.00
N70    N     0.29204   0.24968   0.26776   0.00000  Uiso   1.00
O71    O     0.28217   0.27546   0.23416   0.00000  Uiso   1.00
O72    O     0.29007   0.26591   0.30827   0.00000  Uiso   1.00
N73    N     0.29153   0.08302   0.23595   0.00000  Uiso   1.00
O74    O     0.27916   0.07296   0.19581   0.00000  Uiso   1.00
O75    O     0.29064   0.05193   0.26693   0.00000  Uiso   1.00
N76    N     0.04210   0.24803   0.27502   0.00000  Uiso   1.00
O77    O     0.06028   0.25077   0.31355   0.00000  Uiso   1.00
O78    O     0.04023   0.28384   0.24956   0.00000  Uiso   1.00
O79    O     0.43892   0.20487   0.24999   0.00000  Uiso   1.00
O80    O     0.56108   0.12846   0.25000   0.00000  Uiso   1.00
O81    O     0.56108   0.20487   0.25000   0.00000  Uiso   1.00
O82    O     0.43892   0.12846   0.24999   0.00000  Uiso   1.00
C83    C     0.41991   0.16649   0.25145   0.00000  Uiso   1.00
C84    C     0.58015   0.16676   0.24983   0.00000  Uiso   1.00
O85    O     0.49999   0.20489   0.18392   0.00000  Uiso   1.00
O86    O     0.50001   0.12844   0.31607   0.00000  Uiso   1.00
O87    O     0.50001   0.20489   0.31607   0.00000  Uiso   1.00
O88    O     0.49999   0.12844   0.18392   0.00000  Uiso   1.00
C89    C     0.50024   0.16660   0.16343   0.00000  Uiso   1.00
C90    C     0.49942   0.16657   0.33658   0.00000  Uiso   1.00
Zn91   Zn    0.50000   0.21771   0.25000   0.00000  Uiso   1.00
Zn92   Zn    0.50000   0.11563   0.25000   0.00000  Uiso   1.00
C93    C     0.53654   0.16556   0.40676   0.00000  Uiso   1.00
C94    C     0.46249   0.16227   0.09375   0.00000  Uiso   1.00
C95    C     0.49918   0.16503   0.38445   0.00000  Uiso   1.00
C96    C     0.50002   0.16544   0.11556   0.00000  Uiso   1.00
C97    C     0.46214   0.15726   0.40684   0.00000  Uiso   1.00
C98    C     0.53714   0.16256   0.09250   0.00000  Uiso   1.00
C99    C     0.46236   0.15052   0.45328   0.00000  Uiso   1.00
C100   C     0.53670   0.15444   0.04642   0.00000  Uiso   1.00
C101   C     0.49956   0.15425   0.47650   0.00000  Uiso   1.00
C102   C     0.49933   0.15463   0.02343   0.00000  Uiso   1.00
C103   C     0.53713   0.15734   0.45303   0.00000  Uiso   1.00
C104   C     0.46184   0.15504   0.04715   0.00000  Uiso   1.00
C105   C     0.42698   0.13825   0.47733   0.00000  Uiso   1.00
C106   C     0.57236   0.14334   0.02281   0.00000  Uiso   1.00
C107   C     0.42566   0.14462   0.02371   0.00000  Uiso   1.00
C108   C     0.57364   0.14869   0.47641   0.00000  Uiso   1.00
C109   C     0.35425   0.12496   0.24626   0.00000  Uiso   1.00
C110   C     0.64587   0.20746   0.25955   0.00000  Uiso   1.00
C111   C     0.64554   0.12540   0.24406   0.00000  Uiso   1.00
C112   C     0.35464   0.20684   0.26246   0.00000  Uiso   1.00
C113   C     0.62438   0.16674   0.25030   0.00000  Uiso   1.00
C114   C     0.37577   0.16595   0.25408   0.00000  Uiso   1.00
C115   C     0.52266   0.02421   0.28038   0.00000  Uiso   1.00
C116   C     0.47726   0.30913   0.21969   0.00000  Uiso   1.00
C117   C     0.47730   0.02386   0.21965   0.00000  Uiso   1.00
C118   C     0.52264   0.30948   0.28039   0.00000  Uiso   1.00
H119   H     0.54075   0.04265   0.30462   0.00000  Uiso   1.00
H120   H     0.45907   0.29068   0.19554   0.00000  Uiso   1.00
H121   H     0.45922   0.04203   0.19542   0.00000  Uiso   1.00
H122   H     0.54066   0.29132   0.30468   0.00000  Uiso   1.00
N123   N     0.50000   0.28573   0.25000   0.00000  Uiso   1.00
N124   N     0.50000   0.04760   0.25000   0.00000  Uiso   1.00
N125   N     0.57303   0.17780   0.38270   0.00000  Uiso   1.00
O126   O     0.58665   0.15207   0.35050   0.00000  Uiso   1.00
O127   O     0.59202   0.21551   0.39226   0.00000  Uiso   1.00
N128   N     0.42570   0.16971   0.11895   0.00000  Uiso   1.00
O129   O     0.41386   0.14028   0.14888   0.00000  Uiso   1.00
O130   O     0.40732   0.20872   0.11635   0.00000  Uiso   1.00
N131   N     0.42443   0.16237   0.38315   0.00000  Uiso   1.00
O132   O     0.39810   0.19270   0.39613   0.00000  Uiso   1.00
O133   O     0.41572   0.13580   0.34964   0.00000  Uiso   1.00
N134   N     0.57465   0.17386   0.11473   0.00000  Uiso   1.00
O135   O     0.59873   0.20497   0.09815   0.00000  Uiso   1.00
O136   O     0.58544   0.15241   0.15074   0.00000  Uiso   1.00
I137   I     0.38224   0.09380   0.44883   0.00000  Uiso   1.00
I138   I     0.61600   0.09945   0.05282   0.00000  Uiso   1.00
N139   N     0.38817   0.13631   0.04676   0.00000  Uiso   1.00
O140   O     0.35925   0.16633   0.04501   0.00000  Uiso   1.00
O141   O     0.38274   0.09861   0.06885   0.00000  Uiso   1.00
N142   N     0.61106   0.14003   0.45329   0.00000  Uiso   1.00
O143   O     0.64228   0.16666   0.45967   0.00000  Uiso   1.00
O144   O     0.61473   0.10401   0.42823   0.00000  Uiso   1.00
N145   N     0.37454   0.08219   0.24029   0.00000  Uiso   1.00
O146   O     0.38648   0.05954   0.27521   0.00000  Uiso   1.00
O147   O     0.37433   0.06236   0.20129   0.00000  Uiso   1.00
N148   N     0.62537   0.24968   0.26776   0.00000  Uiso   1.00
O149   O     0.61550   0.27546   0.23416   0.00000  Uiso   1.00
O150   O     0.62340   0.26591   0.30827   0.00000  Uiso   1.00
N151   N     0.62487   0.08302   0.23595   0.00000  Uiso   1.00
O152   O     0.61249   0.07296   0.19581   0.00000  Uiso   1.00
O153   O     0.62398   0.05193   0.26693   0.00000  Uiso   1.00
N154   N     0.37543   0.24803   0.27502   0.00000  Uiso   1.00
O155   O     0.39361   0.25077   0.31355   0.00000  Uiso   1.00
O156   O     0.37357   0.28384   0.24956   0.00000  Uiso   1.00
O157   O     0.77226   0.20487   0.24999   0.00000  Uiso   1.00
O158   O     0.89441   0.12846   0.25000   0.00000  Uiso   1.00
O159   O     0.89441   0.20487   0.25000   0.00000  Uiso   1.00
O160   O     0.77226   0.12846   0.24999   0.00000  Uiso   1.00
C161   C     0.75324   0.16649   0.25145   0.00000  Uiso   1.00
C162   C     0.91349   0.16676   0.24983   0.00000  Uiso   1.00
O163   O     0.83333   0.20489   0.18392   0.00000  Uiso   1.00
O164   O     0.83334   0.12844   0.31607   0.00000  Uiso   1.00
O165   O     0.83334   0.20489   0.31607   0.00000  Uiso   1.00
O166   O     0.83333   0.12844   0.18392   0.00000  Uiso   1.00
C167   C     0.83357   0.16660   0.16343   0.00000  Uiso   1.00
C168   C     0.83276   0.16657   0.33658   0.00000  Uiso   1.00
Zn169  Zn    0.83333   0.21771   0.25000   0.00000  Uiso   1.00
Zn170  Zn    0.83333   0.11563   0.25000   0.00000  Uiso   1.00
C171   C     0.86987   0.16556   0.40676   0.00000  Uiso   1.00
C172   C     0.79582   0.16227   0.09375   0.00000  Uiso   1.00
C173   C     0.83252   0.16503   0.38445   0.00000  Uiso   1.00
C174   C     0.83336   0.16544   0.11556   0.00000  Uiso   1.00
C175   C     0.79547   0.15726   0.40684   0.00000  Uiso   1.00
C176   C     0.87048   0.16256   0.09250   0.00000  Uiso   1.00
C177   C     0.79570   0.15052   0.45328   0.00000  Uiso   1.00
C178   C     0.87003   0.15444   0.04642   0.00000  Uiso   1.00
C179   C     0.83290   0.15425   0.47650   0.00000  Uiso   1.00
C180   C     0.83266   0.15463   0.02343   0.00000  Uiso   1.00
C181   C     0.87047   0.15734   0.45303   0.00000  Uiso   1.00
C182   C     0.79517   0.15504   0.04715   0.00000  Uiso   1.00
C183   C     0.76031   0.13825   0.47733   0.00000  Uiso   1.00
C184   C     0.90569   0.14334   0.02281   0.00000  Uiso   1.00
C185   C     0.75899   0.14462   0.02371   0.00000  Uiso   1.00
C186   C     0.90697   0.14869   0.47641   0.00000  Uiso   1.00
C187   C     0.68758   0.12496   0.24626   0.00000  Uiso   1.00
C188   C     0.97921   0.20746   0.25955   0.00000  Uiso   1.00
C189   C     0.97887   0.12540   0.24406   0.00000  Uiso   1.00
C190   C     0.68797   0.20684   0.26246   0.00000  Uiso   1.00
C191   C     0.95771   0.16674   0.25030   0.00000  Uiso   1.00
C192   C     0.70910   0.16595   0.25408   0.00000  Uiso   1.00
C193   C     0.85600   0.02421   0.28038   0.00000  Uiso   1.00
C194   C     0.81059   0.30913   0.21969   0.00000  Uiso   1.00
C195   C     0.81063   0.02386   0.21965   0.00000  Uiso   1.00
C196   C     0.85598   0.30948   0.28039   0.00000  Uiso   1.00
H197   H     0.87408   0.04265   0.30462   0.00000  Uiso   1.00
H198   H     0.79240   0.29068   0.19554   0.00000  Uiso   1.00
H199   H     0.79256   0.04203   0.19542   0.00000  Uiso   1.00
H200   H     0.87399   0.29132   0.30468   0.00000  Uiso   1.00
N201   N     0.83333   0.28573   0.25000   0.00000  Uiso   1.00
N202   N     0.83333   0.04760   0.25000   0.00000  Uiso   1.00
N203   N     0.90636   0.17780   0.38270   0.00000  Uiso   1.00
O204   O     0.91999   0.15207   0.35050   0.00000  Uiso   1.00
O205   O     0.92535   0.21551   0.39226   0.00000  Uiso   1.00
N206   N     0.75904   0.16971   0.11895   0.00000  Uiso   1.00
O207   O     0.74719   0.14028   0.14888   0.00000  Uiso   1.00
O208   O     0.74066   0.20872   0.11635   0.00000  Uiso   1.00
N209   N     0.75777   0.16237   0.38315   0.00000  Uiso   1.00
O210   O     0.73143   0.19270   0.39613   0.00000  Uiso   1.00
O211   O     0.74905   0.13580   0.34964   0.00000  Uiso   1.00
N212   N     0.90799   0.17386   0.11473   0.00000  Uiso   1.00
O213   O     0.93206   0.20497   0.09815   0.00000  Uiso   1.00
O214   O     0.91878   0.15241   0.15074   0.00000  Uiso   1.00
I215   I     0.71558   0.09380   0.44883   0.00000  Uiso   1.00
I216   I     0.94934   0.09945   0.05282   0.00000  Uiso   1.00
N217   N     0.72150   0.13631   0.04676   0.00000  Uiso   1.00
O218   O     0.69258   0.16633   0.04501   0.00000  Uiso   1.00
O219   O     0.71607   0.09861   0.06885   0.00000  Uiso   1.00
N220   N     0.94440   0.14003   0.45329   0.00000  Uiso   1.00
O221   O     0.97561   0.16666   0.45967   0.00000  Uiso   1.00
O222   O     0.94807   0.10401   0.42823   0.00000  Uiso   1.00
N223   N     0.70787   0.08219   0.24029   0.00000  Uiso   1.00
O224   O     0.71981   0.05954   0.27521   0.00000  Uiso   1.00
O225   O     0.70766   0.06236   0.20129   0.00000  Uiso   1.00
N226   N     0.95871   0.24968   0.26776   0.00000  Uiso   1.00
O227   O     0.94883   0.27546   0.23416   0.00000  Uiso   1.00
O228   O     0.95673   0.26591   0.30827   0.00000  Uiso   1.00
N229   N     0.95820   0.08302   0.23595   0.00000  Uiso   1.00
O230   O     0.94582   0.07296   0.19581   0.00000  Uiso   1.00
O231   O     0.95731   0.05193   0.26693   0.00000  Uiso   1.00
N232   N     0.70876   0.24803   0.27502   0.00000  Uiso   1.00
O233   O     0.72695   0.25077   0.31355   0.00000  Uiso   1.00
O234   O     0.70690   0.28384   0.24956   0.00000  Uiso   1.00
O235   O     0.10559   0.53821   0.24999   0.00000  Uiso   1.00
O236   O     0.22774   0.46179   0.25000   0.00000  Uiso   1.00
O237   O     0.22774   0.53821   0.25000   0.00000  Uiso   1.00
O238   O     0.10559   0.46179   0.24999   0.00000  Uiso   1.00
C239   C     0.08658   0.49982   0.25145   0.00000  Uiso   1.00
C240   C     0.24682   0.50009   0.24983   0.00000  Uiso   1.00
O241   O     0.16666   0.53823   0.18392   0.00000  Uiso   1.00
O242   O     0.16667   0.46177   0.31607   0.00000  Uiso   1.00
O243   O     0.16667   0.53823   0.31607   0.00000  Uiso   1.00
O244   O     0.16666   0.46177   0.18392   0.00000  Uiso   1.00
C245   C     0.16691   0.49993   0.16343   0.00000  Uiso   1.00
C246   C     0.16609   0.49990   0.33658   0.00000  Uiso   1.00
Zn247  Zn    0.16667   0.55104   0.25000   0.00000  Uiso   1.00
Zn248  Zn    0.16667   0.44896   0.25000   0.00000  Uiso   1.00
C249   C     0.20321   0.49890   0.40676   0.00000  Uiso   1.00
C250   C     0.12915   0.49560   0.09375   0.00000  Uiso   1.00
C251   C     0.16585   0.49836   0.38445   0.00000  Uiso   1.00
C252   C     0.16669   0.49877   0.11556   0.00000  Uiso   1.00
C253   C     0.12880   0.49060   0.40684   0.00000  Uiso   1.00
C254   C     0.20381   0.49589   0.09250   0.00000  Uiso   1.00
C255   C     0.12903   0.48386   0.45328   0.00000  Uiso   1.00
C256   C     0.20337   0.48778   0.04642   0.00000  Uiso   1.00
C257   C     0.16623   0.48759   0.47650   0.00000  Uiso   1.00
C258   C     0.16599   0.48796   0.02343   0.00000  Uiso   1.00
C259   C     0.20380   0.49067   0.45303   0.00000  Uiso   1.00
C260   C     0.12850   0.48837   0.04715   0.00000  Uiso   1.00
C261   C     0.09364   0.47158   0.47733   0.00000  Uiso   1.00
C262   C     0.23903   0.47667   0.02281   0.00000  Uiso   1.00
C263   C     0.09233   0.47796   0.02371   0.00000  Uiso   1.00
C264   C     0.24030   0.48203   0.47641   0.00000  Uiso   1.00
C265   C     0.02092   0.45829   0.24626   0.00000  Uiso   1.00
C266   C     0.31254   0.54079   0.25955   0.00000  Uiso   1.00
C267   C     0.31220   0.45874   0.24406   0.00000  Uiso   1.00
C268   C     0.02130   0.54017   0.26246   0.00000  Uiso   1.00
C269   C     0.29104   0.50008   0.25030   0.00000  Uiso   1.00
C270   C     0.04244   0.49928   0.25408   0.00000  Uiso   1.00
C271   C     0.18933   0.35754   0.28038   0.00000  Uiso   1.00
C272   C     0.14392   0.64246   0.21969   0.00000  Uiso   1.00
C273   C     0.14396   0.35719   0.21965   0.00000  Uiso   1.00
C274   C     0.18931   0.64282   0.28039   0.00000  Uiso   1.00
H275   H     0.20742   0.37599   0.30462   0.00000  Uiso   1.00
H276   H     0.12573   0.62402   0.19554   0.00000  Uiso   1.00
H277   H     0.12589   0.37536   0.19542   0.00000  Uiso   1.00
H278   H     0.20733   0.62465   0.30468   0.00000  Uiso   1.00
N279   N     0.16667   0.61907   0.25000   0.00000  Uiso   1.00
N280   N     0.16667   0.38093   0.25000   0.00000  Uiso   1.00
N281   N     0.23969   0.51113   0.38270   0.00000  Uiso   1.00
O282   O     0.25332   0.48540   0.35050   0.00000  Uiso   1.00
O283   O     0.25868   0.54884   0.39226   0.00000  Uiso   1.00
N284   N     0.09237   0.50304   0.11895   0.00000  Uiso   1.00
O285   O     0.08053   0.47361   0.14888   0.00000  Uiso   1.00
O286   O     0.07399   0.54205   0.11635   0.00000  Uiso   1.00
N287   N     0.09110   0.49571   0.38315   0.00000  Uiso   1.00
O288   O     0.06476   0.52604   0.39613   0.00000  Uiso   1.00
O289   O     0.08238   0.46913   0.34964   0.00000  Uiso   1.00
N290   N     0.24132   0.50719   0.11473   0.00000  Uiso   1.00
O291   O     0.26539   0.53831   0.09815   0.00000  Uiso   1.00
O292   O     0.25211   0.48574   0.15074   0.00000  Uiso   1.00
I293   I     0.04891   0.42714   0.44883   0.00000  Uiso   1.00
I294   I     0.28267   0.43279   0.05282   0.00000  Uiso   1.00
N295   N     0.05484   0.46964   0.04676   0.00000  Uiso   1.00
O296   O     0.02591   0.49967   0.04501   0.00000  Uiso   1.00
O297   O     0.04941   0.43195   0.06885   0.00000  Uiso   1.00
N298   N     0.27773   0.47336   0.45329   0.00000  Uiso   1.00
O299   O     0.30895   0.49999   0.45967   0.00000  Uiso   1.00
O300   O     0.28140   0.43735   0.42823   0.00000  Uiso   1.00
N301   N     0.04120   0.41552   0.24029   0.00000  Uiso   1.00
O302   O     0.05315   0.39287   0.27521   0.00000  Uiso   1.00
O303   O     0.04100   0.39569   0.20129   0.00000  Uiso   1.00
N304   N     0.29204   0.58301   0.26776   0.00000  Uiso   1.00
O305   O     0.28217   0.60879   0.23416   0.00000  Uiso   1.00
O306   O     0.29007   0.59925   0.30827   0.00000  Uiso   1.00
N307   N     0.29153   0.41636   0.23595   0.00000  Uiso   1.00
O308   O     0.27916   0.40629   0.19581   0.00000  Uiso   1.00
O309   O     0.29064   0.38527   0.26693   0.00000  Uiso   1.00
N310   N     0.04210   0.58136   0.27502   0.00000  Uiso   1.00
O311   O     0.06028   0.58411   0.31355   0.00000  Uiso   1.00
O312   O     0.04023   0.61718   0.24956   0.00000  Uiso   1.00
O313   O     0.43892   0.53821   0.24999   0.00000  Uiso   1.00
O314   O     0.56108   0.46179   0.25000   0.00000  Uiso   1.00
O315   O     0.56108   0.53821   0.25000   0.00000  Uiso   1.00
O316   O     0.43892   0.46179   0.24999   0.00000  Uiso   1.00
C317   C     0.41991   0.49982   0.25145   0.00000  Uiso   1.00
C318   C     0.58015   0.50009   0.24983   0.00000  Uiso   1.00
O319   O     0.49999   0.53823   0.18392   0.00000  Uiso   1.00
O320   O     0.50001   0.46177   0.31607   0.00000  Uiso   1.00
O321   O     0.50001   0.53823   0.31607   0.00000  Uiso   1.00
O322   O     0.49999   0.46177   0.18392   0.00000  Uiso   1.00
C323   C     0.50024   0.49993   0.16343   0.00000  Uiso   1.00
C324   C     0.49942   0.49990   0.33658   0.00000  Uiso   1.00
Zn325  Zn    0.50000   0.55104   0.25000   0.00000  Uiso   1.00
Zn326  Zn    0.50000   0.44896   0.25000   0.00000  Uiso   1.00
C327   C     0.53654   0.49890   0.40676   0.00000  Uiso   1.00
C328   C     0.46249   0.49560   0.09375   0.00000  Uiso   1.00
C329   C     0.49918   0.49836   0.38445   0.00000  Uiso   1.00
C330   C     0.50002   0.49877   0.11556   0.00000  Uiso   1.00
C331   C     0.46214   0.49060   0.40684   0.00000  Uiso   1.00
C332   C     0.53714   0.49589   0.09250   0.00000  Uiso   1.00
C333   C     0.46236   0.48386   0.45328   0.00000  Uiso   1.00
C334   C     0.53670   0.48778   0.04642   0.00000  Uiso   1.00
C335   C     0.49956   0.48759   0.47650   0.00000  Uiso   1.00
C336   C     0.49933   0.48796   0.02343   0.00000  Uiso   1.00
C337   C     0.53713   0.49067   0.45303   0.00000  Uiso   1.00
C338   C     0.46184   0.48837   0.04715   0.00000  Uiso   1.00
C339   C     0.42698   0.47158   0.47733   0.00000  Uiso   1.00
C340   C     0.57236   0.47667   0.02281   0.00000  Uiso   1.00
C341   C     0.42566   0.47796   0.02371   0.00000  Uiso   1.00
C342   C     0.57364   0.48203   0.47641   0.00000  Uiso   1.00
C343   C     0.35425   0.45829   0.24626   0.00000  Uiso   1.00
C344   C     0.64587   0.54079   0.25955   0.00000  Uiso   1.00
C345   C     0.64554   0.45874   0.24406   0.00000  Uiso   1.00
C346   C     0.35464   0.54017   0.26246   0.00000  Uiso   1.00
C347   C     0.62438   0.50008   0.25030   0.00000  Uiso   1.00
C348   C     0.37577   0.49928   0.25408   0.00000  Uiso   1.00
C349   C     0.52266   0.35754   0.28038   0.00000  Uiso   1.00
C350   C     0.47726   0.64246   0.21969   0.00000  Uiso   1.00
C351   C     0.47730   0.35719   0.21965   0.00000  Uiso   1.00
C352   C     0.52264   0.64282   0.28039   0.00000  Uiso   1.00
H353   H     0.54075   0.37599   0.30462   0.00000  Uiso   1.00
H354   H     0.45907   0.62402   0.19554   0.00000  Uiso   1.00
H355   H     0.45922   0.37536   0.19542   0.00000  Uiso   1.00
H356   H     0.54066   0.62465   0.30468   0.00000  Uiso   1.00
N357   N     0.50000   0.61907   0.25000   0.00000  Uiso   1.00
N358   N     0.50000   0.38093   0.25000   0.00000  Uiso   1.00
N359   N     0.57303   0.51113   0.38270   0.00000  Uiso   1.00
O360   O     0.58665   0.48540   0.35050   0.00000  Uiso   1.00
O361   O     0.59202   0.54884   0.39226   0.00000  Uiso   1.00
N362   N     0.42570   0.50304   0.11895   0.00000  Uiso   1.00
O363   O     0.41386   0.47361   0.14888   0.00000  Uiso   1.00
O364   O     0.40732   0.54205   0.11635   0.00000  Uiso   1.00
N365   N     0.42443   0.49571   0.38315   0.00000  Uiso   1.00
O366   O     0.39810   0.52604   0.39613   0.00000  Uiso   1.00
O367   O     0.41572   0.46913   0.34964   0.00000  Uiso   1.00
N368   N     0.57465   0.50719   0.11473   0.00000  Uiso   1.00
O369   O     0.59873   0.53831   0.09815   0.00000  Uiso   1.00
O370   O     0.58544   0.48574   0.15074   0.00000  Uiso   1.00
I371   I     0.38224   0.42714   0.44883   0.00000  Uiso   1.00
I372   I     0.61600   0.43279   0.05282   0.00000  Uiso   1.00
N373   N     0.38817   0.46964   0.04676   0.00000  Uiso   1.00
O374   O     0.35925   0.49967   0.04501   0.00000  Uiso   1.00
O375   O     0.38274   0.43195   0.06885   0.00000  Uiso   1.00
N376   N     0.61106   0.47336   0.45329   0.00000  Uiso   1.00
O377   O     0.64228   0.49999   0.45967   0.00000  Uiso   1.00
O378   O     0.61473   0.43735   0.42823   0.00000  Uiso   1.00
N379   N     0.37454   0.41552   0.24029   0.00000  Uiso   1.00
O380   O     0.38648   0.39287   0.27521   0.00000  Uiso   1.00
O381   O     0.37433   0.39569   0.20129   0.00000  Uiso   1.00
N382   N     0.62537   0.58301   0.26776   0.00000  Uiso   1.00
O383   O     0.61550   0.60879   0.23416   0.00000  Uiso   1.00
O384   O     0.62340   0.59925   0.30827   0.00000  Uiso   1.00
N385   N     0.62487   0.41636   0.23595   0.00000  Uiso   1.00
O386   O     0.61249   0.40629   0.19581   0.00000  Uiso   1.00
O387   O     0.62398   0.38527   0.26693   0.00000  Uiso   1.00
N388   N     0.37543   0.58136   0.27502   0.00000  Uiso   1.00
O389   O     0.39361   0.58411   0.31355   0.00000  Uiso   1.00
O390   O     0.37357   0.61718   0.24956   0.00000  Uiso   1.00
O391   O     0.77226   0.53821   0.24999   0.00000  Uiso   1.00
O392   O     0.89441   0.46179   0.25000   0.00000  Uiso   1.00
O393   O     0.89441   0.53821   0.25000   0.00000  Uiso   1.00
O394   O     0.77226   0.46179   0.24999   0.00000  Uiso   1.00
C395   C     0.75324   0.49982   0.25145   0.00000  Uiso   1.00
C396   C     0.91349   0.50009   0.24983   0.00000  Uiso   1.00
O397   O     0.83333   0.53823   0.18392   0.00000  Uiso   1.00
O398   O     0.83334   0.46177   0.31607   0.00000  Uiso   1.00
O399   O     0.83334   0.53823   0.31607   0.00000  Uiso   1.00
O400   O     0.83333   0.46177   0.18392   0.00000  Uiso   1.00
C401   C     0.83357   0.49993   0.16343   0.00000  Uiso   1.00
C402   C     0.83276   0.49990   0.33658   0.00000  Uiso   1.00
Zn403  Zn    0.83333   0.55104   0.25000   0.00000  Uiso   1.00
Zn404  Zn    0.83333   0.44896   0.25000   0.00000  Uiso   1.00
C405   C     0.86987   0.49890   0.40676   0.00000  Uiso   1.00
C406   C     0.79582   0.49560   0.09375   0.00000  Uiso   1.00
C407   C     0.83252   0.49836   0.38445   0.00000  Uiso   1.00
C408   C     0.83336   0.49877   0.11556   0.00000  Uiso   1.00
C409   C     0.79547   0.49060   0.40684   0.00000  Uiso   1.00
C410   C     0.87048   0.49589   0.09250   0.00000  Uiso   1.00
C411   C     0.79570   0.48386   0.45328   0.00000  Uiso   1.00
C412   C     0.87003   0.48778   0.04642   0.00000  Uiso   1.00
C413   C     0.83290   0.48759   0.47650   0.00000  Uiso   1.00
C414   C     0.83266   0.48796   0.02343   0.00000  Uiso   1.00
C415   C     0.87047   0.49067   0.45303   0.00000  Uiso   1.00
C416   C     0.79517   0.48837   0.04715   0.00000  Uiso   1.00
C417   C     0.76031   0.47158   0.47733   0.00000  Uiso   1.00
C418   C     0.90569   0.47667   0.02281   0.00000  Uiso   1.00
C419   C     0.75899   0.47796   0.02371   0.00000  Uiso   1.00
C420   C     0.90697   0.48203   0.47641   0.00000  Uiso   1.00
C421   C     0.68758   0.45829   0.24626   0.00000  Uiso   1.00
C422   C     0.97921   0.54079   0.25955   0.00000  Uiso   1.00
C423   C     0.97887   0.45874   0.24406   0.00000  Uiso   1.00
C424   C     0.68797   0.54017   0.26246   0.00000  Uiso   1.00
C425   C     0.95771   0.50008   0.25030   0.00000  Uiso   1.00
C426   C     0.70910   0.49928   0.25408   0.00000  Uiso   1.00
C427   C     0.85600   0.35754   0.28038   0.00000  Uiso   1.00
C428   C     0.81059   0.64246   0.21969   0.00000  Uiso   1.00
C429   C     0.81063   0.35719   0.21965   0.00000  Uiso   1.00
C430   C     0.85598   0.64282   0.28039   0.00000  Uiso   1.00
H431   H     0.87408   0.37599   0.30462   0.00000  Uiso   1.00
H432   H     0.79240   0.62402   0.19554   0.00000  Uiso   1.00
H433   H     0.79256   0.37536   0.19542   0.00000  Uiso   1.00
H434   H     0.87399   0.62465   0.30468   0.00000  Uiso   1.00
N435   N     0.83333   0.61907   0.25000   0.00000  Uiso   1.00
N436   N     0.83333   0.38093   0.25000   0.00000  Uiso   1.00
N437   N     0.90636   0.51113   0.38270   0.00000  Uiso   1.00
O438   O     0.91999   0.48540   0.35050   0.00000  Uiso   1.00
O439   O     0.92535   0.54884   0.39226   0.00000  Uiso   1.00
N440   N     0.75904   0.50304   0.11895   0.00000  Uiso   1.00
O441   O     0.74719   0.47361   0.14888   0.00000  Uiso   1.00
O442   O     0.74066   0.54205   0.11635   0.00000  Uiso   1.00
N443   N     0.75777   0.49571   0.38315   0.00000  Uiso   1.00
O444   O     0.73143   0.52604   0.39613   0.00000  Uiso   1.00
O445   O     0.74905   0.46913   0.34964   0.00000  Uiso   1.00
N446   N     0.90799   0.50719   0.11473   0.00000  Uiso   1.00
O447   O     0.93206   0.53831   0.09815   0.00000  Uiso   1.00
O448   O     0.91878   0.48574   0.15074   0.00000  Uiso   1.00
I449   I     0.71558   0.42714   0.44883   0.00000  Uiso   1.00
I450   I     0.94934   0.43279   0.05282   0.00000  Uiso   1.00
N451   N     0.72150   0.46964   0.04676   0.00000  Uiso   1.00
O452   O     0.69258   0.49967   0.04501   0.00000  Uiso   1.00
O453   O     0.71607   0.43195   0.06885   0.00000  Uiso   1.00
N454   N     0.94440   0.47336   0.45329   0.00000  Uiso   1.00
O455   O     0.97561   0.49999   0.45967   0.00000  Uiso   1.00
O456   O     0.94807   0.43735   0.42823   0.00000  Uiso   1.00
N457   N     0.70787   0.41552   0.24029   0.00000  Uiso   1.00
O458   O     0.71981   0.39287   0.27521   0.00000  Uiso   1.00
O459   O     0.70766   0.39569   0.20129   0.00000  Uiso   1.00
N460   N     0.95871   0.58301   0.26776   0.00000  Uiso   1.00
O461   O     0.94883   0.60879   0.23416   0.00000  Uiso   1.00
O462   O     0.95673   0.59925   0.30827   0.00000  Uiso   1.00
N463   N     0.95820   0.41636   0.23595   0.00000  Uiso   1.00
O464   O     0.94582   0.40629   0.19581   0.00000  Uiso   1.00
O465   O     0.95731   0.38527   0.26693   0.00000  Uiso   1.00
N466   N     0.70876   0.58136   0.27502   0.00000  Uiso   1.00
O467   O     0.72695   0.58411   0.31355   0.00000  Uiso   1.00
O468   O     0.70690   0.61718   0.24956   0.00000  Uiso   1.00
O469   O     0.10559   0.87154   0.24999   0.00000  Uiso   1.00
O470   O     0.22774   0.79513   0.25000   0.00000  Uiso   1.00
O471   O     0.22774   0.87154   0.25000   0.00000  Uiso   1.00
O472   O     0.10559   0.79513   0.24999   0.00000  Uiso   1.00
C473   C     0.08658   0.83316   0.25145   0.00000  Uiso   1.00
C474   C     0.24682   0.83342   0.24983   0.00000  Uiso   1.00
O475   O     0.16666   0.87156   0.18392   0.00000  Uiso   1.00
O476   O     0.16667   0.79511   0.31607   0.00000  Uiso   1.00
O477   O     0.16667   0.87156   0.31607   0.00000  Uiso   1.00
O478   O     0.16666   0.79511   0.18392   0.00000  Uiso   1.00
C479   C     0.16691   0.83327   0.16343   0.00000  Uiso   1.00
C480   C     0.16609   0.83323   0.33658   0.00000  Uiso   1.00
Zn481  Zn    0.16667   0.88437   0.25000   0.00000  Uiso   1.00
Zn482  Zn    0.16667   0.78229   0.25000   0.00000  Uiso   1.00
C483   C     0.20321   0.83223   0.40676   0.00000  Uiso   1.00
C484   C     0.12915   0.82893   0.09375   0.00000  Uiso   1.00
C485   C     0.16585   0.83170   0.38445   0.00000  Uiso   1.00
C486   C     0.16669   0.83210   0.11556   0.00000  Uiso   1.00
C487   C     0.12880   0.82393   0.40684   0.00000  Uiso   1.00
C488   C     0.20381   0.82922   0.09250   0.00000  Uiso   1.00
C489   C     0.12903   0.81719   0.45328   0.00000  Uiso   1.00
C490   C     0.20337   0.82111   0.04642   0.00000  Uiso   1.00
C491   C     0.16623   0.82092   0.47650   0.00000  Uiso   1.00
C492   C     0.16599   0.82129   0.02343   0.00000  Uiso   1.00
C493   C     0.20380   0.82401   0.45303   0.00000  Uiso   1.00
C494   C     0.12850   0.82171   0.04715   0.00000  Uiso   1.00
C495   C     0.09364   0.80491   0.47733   0.00000  Uiso   1.00
C496   C     0.23903   0.81001   0.02281   0.00000  Uiso   1.00
C497   C     0.09233   0.81129   0.02371   0.00000  Uiso   1.00
C498   C     0.24030   0.81536   0.47641   0.00000  Uiso   1.00
C499   C     0.02092   0.79162   0.24626   0.00000  Uiso   1.00
C500   C     0.31254   0.87412   0.25955   0.00000  Uiso   1.00
C501   C     0.31220   0.79207   0.24406   0.00000  Uiso   1.00
C502   C     0.02130   0.87350   0.26246   0.00000  Uiso   1.00
C503   C     0.29104   0.83341   0.25030   0.00000  Uiso   1.00
C504   C     0.04244   0.83261   0.25408   0.00000  Uiso   1.00
C505   C     0.18933   0.69087   0.28038   0.00000  Uiso   1.00
C506   C     0.14392   0.97579   0.21969   0.00000  Uiso   1.00
C507   C     0.14396   0.69052   0.21965   0.00000  Uiso   1.00
C508   C     0.18931   0.97615   0.28039   0.00000  Uiso   1.00
H509   H     0.20742   0.70932   0.30462   0.00000  Uiso   1.00
H510   H     0.12573   0.95735   0.19554   0.00000  Uiso   1.00
H511   H     0.12589   0.70869   0.19542   0.00000  Uiso   1.00
H512   H     0.20733   0.95799   0.30468   0.00000  Uiso   1.00
N513   N     0.16667   0.95240   0.25000   0.00000  Uiso   1.00
N514   N     0.16667   0.71427   0.25000   0.00000  Uiso   1.00
N515   N     0.23969   0.84447   0.38270   0.00000  Uiso   1.00
O516   O     0.25332   0.81873   0.35050   0.00000  Uiso   1.00
O517   O     0.25868   0.88217   0.39226   0.00000  Uiso   1.00
N518   N     0.09237   0.83637   0.11895   0.00000  Uiso   1.00
O519   O     0.08053   0.80695   0.14888   0.00000  Uiso   1.00
O520   O     0.07399   0.87538   0.11635   0.00000  Uiso   1.00
N521   N     0.09110   0.82904   0.38315   0.00000  Uiso   1.00
O522   O     0.06476   0.85937   0.39613   0.00000  Uiso   1.00
O523   O     0.08238   0.80246   0.34964   0.00000  Uiso   1.00
N524   N     0.24132   0.84052   0.11473   0.00000  Uiso   1.00
O525   O     0.26539   0.87164   0.09815   0.00000  Uiso   1.00
O526   O     0.25211   0.81907   0.15074   0.00000  Uiso   1.00
I527   I     0.04891   0.76047   0.44883   0.00000  Uiso   1.00
I528   I     0.28267   0.76612   0.05282   0.00000  Uiso   1.00
N529   N     0.05484   0.80298   0.04676   0.00000  Uiso   1.00
O530   O     0.02591   0.83300   0.04501   0.00000  Uiso   1.00
O531   O     0.04941   0.76528   0.06885   0.00000  Uiso   1.00
N532   N     0.27773   0.80670   0.45329   0.00000  Uiso   1.00
O533   O     0.30895   0.83333   0.45967   0.00000  Uiso   1.00
O534   O     0.28140   0.77068   0.42823   0.00000  Uiso   1.00
N535   N     0.04120   0.74885   0.24029   0.00000  Uiso   1.00
O536   O     0.05315   0.72620   0.27521   0.00000  Uiso   1.00
O537   O     0.04100   0.72903   0.20129   0.00000  Uiso   1.00
N538   N     0.29204   0.91634   0.26776   0.00000  Uiso   1.00
O539   O     0.28217   0.94213   0.23416   0.00000  Uiso   1.00
O540   O     0.29007   0.93258   0.30827   0.00000  Uiso   1.00
N541   N     0.29153   0.74969   0.23595   0.00000  Uiso   1.00
O542   O     0.27916   0.73963   0.19581   0.00000  Uiso   1.00
O543   O     0.29064   0.71860   0.26693   0.00000  Uiso   1.00
N544   N     0.04210   0.91470   0.27502   0.00000  Uiso   1.00
O545   O     0.06028   0.91744   0.31355   0.00000  Uiso   1.00
O546   O     0.04023   0.95051   0.24956   0.00000  Uiso   1.00
O547   O     0.43892   0.87154   0.24999   0.00000  Uiso   1.00
O548   O     0.56108   0.79513   0.25000   0.00000  Uiso   1.00
O549   O     0.56108   0.87154   0.25000   0.00000  Uiso   1.00
O550   O     0.43892   0.79513   0.24999   0.00000  Uiso   1.00
C551   C     0.41991   0.83316   0.25145   0.00000  Uiso   1.00
C552   C     0.58015   0.83342   0.24983   0.00000  Uiso   1.00
O553   O     0.49999   0.87156   0.18392   0.00000  Uiso   1.00
O554   O     0.50001   0.79511   0.31607   0.00000  Uiso   1.00
O555   O     0.50001   0.87156   0.31607   0.00000  Uiso   1.00
O556   O     0.49999   0.79511   0.18392   0.00000  Uiso   1.00
C557   C     0.50024   0.83327   0.16343   0.00000  Uiso   1.00
C558   C     0.49942   0.83323   0.33658   0.00000  Uiso   1.00
Zn559  Zn    0.50000   0.88437   0.25000   0.00000  Uiso   1.00
Zn560  Zn    0.50000   0.78229   0.25000   0.00000  Uiso   1.00
C561   C     0.53654   0.83223   0.40676   0.00000  Uiso   1.00
C562   C     0.46249   0.82893   0.09375   0.00000  Uiso   1.00
C563   C     0.49918   0.83170   0.38445   0.00000  Uiso   1.00
C564   C     0.50002   0.83210   0.11556   0.00000  Uiso   1.00
C565   C     0.46214   0.82393   0.40684   0.00000  Uiso   1.00
C566   C     0.53714   0.82922   0.09250   0.00000  Uiso   1.00
C567   C     0.46236   0.81719   0.45328   0.00000  Uiso   1.00
C568   C     0.53670   0.82111   0.04642   0.00000  Uiso   1.00
C569   C     0.49956   0.82092   0.47650   0.00000  Uiso   1.00
C570   C     0.49933   0.82129   0.02343   0.00000  Uiso   1.00
C571   C     0.53713   0.82401   0.45303   0.00000  Uiso   1.00
C572   C     0.46184   0.82171   0.04715   0.00000  Uiso   1.00
C573   C     0.42698   0.80491   0.47733   0.00000  Uiso   1.00
C574   C     0.57236   0.81001   0.02281   0.00000  Uiso   1.00
C575   C     0.42566   0.81129   0.02371   0.00000  Uiso   1.00
C576   C     0.57364   0.81536   0.47641   0.00000  Uiso   1.00
C577   C     0.35425   0.79162   0.24626   0.00000  Uiso   1.00
C578   C     0.64587   0.87412   0.25955   0.00000  Uiso   1.00
C579   C     0.64554   0.79207   0.24406   0.00000  Uiso   1.00
C580   C     0.35464   0.87350   0.26246   0.00000  Uiso   1.00
C581   C     0.62438   0.83341   0.25030   0.00000  Uiso   1.00
C582   C     0.37577   0.83261   0.25408   0.00000  Uiso   1.00
C583   C     0.52266   0.69087   0.28038   0.00000  Uiso   1.00
C584   C     0.47726   0.97579   0.21969   0.00000  Uiso   1.00
C585   C     0.47730   0.69052   0.21965   0.00000  Uiso   1.00
C586   C     0.52264   0.97615   0.28039   0.00000  Uiso   1.00
H587   H     0.54075   0.70932   0.30462   0.00000  Uiso   1.00
H588   H     0.45907   0.95735   0.19554   0.00000  Uiso   1.00
H589   H     0.45922   0.70869   0.19542   0.00000  Uiso   1.00
H590   H     0.54066   0.95799   0.30468   0.00000  Uiso   1.00
N591   N     0.50000   0.95240   0.25000   0.00000  Uiso   1.00
N592   N     0.50000   0.71427   0.25000   0.00000  Uiso   1.00
N593   N     0.57303   0.84447   0.38270   0.00000  Uiso   1.00
O594   O     0.58665   0.81873   0.35050   0.00000  Uiso   1.00
O595   O     0.59202   0.88217   0.39226   0.00000  Uiso   1.00
N596   N     0.42570   0.83637   0.11895   0.00000  Uiso   1.00
O597   O     0.41386   0.80695   0.14888   0.00000  Uiso   1.00
O598   O     0.40732   0.87538   0.11635   0.00000  Uiso   1.00
N599   N     0.42443   0.82904   0.38315   0.00000  Uiso   1.00
O600   O     0.39810   0.85937   0.39613   0.00000  Uiso   1.00
O601   O     0.41572   0.80246   0.34964   0.00000  Uiso   1.00
N602   N     0.57465   0.84052   0.11473   0.00000  Uiso   1.00
O603   O     0.59873   0.87164   0.09815   0.00000  Uiso   1.00
O604   O     0.58544   0.81907   0.15074   0.00000  Uiso   1.00
I605   I     0.38224   0.76047   0.44883   0.00000  Uiso   1.00
I606   I     0.61600   0.76612   0.05282   0.00000  Uiso   1.00
N607   N     0.38817   0.80298   0.04676   0.00000  Uiso   1.00
O608   O     0.35925   0.83300   0.04501   0.00000  Uiso   1.00
O609   O     0.38274   0.76528   0.06885   0.00000  Uiso   1.00
N610   N     0.61106   0.80670   0.45329   0.00000  Uiso   1.00
O611   O     0.64228   0.83333   0.45967   0.00000  Uiso   1.00
O612   O     0.61473   0.77068   0.42823   0.00000  Uiso   1.00
N613   N     0.37454   0.74885   0.24029   0.00000  Uiso   1.00
O614   O     0.38648   0.72620   0.27521   0.00000  Uiso   1.00
O615   O     0.37433   0.72903   0.20129   0.00000  Uiso   1.00
N616   N     0.62537   0.91634   0.26776   0.00000  Uiso   1.00
O617   O     0.61550   0.94213   0.23416   0.00000  Uiso   1.00
O618   O     0.62340   0.93258   0.30827   0.00000  Uiso   1.00
N619   N     0.62487   0.74969   0.23595   0.00000  Uiso   1.00
O620   O     0.61249   0.73963   0.19581   0.00000  Uiso   1.00
O621   O     0.62398   0.71860   0.26693   0.00000  Uiso   1.00
N622   N     0.37543   0.91470   0.27502   0.00000  Uiso   1.00
O623   O     0.39361   0.91744   0.31355   0.00000  Uiso   1.00
O624   O     0.37357   0.95051   0.24956   0.00000  Uiso   1.00
O625   O     0.77226   0.87154   0.24999   0.00000  Uiso   1.00
O626   O     0.89441   0.79513   0.25000   0.00000  Uiso   1.00
O627   O     0.89441   0.87154   0.25000   0.00000  Uiso   1.00
O628   O     0.77226   0.79513   0.24999   0.00000  Uiso   1.00
C629   C     0.75324   0.83316   0.25145   0.00000  Uiso   1.00
C630   C     0.91349   0.83342   0.24983   0.00000  Uiso   1.00
O631   O     0.83333   0.87156   0.18392   0.00000  Uiso   1.00
O632   O     0.83334   0.79511   0.31607   0.00000  Uiso   1.00
O633   O     0.83334   0.87156   0.31607   0.00000  Uiso   1.00
O634   O     0.83333   0.79511   0.18392   0.00000  Uiso   1.00
C635   C     0.83357   0.83327   0.16343   0.00000  Uiso   1.00
C636   C     0.83276   0.83323   0.33658   0.00000  Uiso   1.00
Zn637  Zn    0.83333   0.88437   0.25000   0.00000  Uiso   1.00
Zn638  Zn    0.83333   0.78229   0.25000   0.00000  Uiso   1.00
C639   C     0.86987   0.83223   0.40676   0.00000  Uiso   1.00
C640   C     0.79582   0.82893   0.09375   0.00000  Uiso   1.00
C641   C     0.83252   0.83170   0.38445   0.00000  Uiso   1.00
C642   C     0.83336   0.83210   0.11556   0.00000  Uiso   1.00
C643   C     0.79547   0.82393   0.40684   0.00000  Uiso   1.00
C644   C     0.87048   0.82922   0.09250   0.00000  Uiso   1.00
C645   C     0.79570   0.81719   0.45328   0.00000  Uiso   1.00
C646   C     0.87003   0.82111   0.04642   0.00000  Uiso   1.00
C647   C     0.83290   0.82092   0.47650   0.00000  Uiso   1.00
C648   C     0.83266   0.82129   0.02343   0.00000  Uiso   1.00
C649   C     0.87047   0.82401   0.45303   0.00000  Uiso   1.00
C650   C     0.79517   0.82171   0.04715   0.00000  Uiso   1.00
C651   C     0.76031   0.80491   0.47733   0.00000  Uiso   1.00
C652   C     0.90569   0.81001   0.02281   0.00000  Uiso   1.00
C653   C     0.75899   0.81129   0.02371   0.00000  Uiso   1.00
C654   C     0.90697   0.81536   0.47641   0.00000  Uiso   1.00
C655   C     0.68758   0.79162   0.24626   0.00000  Uiso   1.00
C656   C     0.97921   0.87412   0.25955   0.00000  Uiso   1.00
C657   C     0.97887   0.79207   0.24406   0.00000  Uiso   1.00
C658   C     0.68797   0.87350   0.26246   0.00000  Uiso   1.00
C659   C     0.95771   0.83341   0.25030   0.00000  Uiso   1.00
C660   C     0.70910   0.83261   0.25408   0.00000  Uiso   1.00
C661   C     0.85600   0.69087   0.28038   0.00000  Uiso   1.00
C662   C     0.81059   0.97579   0.21969   0.00000  Uiso   1.00
C663   C     0.81063   0.69052   0.21965   0.00000  Uiso   1.00
C664   C     0.85598   0.97615   0.28039   0.00000  Uiso   1.00
H665   H     0.87408   0.70932   0.30462   0.00000  Uiso   1.00
H666   H     0.79240   0.95735   0.19554   0.00000  Uiso   1.00
H667   H     0.79256   0.70869   0.19542   0.00000  Uiso   1.00
H668   H     0.87399   0.95799   0.30468   0.00000  Uiso   1.00
N669   N     0.83333   0.95240   0.25000   0.00000  Uiso   1.00
N670   N     0.83333   0.71427   0.25000   0.00000  Uiso   1.00
N671   N     0.90636   0.84447   0.38270   0.00000  Uiso   1.00
O672   O     0.91999   0.81873   0.35050   0.00000  Uiso   1.00
O673   O     0.92535   0.88217   0.39226   0.00000  Uiso   1.00
N674   N     0.75904   0.83637   0.11895   0.00000  Uiso   1.00
O675   O     0.74719   0.80695   0.14888   0.00000  Uiso   1.00
O676   O     0.74066   0.87538   0.11635   0.00000  Uiso   1.00
N677   N     0.75777   0.82904   0.38315   0.00000  Uiso   1.00
O678   O     0.73143   0.85937   0.39613   0.00000  Uiso   1.00
O679   O     0.74905   0.80246   0.34964   0.00000  Uiso   1.00
N680   N     0.90799   0.84052   0.11473   0.00000  Uiso   1.00
O681   O     0.93206   0.87164   0.09815   0.00000  Uiso   1.00
O682   O     0.91878   0.81907   0.15074   0.00000  Uiso   1.00
I683   I     0.71558   0.76047   0.44883   0.00000  Uiso   1.00
I684   I     0.94934   0.76612   0.05282   0.00000  Uiso   1.00
N685   N     0.72150   0.80298   0.04676   0.00000  Uiso   1.00
O686   O     0.69258   0.83300   0.04501   0.00000  Uiso   1.00
O687   O     0.71607   0.76528   0.06885   0.00000  Uiso   1.00
N688   N     0.94440   0.80670   0.45329   0.00000  Uiso   1.00
O689   O     0.97561   0.83333   0.45967   0.00000  Uiso   1.00
O690   O     0.94807   0.77068   0.42823   0.00000  Uiso   1.00
N691   N     0.70787   0.74885   0.24029   0.00000  Uiso   1.00
O692   O     0.71981   0.72620   0.27521   0.00000  Uiso   1.00
O693   O     0.70766   0.72903   0.20129   0.00000  Uiso   1.00
N694   N     0.95871   0.91634   0.26776   0.00000  Uiso   1.00
O695   O     0.94883   0.94213   0.23416   0.00000  Uiso   1.00
O696   O     0.95673   0.93258   0.30827   0.00000  Uiso   1.00
N697   N     0.95820   0.74969   0.23595   0.00000  Uiso   1.00
O698   O     0.94582   0.73963   0.19581   0.00000  Uiso   1.00
O699   O     0.95731   0.71860   0.26693   0.00000  Uiso   1.00
N700   N     0.70876   0.91470   0.27502   0.00000  Uiso   1.00
O701   O     0.72695   0.91744   0.31355   0.00000  Uiso   1.00
O702   O     0.70690   0.95051   0.24956   0.00000  Uiso   1.00
O703   O     0.10559   0.20487   0.74999   0.00000  Uiso   1.00
O704   O     0.22774   0.12846   0.75000   0.00000  Uiso   1.00
O705   O     0.22774   0.20487   0.75000   0.00000  Uiso   1.00
O706   O     0.10559   0.12846   0.74999   0.00000  Uiso   1.00
C707   C     0.08658   0.16649   0.75145   0.00000  Uiso   1.00
C708   C     0.24682   0.16676   0.74983   0.00000  Uiso   1.00
O709   O     0.16666   0.20489   0.68392   0.00000  Uiso   1.00
O710   O     0.16667   0.12844   0.81607   0.00000  Uiso   1.00
O711   O     0.16667   0.20489   0.81607   0.00000  Uiso   1.00
O712   O     0.16666   0.12844   0.68392   0.00000  Uiso   1.00
C713   C     0.16691   0.16660   0.66343   0.00000  Uiso   1.00
C714   C     0.16609   0.16657   0.83658   0.00000  Uiso   1.00
Zn715  Zn    0.16667   0.21771   0.75000   0.00000  Uiso   1.00
Zn716  Zn    0.16667   0.11563   0.75000   0.00000  Uiso   1.00
C717   C     0.20321   0.16556   0.90676   0.00000  Uiso   1.00
C718   C     0.12915   0.16227   0.59375   0.00000  Uiso   1.00
C719   C     0.16585   0.16503   0.88445   0.00000  Uiso   1.00
C720   C     0.16669   0.16544   0.61556   0.00000  Uiso   1.00
C721   C     0.12880   0.15726   0.90684   0.00000  Uiso   1.00
C722   C     0.20381   0.16256   0.59250   0.00000  Uiso   1.00
C723   C     0.12903   0.15052   0.95328   0.00000  Uiso   1.00
C724   C     0.20337   0.15444   0.54642   0.00000  Uiso   1.00
C725   C     0.16623   0.15425   0.97650   0.00000  Uiso   1.00
C726   C     0.16599   0.15463   0.52343   0.00000  Uiso   1.00
C727   C     0.20380   0.15734   0.95303   0.00000  Uiso   1.00
C728   C     0.12850   0.15504   0.54715   0.00000  Uiso   1.00
C729   C     0.09364   0.13825   0.97733   0.00000  Uiso   1.00
C730   C     0.23903   0.14334   0.52281   0.00000  Uiso   1.00
C731   C     0.09233   0.14462   0.52371   0.00000  Uiso   1.00
C732   C     0.24030   0.14869   0.97641   0.00000  Uiso   1.00
C733   C     0.02092   0.12496   0.74626   0.00000  Uiso   1.00
C734   C     0.31254   0.20746   0.75955   0.00000  Uiso   1.00
C735   C     0.31220   0.12540   0.74406   0.00000  Uiso   1.00
C736   C     0.02130   0.20684   0.76246   0.00000  Uiso   1.00
C737   C     0.29104   0.16674   0.75030   0.00000  Uiso   1.00
C738   C     0.04244   0.16595   0.75408   0.00000  Uiso   1.00
C739   C     0.18933   0.02421   0.78038   0.00000  Uiso   1.00
C740   C     0.14392   0.30913   0.71969   0.00000  Uiso   1.00
C741   C     0.14396   0.02386   0.71965   0.00000  Uiso   1.00
C742   C     0.18931   0.30948   0.78039   0.00000  Uiso   1.00
H743   H     0.20742   0.04265   0.80462   0.00000  Uiso   1.00
H744   H     0.12573   0.29068   0.69554   0.00000  Uiso   1.00
H745   H     0.12589   0.04203   0.69542   0.00000  Uiso   1.00
H746   H     0.20733   0.29132   0.80468   0.00000  Uiso   1.00
N747   N     0.16667   0.28573   0.75000   0.00000  Uiso   1.00
N748   N     0.16667   0.04760   0.75000   0.00000  Uiso   1.00
N749   N     0.23969   0.17780   0.88270   0.00000  Uiso   1.00
O750   O     0.25332   0.15207   0.85050   0.00000  Uiso   1.00
O751   O     0.25868   0.21551   0.89226   0.00000  Uiso   1.00
N752   N     0.09237   0.16971   0.61895   0.00000  Uiso   1.00
O753   O     0.08053   0.14028   0.64888   0.00000  Uiso   1.00
O754   O     0.07399   0.20872   0.61635   0.00000  Uiso   1.00
N755   N     0.09110   0.16237   0.88315   0.00000  Uiso   1.00
O756   O     0.06476   0.19270   0.89613   0.00000  Uiso   1.00
O757   O     0.08238   0.13580   0.84964   0.00000  Uiso   1.00
N758   N     0.24132   0.17386   0.61473   0.00000  Uiso   1.00
O759   O     0.26539   0.20497   0.59815   0.00000  Uiso   1.00
O760   O     0.25211   0.15241   0.65074   0.00000  Uiso   1.00
I761   I     0.04891   0.09380   0.94883   0.00000  Uiso   1.00
I762   I     0.28267   0.09945   0.55282   0.00000  Uiso   1.00
N763   N     0.05484   0.13631   0.54676   0.00000  Uiso   1.00
O764   O     0.02591   0.16633   0.54501   0.00000  Uiso   1.00
O765   O     0.04941   0.09861   0.56885   0.00000  Uiso   1.00
N766   N     0.27773   0.14003   0.95329   0.00000  Uiso   1.00
O767   O     0.30895   0.16666   0.95967   0.00000  Uiso   1.00
O768   O     0.28140   0.10401   0.92823   0.00000  Uiso   1.00
N769   N     0.04120   0.08219   0.74029   0.00000  Uiso   1.00
O770   O     0.05315   0.05954   0.77521   0.00000  Uiso   1.00
O771   O     0.04100   0.06236   0.70129   0.00000  Uiso   1.00
N772   N     0.29204   0.24968   0.76776   0.00000  Uiso   1.00
O773   O     0.28217   0.27546   0.73416   0.00000  Uiso   1.00
O774   O     0.29007   0.26591   0.80827   0.00000  Uiso   1.00
N775   N     0.29153   0.08302   0.73595   0.00000  Uiso   1.00
O776   O     0.27916   0.07296   0.69581   0.00000  Uiso   1.00
O777   O     0.29064   0.05193   0.76693   0.00000  Uiso   1.00
N778   N     0.04210   0.24803   0.77502   0.00000  Uiso   1.00
O779   O     0.06028   0.25077   0.81355   0.00000  Uiso   1.00
O780   O     0.04023   0.28384   0.74956   0.00000  Uiso   1.00
O781   O     0.43892   0.20487   0.74999   0.00000  Uiso   1.00
O782   O     0.56108   0.12846   0.75000   0.00000  Uiso   1.00
O783   O     0.56108   0.20487   0.75000   0.00000  Uiso   1.00
O784   O     0.43892   0.12846   0.74999   0.00000  Uiso   1.00
C785   C     0.41991   0.16649   0.75145   0.00000  Uiso   1.00
C786   C     0.58015   0.16676   0.74983   0.00000  Uiso   1.00
O787   O     0.49999   0.20489   0.68392   0.00000  Uiso   1.00
O788   O     0.50001   0.12844   0.81607   0.00000  Uiso   1.00
O789   O     0.50001   0.20489   0.81607   0.00000  Uiso   1.00
O790   O     0.49999   0.12844   0.68392   0.00000  Uiso   1.00
C791   C     0.50024   0.16660   0.66343   0.00000  Uiso   1.00
C792   C     0.49942   0.16657   0.83658   0.00000  Uiso   1.00
Zn793  Zn    0.50000   0.21771   0.75000   0.00000  Uiso   1.00
Zn794  Zn    0.50000   0.11563   0.75000   0.00000  Uiso   1.00
C795   C     0.53654   0.16556   0.90676   0.00000  Uiso   1.00
C796   C     0.46249   0.16227   0.59375   0.00000  Uiso   1.00
C797   C     0.49918   0.16503   0.88445   0.00000  Uiso   1.00
C798   C     0.50002   0.16544   0.61556   0.00000  Uiso   1.00
C799   C     0.46214   0.15726   0.90684   0.00000  Uiso   1.00
C800   C     0.53714   0.16256   0.59250   0.00000  Uiso   1.00
C801   C     0.46236   0.15052   0.95328   0.00000  Uiso   1.00
C802   C     0.53670   0.15444   0.54642   0.00000  Uiso   1.00
C803   C     0.49956   0.15425   0.97650   0.00000  Uiso   1.00
C804   C     0.49933   0.15463   0.52343   0.00000  Uiso   1.00
C805   C     0.53713   0.15734   0.95303   0.00000  Uiso   1.00
C806   C     0.46184   0.15504   0.54715   0.00000  Uiso   1.00
C807   C     0.42698   0.13825   0.97733   0.00000  Uiso   1.00
C808   C     0.57236   0.14334   0.52281   0.00000  Uiso   1.00
C809   C     0.42566   0.14462   0.52371   0.00000  Uiso   1.00
C810   C     0.57364   0.14869   0.97641   0.00000  Uiso   1.00
C811   C     0.35425   0.12496   0.74626   0.00000  Uiso   1.00
C812   C     0.64587   0.20746   0.75955   0.00000  Uiso   1.00
C813   C     0.64554   0.12540   0.74406   0.00000  Uiso   1.00
C814   C     0.35464   0.20684   0.76246   0.00000  Uiso   1.00
C815   C     0.62438   0.16674   0.75030   0.00000  Uiso   1.00
C816   C     0.37577   0.16595   0.75408   0.00000  Uiso   1.00
C817   C     0.52266   0.02421   0.78038   0.00000  Uiso   1.00
C818   C     0.47726   0.30913   0.71969   0.00000  Uiso   1.00
C819   C     0.47730   0.02386   0.71965   0.00000  Uiso   1.00
C820   C     0.52264   0.30948   0.78039   0.00000  Uiso   1.00
H821   H     0.54075   0.04265   0.80462   0.00000  Uiso   1.00
H822   H     0.45907   0.29068   0.69554   0.00000  Uiso   1.00
H823   H     0.45922   0.04203   0.69542   0.00000  Uiso   1.00
H824   H     0.54066   0.29132   0.80468   0.00000  Uiso   1.00
N825   N     0.50000   0.28573   0.75000   0.00000  Uiso   1.00
N826   N     0.50000   0.04760   0.75000   0.00000  Uiso   1.00
N827   N     0.57303   0.17780   0.88270   0.00000  Uiso   1.00
O828   O     0.58665   0.15207   0.85050   0.00000  Uiso   1.00
O829   O     0.59202   0.21551   0.89226   0.00000  Uiso   1.00
N830   N     0.42570   0.16971   0.61895   0.00000  Uiso   1.00
O831   O     0.41386   0.14028   0.64888   0.00000  Uiso   1.00
O832   O     0.40732   0.20872   0.61635   0.00000  Uiso   1.00
N833   N     0.42443   0.16237   0.88315   0.00000  Uiso   1.00
O834   O     0.39810   0.19270   0.89613   0.00000  Uiso   1.00
O835   O     0.41572   0.13580   0.84964   0.00000  Uiso   1.00
N836   N     0.57465   0.17386   0.61473   0.00000  Uiso   1.00
O837   O     0.59873   0.20497   0.59815   0.00000  Uiso   1.00
O838   O     0.58544   0.15241   0.65074   0.00000  Uiso   1.00
I839   I     0.38224   0.09380   0.94883   0.00000  Uiso   1.00
I840   I     0.61600   0.09945   0.55282   0.00000  Uiso   1.00
N841   N     0.38817   0.13631   0.54676   0.00000  Uiso   1.00
O842   O     0.35925   0.16633   0.54501   0.00000  Uiso   1.00
O843   O     0.38274   0.09861   0.56885   0.00000  Uiso   1.00
N844   N     0.61106   0.14003   0.95329   0.00000  Uiso   1.00
O845   O     0.64228   0.16666   0.95967   0.00000  Uiso   1.00
O846   O     0.61473   0.10401   0.92823   0.00000  Uiso   1.00
N847   N     0.37454   0.08219   0.74029   0.00000  Uiso   1.00
O848   O     0.38648   0.05954   0.77521   0.00000  Uiso   1.00
O849   O     0.37433   0.06236   0.70129   0.00000  Uiso   1.00
N850   N     0.62537   0.24968   0.76776   0.00000  Uiso   1.00
O851   O     0.61550   0.27546   0.73416   0.00000  Uiso   1.00
O852   O     0.62340   0.26591   0.80827   0.00000  Uiso   1.00
N853   N     0.62487   0.08302   0.73595   0.00000  Uiso   1.00
O854   O     0.61249   0.07296   0.69581   0.00000  Uiso   1.00
O855   O     0.62398   0.05193   0.76693   0.00000  Uiso   1.00
N856   N     0.37543   0.24803   0.77502   0.00000  Uiso   1.00
O857   O     0.39361   0.25077   0.81355   0.00000  Uiso   1.00
O858   O     0.37357   0.28384   0.74956   0.00000  Uiso   1.00
O859   O     0.77226   0.20487   0.74999   0.00000  Uiso   1.00
O860   O     0.89441   0.12846   0.75000   0.00000  Uiso   1.00
O861   O     0.89441   0.20487   0.75000   0.00000  Uiso   1.00
O862   O     0.77226   0.12846   0.74999   0.00000  Uiso   1.00
C863   C     0.75324   0.16649   0.75145   0.00000  Uiso   1.00
C864   C     0.91349   0.16676   0.74983   0.00000  Uiso   1.00
O865   O     0.83333   0.20489   0.68392   0.00000  Uiso   1.00
O866   O     0.83334   0.12844   0.81607   0.00000  Uiso   1.00
O867   O     0.83334   0.20489   0.81607   0.00000  Uiso   1.00
O868   O     0.83333   0.12844   0.68392   0.00000  Uiso   1.00
C869   C     0.83357   0.16660   0.66343   0.00000  Uiso   1.00
C870   C     0.83276   0.16657   0.83658   0.00000  Uiso   1.00
Zn871  Zn    0.83333   0.21771   0.75000   0.00000  Uiso   1.00
Zn872  Zn    0.83333   0.11563   0.75000   0.00000  Uiso   1.00
C873   C     0.86987   0.16556   0.90676   0.00000  Uiso   1.00
C874   C     0.79582   0.16227   0.59375   0.00000  Uiso   1.00
C875   C     0.83252   0.16503   0.88445   0.00000  Uiso   1.00
C876   C     0.83336   0.16544   0.61556   0.00000  Uiso   1.00
C877   C     0.79547   0.15726   0.90684   0.00000  Uiso   1.00
C878   C     0.87048   0.16256   0.59250   0.00000  Uiso   1.00
C879   C     0.79570   0.15052   0.95328   0.00000  Uiso   1.00
C880   C     0.87003   0.15444   0.54642   0.00000  Uiso   1.00
C881   C     0.83290   0.15425   0.97650   0.00000  Uiso   1.00
C882   C     0.83266   0.15463   0.52343   0.00000  Uiso   1.00
C883   C     0.87047   0.15734   0.95303   0.00000  Uiso   1.00
C884   C     0.79517   0.15504   0.54715   0.00000  Uiso   1.00
C885   C     0.76031   0.13825   0.97733   0.00000  Uiso   1.00
C886   C     0.90569   0.14334   0.52281   0.00000  Uiso   1.00
C887   C     0.75899   0.14462   0.52371   0.00000  Uiso   1.00
C888   C     0.90697   0.14869   0.97641   0.00000  Uiso   1.00
C889   C     0.68758   0.12496   0.74626   0.00000  Uiso   1.00
C890   C     0.97921   0.20746   0.75955   0.00000  Uiso   1.00
C891   C     0.97887   0.12540   0.74406   0.00000  Uiso   1.00
C892   C     0.68797   0.20684   0.76246   0.00000  Uiso   1.00
C893   C     0.95771   0.16674   0.75030   0.00000  Uiso   1.00
C894   C     0.70910   0.16595   0.75408   0.00000  Uiso   1.00
C895   C     0.85600   0.02421   0.78038   0.00000  Uiso   1.00
C896   C     0.81059   0.30913   0.71969   0.00000  Uiso   1.00
C897   C     0.81063   0.02386   0.71965   0.00000  Uiso   1.00
C898   C     0.85598   0.30948   0.78039   0.00000  Uiso   1.00
H899   H     0.87408   0.04265   0.80462   0.00000  Uiso   1.00
H900   H     0.79240   0.29068   0.69554   0.00000  Uiso   1.00
H901   H     0.79256   0.04203   0.69542   0.00000  Uiso   1.00
H902   H     0.87399   0.29132   0.80468   0.00000  Uiso   1.00
N903   N     0.83333   0.28573   0.75000   0.00000  Uiso   1.00
N904   N     0.83333   0.04760   0.75000   0.00000  Uiso   1.00
N905   N     0.90636   0.17780   0.88270   0.00000  Uiso   1.00
O906   O     0.91999   0.15207   0.85050   0.00000  Uiso   1.00
O907   O     0.92535   0.21551   0.89226   0.00000  Uiso   1.00
N908   N     0.75904   0.16971   0.61895   0.00000  Uiso   1.00
O909   O     0.74719   0.14028   0.64888   0.00000  Uiso   1.00
O910   O     0.74066   0.20872   0.61635   0.00000  Uiso   1.00
N911   N     0.75777   0.16237   0.88315   0.00000  Uiso   1.00
O912   O     0.73143   0.19270   0.89613   0.00000  Uiso   1.00
O913   O     0.74905   0.13580   0.84964   0.00000  Uiso   1.00
N914   N     0.90799   0.17386   0.61473   0.00000  Uiso   1.00
O915   O     0.93206   0.20497   0.59815   0.00000  Uiso   1.00
O916   O     0.91878   0.15241   0.65074   0.00000  Uiso   1.00
I917   I     0.71558   0.09380   0.94883   0.00000  Uiso   1.00
I918   I     0.94934   0.09945   0.55282   0.00000  Uiso   1.00
N919   N     0.72150   0.13631   0.54676   0.00000  Uiso   1.00
O920   O     0.69258   0.16633   0.54501   0.00000  Uiso   1.00
O921   O     0.71607   0.09861   0.56885   0.00000  Uiso   1.00
N922   N     0.94440   0.14003   0.95329   0.00000  Uiso   1.00
O923   O     0.97561   0.16666   0.95967   0.00000  Uiso   1.00
O924   O     0.94807   0.10401   0.92823   0.00000  Uiso   1.00
N925   N     0.70787   0.08219   0.74029   0.00000  Uiso   1.00
O926   O     0.71981   0.05954   0.77521   0.00000  Uiso   1.00
O927   O     0.70766   0.06236   0.70129   0.00000  Uiso   1.00
N928   N     0.95871   0.24968   0.76776   0.00000  Uiso   1.00
O929   O     0.94883   0.27546   0.73416   0.00000  Uiso   1.00
O930   O     0.95673   0.26591   0.80827   0.00000  Uiso   1.00
N931   N     0.95820   0.08302   0.73595   0.00000  Uiso   1.00
O932   O     0.94582   0.07296   0.69581   0.00000  Uiso   1.00
O933   O     0.95731   0.05193   0.76693   0.00000  Uiso   1.00
N934   N     0.70876   0.24803   0.77502   0.00000  Uiso   1.00
O935   O     0.72695   0.25077   0.81355   0.00000  Uiso   1.00
O936   O     0.70690   0.28384   0.74956   0.00000  Uiso   1.00
O937   O     0.10559   0.53821   0.74999   0.00000  Uiso   1.00
O938   O     0.22774   0.46179   0.75000   0.00000  Uiso   1.00
O939   O     0.22774   0.53821   0.75000   0.00000  Uiso   1.00
O940   O     0.10559   0.46179   0.74999   0.00000  Uiso   1.00
C941   C     0.08658   0.49982   0.75145   0.00000  Uiso   1.00
C942   C     0.24682   0.50009   0.74983   0.00000  Uiso   1.00
O943   O     0.16666   0.53823   0.68392   0.00000  Uiso   1.00
O944   O     0.16667   0.46177   0.81607   0.00000  Uiso   1.00
O945   O     0.16667   0.53823   0.81607   0.00000  Uiso   1.00
O946   O     0.16666   0.46177   0.68392   0.00000  Uiso   1.00
C947   C     0.16691   0.49993   0.66343   0.00000  Uiso   1.00
C948   C     0.16609   0.49990   0.83658   0.00000  Uiso   1.00
Zn949  Zn    0.16667   0.55104   0.75000   0.00000  Uiso   1.00
Zn950  Zn    0.16667   0.44896   0.75000   0.00000  Uiso   1.00
C951   C     0.20321   0.49890   0.90676   0.00000  Uiso   1.00
C952   C     0.12915   0.49560   0.59375   0.00000  Uiso   1.00
C953   C     0.16585   0.49836   0.88445   0.00000  Uiso   1.00
C954   C     0.16669   0.49877   0.61556   0.00000  Uiso   1.00
C955   C     0.12880   0.49060   0.90684   0.00000  Uiso   1.00
C956   C     0.20381   0.49589   0.59250   0.00000  Uiso   1.00
C957   C     0.12903   0.48386   0.95328   0.00000  Uiso   1.00
C958   C     0.20337   0.48778   0.54642   0.00000  Uiso   1.00
C959   C     0.16623   0.48759   0.97650   0.00000  Uiso   1.00
C960   C     0.16599   0.48796   0.52343   0.00000  Uiso   1.00
C961   C     0.20380   0.49067   0.95303   0.00000  Uiso   1.00
C962   C     0.12850   0.48837   0.54715   0.00000  Uiso   1.00
C963   C     0.09364   0.47158   0.97733   0.00000  Uiso   1.00
C964   C     0.23903   0.47667   0.52281   0.00000  Uiso   1.00
C965   C     0.09233   0.47796   0.52371   0.00000  Uiso   1.00
C966   C     0.24030   0.48203   0.97641   0.00000  Uiso   1.00
C967   C     0.02092   0.45829   0.74626   0.00000  Uiso   1.00
C968   C     0.31254   0.54079   0.75955   0.00000  Uiso   1.00
C969   C     0.31220   0.45874   0.74406   0.00000  Uiso   1.00
C970   C     0.02130   0.54017   0.76246   0.00000  Uiso   1.00
C971   C     0.29104   0.50008   0.75030   0.00000  Uiso   1.00
C972   C     0.04244   0.49928   0.75408   0.00000  Uiso   1.00
C973   C     0.18933   0.35754   0.78038   0.00000  Uiso   1.00
C974   C     0.14392   0.64246   0.71969   0.00000  Uiso   1.00
C975   C     0.14396   0.35719   0.71965   0.00000  Uiso   1.00
C976   C     0.18931   0.64282   0.78039   0.00000  Uiso   1.00
H977   H     0.20742   0.37599   0.80462   0.00000  Uiso   1.00
H978   H     0.12573   0.62402   0.69554   0.00000  Uiso   1.00
H979   H     0.12589   0.37536   0.69542   0.00000  Uiso   1.00
H980   H     0.20733   0.62465   0.80468   0.00000  Uiso   1.00
N981   N     0.16667   0.61907   0.75000   0.00000  Uiso   1.00
N982   N     0.16667   0.38093   0.75000   0.00000  Uiso   1.00
N983   N     0.23969   0.51113   0.88270   0.00000  Uiso   1.00
O984   O     0.25332   0.48540   0.85050   0.00000  Uiso   1.00
O985   O     0.25868   0.54884   0.89226   0.00000  Uiso   1.00
N986   N     0.09237   0.50304   0.61895   0.00000  Uiso   1.00
O987   O     0.08053   0.47361   0.64888   0.00000  Uiso   1.00
O988   O     0.07399   0.54205   0.61635   0.00000  Uiso   1.00
N989   N     0.09110   0.49571   0.88315   0.00000  Uiso   1.00
O990   O     0.06476   0.52604   0.89613   0.00000  Uiso   1.00
O991   O     0.08238   0.46913   0.84964   0.00000  Uiso   1.00
N992   N     0.24132   0.50719   0.61473   0.00000  Uiso   1.00
O993   O     0.26539   0.53831   0.59815   0.00000  Uiso   1.00
O994   O     0.25211   0.48574   0.65074   0.00000  Uiso   1.00
I995   I     0.04891   0.42714   0.94883   0.00000  Uiso   1.00
I996   I     0.28267   0.43279   0.55282   0.00000  Uiso   1.00
N997   N     0.05484   0.46964   0.54676   0.00000  Uiso   1.00
O998   O     0.02591   0.49967   0.54501   0.00000  Uiso   1.00
O999   O     0.04941   0.43195   0.56885   0.00000  Uiso   1.00
N1000  N     0.27773   0.47336   0.95329   0.00000  Uiso   1.00
O1001  O     0.30895   0.49999   0.95967   0.00000  Uiso   1.00
O1002  O     0.28140   0.43735   0.92823   0.00000  Uiso   1.00
N1003  N     0.04120   0.41552   0.74029   0.00000  Uiso   1.00
O1004  O     0.05315   0.39287   0.77521   0.00000  Uiso   1.00
O1005  O     0.04100   0.39569   0.70129   0.00000  Uiso   1.00
N1006  N     0.29204   0.58301   0.76776   0.00000  Uiso   1.00
O1007  O     0.28217   0.60879   0.73416   0.00000  Uiso   1.00
O1008  O     0.29007   0.59925   0.80827   0.00000  Uiso   1.00
N1009  N     0.29153   0.41636   0.73595   0.00000  Uiso   1.00
O1010  O     0.27916   0.40629   0.69581   0.00000  Uiso   1.00
O1011  O     0.29064   0.38527   0.76693   0.00000  Uiso   1.00
N1012  N     0.04210   0.58136   0.77502   0.00000  Uiso   1.00
O1013  O     0.06028   0.58411   0.81355   0.00000  Uiso   1.00
O1014  O     0.04023   0.61718   0.74956   0.00000  Uiso   1.00
O1015  O     0.43892   0.53821   0.74999   0.00000  Uiso   1.00
O1016  O     0.56108   0.46179   0.75000   0.00000  Uiso   1.00
O1017  O     0.56108   0.53821   0.75000   0.00000  Uiso   1.00
O1018  O     0.43892   0.46179   0.74999   0.00000  Uiso   1.00
C1019  C     0.41991   0.49982   0.75145   0.00000  Uiso   1.00
C1020  C     0.58015   0.50009   0.74983   0.00000  Uiso   1.00
O1021  O     0.49999   0.53823   0.68392   0.00000  Uiso   1.00
O1022  O     0.50001   0.46177   0.81607   0.00000  Uiso   1.00
O1023  O     0.50001   0.53823   0.81607   0.00000  Uiso   1.00
O1024  O     0.49999   0.46177   0.68392   0.00000  Uiso   1.00
C1025  C     0.50024   0.49993   0.66343   0.00000  Uiso   1.00
C1026  C     0.49942   0.49990   0.83658   0.00000  Uiso   1.00
Zn1027 Zn    0.50000   0.55104   0.75000   0.00000  Uiso   1.00
Zn1028 Zn    0.50000   0.44896   0.75000   0.00000  Uiso   1.00
C1029  C     0.53654   0.49890   0.90676   0.00000  Uiso   1.00
C1030  C     0.46249   0.49560   0.59375   0.00000  Uiso   1.00
C1031  C     0.49918   0.49836   0.88445   0.00000  Uiso   1.00
C1032  C     0.50002   0.49877   0.61556   0.00000  Uiso   1.00
C1033  C     0.46214   0.49060   0.90684   0.00000  Uiso   1.00
C1034  C     0.53714   0.49589   0.59250   0.00000  Uiso   1.00
C1035  C     0.46236   0.48386   0.95328   0.00000  Uiso   1.00
C1036  C     0.53670   0.48778   0.54642   0.00000  Uiso   1.00
C1037  C     0.49956   0.48759   0.97650   0.00000  Uiso   1.00
C1038  C     0.49933   0.48796   0.52343   0.00000  Uiso   1.00
C1039  C     0.53713   0.49067   0.95303   0.00000  Uiso   1.00
C1040  C     0.46184   0.48837   0.54715   0.00000  Uiso   1.00
C1041  C     0.42698   0.47158   0.97733   0.00000  Uiso   1.00
C1042  C     0.57236   0.47667   0.52281   0.00000  Uiso   1.00
C1043  C     0.42566   0.47796   0.52371   0.00000  Uiso   1.00
C1044  C     0.57364   0.48203   0.97641   0.00000  Uiso   1.00
C1045  C     0.35425   0.45829   0.74626   0.00000  Uiso   1.00
C1046  C     0.64587   0.54079   0.75955   0.00000  Uiso   1.00
C1047  C     0.64554   0.45874   0.74406   0.00000  Uiso   1.00
C1048  C     0.35464   0.54017   0.76246   0.00000  Uiso   1.00
C1049  C     0.62438   0.50008   0.75030   0.00000  Uiso   1.00
C1050  C     0.37577   0.49928   0.75408   0.00000  Uiso   1.00
C1051  C     0.52266   0.35754   0.78038   0.00000  Uiso   1.00
C1052  C     0.47726   0.64246   0.71969   0.00000  Uiso   1.00
C1053  C     0.47730   0.35719   0.71965   0.00000  Uiso   1.00
C1054  C     0.52264   0.64282   0.78039   0.00000  Uiso   1.00
H1055  H     0.54075   0.37599   0.80462   0.00000  Uiso   1.00
H1056  H     0.45907   0.62402   0.69554   0.00000  Uiso   1.00
H1057  H     0.45922   0.37536   0.69542   0.00000  Uiso   1.00
H1058  H     0.54066   0.62465   0.80468   0.00000  Uiso   1.00
N1059  N     0.50000   0.61907   0.75000   0.00000  Uiso   1.00
N1060  N     0.50000   0.38093   0.75000   0.00000  Uiso   1.00
N1061  N     0.57303   0.51113   0.88270   0.00000  Uiso   1.00
O1062  O     0.58665   0.48540   0.85050   0.00000  Uiso   1.00
O1063  O     0.59202   0.54884   0.89226   0.00000  Uiso   1.00
N1064  N     0.42570   0.50304   0.61895   0.00000  Uiso   1.00
O1065  O     0.41386   0.47361   0.64888   0.00000  Uiso   1.00
O1066  O     0.40732   0.54205   0.61635   0.00000  Uiso   1.00
N1067  N     0.42443   0.49571   0.88315   0.00000  Uiso   1.00
O1068  O     0.39810   0.52604   0.89613   0.00000  Uiso   1.00
O1069  O     0.41572   0.46913   0.84964   0.00000  Uiso   1.00
N1070  N     0.57465   0.50719   0.61473   0.00000  Uiso   1.00
O1071  O     0.59873   0.53831   0.59815   0.00000  Uiso   1.00
O1072  O     0.58544   0.48574   0.65074   0.00000  Uiso   1.00
I1073  I     0.38224   0.42714   0.94883   0.00000  Uiso   1.00
I1074  I     0.61600   0.43279   0.55282   0.00000  Uiso   1.00
N1075  N     0.38817   0.46964   0.54676   0.00000  Uiso   1.00
O1076  O     0.35925   0.49967   0.54501   0.00000  Uiso   1.00
O1077  O     0.38274   0.43195   0.56885   0.00000  Uiso   1.00
N1078  N     0.61106   0.47336   0.95329   0.00000  Uiso   1.00
O1079  O     0.64228   0.49999   0.95967   0.00000  Uiso   1.00
O1080  O     0.61473   0.43735   0.92823   0.00000  Uiso   1.00
N1081  N     0.37454   0.41552   0.74029   0.00000  Uiso   1.00
O1082  O     0.38648   0.39287   0.77521   0.00000  Uiso   1.00
O1083  O     0.37433   0.39569   0.70129   0.00000  Uiso   1.00
N1084  N     0.62537   0.58301   0.76776   0.00000  Uiso   1.00
O1085  O     0.61550   0.60879   0.73416   0.00000  Uiso   1.00
O1086  O     0.62340   0.59925   0.80827   0.00000  Uiso   1.00
N1087  N     0.62487   0.41636   0.73595   0.00000  Uiso   1.00
O1088  O     0.61249   0.40629   0.69581   0.00000  Uiso   1.00
O1089  O     0.62398   0.38527   0.76693   0.00000  Uiso   1.00
N1090  N     0.37543   0.58136   0.77502   0.00000  Uiso   1.00
O1091  O     0.39361   0.58411   0.81355   0.00000  Uiso   1.00
O1092  O     0.37357   0.61718   0.74956   0.00000  Uiso   1.00
O1093  O     0.77226   0.53821   0.74999   0.00000  Uiso   1.00
O1094  O     0.89441   0.46179   0.75000   0.00000  Uiso   1.00
O1095  O     0.89441   0.53821   0.75000   0.00000  Uiso   1.00
O1096  O     0.77226   0.46179   0.74999   0.00000  Uiso   1.00
C1097  C     0.75324   0.49982   0.75145   0.00000  Uiso   1.00
C1098  C     0.91349   0.50009   0.74983   0.00000  Uiso   1.00
O1099  O     0.83333   0.53823   0.68392   0.00000  Uiso   1.00
O1100  O     0.83334   0.46177   0.81607   0.00000  Uiso   1.00
O1101  O     0.83334   0.53823   0.81607   0.00000  Uiso   1.00
O1102  O     0.83333   0.46177   0.68392   0.00000  Uiso   1.00
C1103  C     0.83357   0.49993   0.66343   0.00000  Uiso   1.00
C1104  C     0.83276   0.49990   0.83658   0.00000  Uiso   1.00
Zn1105 Zn    0.83333   0.55104   0.75000   0.00000  Uiso   1.00
Zn1106 Zn    0.83333   0.44896   0.75000   0.00000  Uiso   1.00
C1107  C     0.86987   0.49890   0.90676   0.00000  Uiso   1.00
C1108  C     0.79582   0.49560   0.59375   0.00000  Uiso   1.00
C1109  C     0.83252   0.49836   0.88445   0.00000  Uiso   1.00
C1110  C     0.83336   0.49877   0.61556   0.00000  Uiso   1.00
C1111  C     0.79547   0.49060   0.90684   0.00000  Uiso   1.00
C1112  C     0.87048   0.49589   0.59250   0.00000  Uiso   1.00
C1113  C     0.79570   0.48386   0.95328   0.00000  Uiso   1.00
C1114  C     0.87003   0.48778   0.54642   0.00000  Uiso   1.00
C1115  C     0.83290   0.48759   0.97650   0.00000  Uiso   1.00
C1116  C     0.83266   0.48796   0.52343   0.00000  Uiso   1.00
C1117  C     0.87047   0.49067   0.95303   0.00000  Uiso   1.00
C1118  C     0.79517   0.48837   0.54715   0.00000  Uiso   1.00
C1119  C     0.76031   0.47158   0.97733   0.00000  Uiso   1.00
C1120  C     0.90569   0.47667   0.52281   0.00000  Uiso   1.00
C1121  C     0.75899   0.47796   0.52371   0.00000  Uiso   1.00
C1122  C     0.90697   0.48203   0.97641   0.00000  Uiso   1.00
C1123  C     0.68758   0.45829   0.74626   0.00000  Uiso   1.00
C1124  C     0.97921   0.54079   0.75955   0.00000  Uiso   1.00
C1125  C     0.97887   0.45874   0.74406   0.00000  Uiso   1.00
C1126  C     0.68797   0.54017   0.76246   0.00000  Uiso   1.00
C1127  C     0.95771   0.50008   0.75030   0.00000  Uiso   1.00
C1128  C     0.70910   0.49928   0.75408   0.00000  Uiso   1.00
C1129  C     0.85600   0.35754   0.78038   0.00000  Uiso   1.00
C1130  C     0.81059   0.64246   0.71969   0.00000  Uiso   1.00
C1131  C     0.81063   0.35719   0.71965   0.00000  Uiso   1.00
C1132  C     0.85598   0.64282   0.78039   0.00000  Uiso   1.00
H1133  H     0.87408   0.37599   0.80462   0.00000  Uiso   1.00
H1134  H     0.79240   0.62402   0.69554   0.00000  Uiso   1.00
H1135  H     0.79256   0.37536   0.69542   0.00000  Uiso   1.00
H1136  H     0.87399   0.62465   0.80468   0.00000  Uiso   1.00
N1137  N     0.83333   0.61907   0.75000   0.00000  Uiso   1.00
N1138  N     0.83333   0.38093   0.75000   0.00000  Uiso   1.00
N1139  N     0.90636   0.51113   0.88270   0.00000  Uiso   1.00
O1140  O     0.91999   0.48540   0.85050   0.00000  Uiso   1.00
O1141  O     0.92535   0.54884   0.89226   0.00000  Uiso   1.00
N1142  N     0.75904   0.50304   0.61895   0.00000  Uiso   1.00
O1143  O     0.74719   0.47361   0.64888   0.00000  Uiso   1.00
O1144  O     0.74066   0.54205   0.61635   0.00000  Uiso   1.00
N1145  N     0.75777   0.49571   0.88315   0.00000  Uiso   1.00
O1146  O     0.73143   0.52604   0.89613   0.00000  Uiso   1.00
O1147  O     0.74905   0.46913   0.84964   0.00000  Uiso   1.00
N1148  N     0.90799   0.50719   0.61473   0.00000  Uiso   1.00
O1149  O     0.93206   0.53831   0.59815   0.00000  Uiso   1.00
O1150  O     0.91878   0.48574   0.65074   0.00000  Uiso   1.00
I1151  I     0.71558   0.42714   0.94883   0.00000  Uiso   1.00
I1152  I     0.94934   0.43279   0.55282   0.00000  Uiso   1.00
N1153  N     0.72150   0.46964   0.54676   0.00000  Uiso   1.00
O1154  O     0.69258   0.49967   0.54501   0.00000  Uiso   1.00
O1155  O     0.71607   0.43195   0.56885   0.00000  Uiso   1.00
N1156  N     0.94440   0.47336   0.95329   0.00000  Uiso   1.00
O1157  O     0.97561   0.49999   0.95967   0.00000  Uiso   1.00
O1158  O     0.94807   0.43735   0.92823   0.00000  Uiso   1.00
N1159  N     0.70787   0.41552   0.74029   0.00000  Uiso   1.00
O1160  O     0.71981   0.39287   0.77521   0.00000  Uiso   1.00
O1161  O     0.70766   0.39569   0.70129   0.00000  Uiso   1.00
N1162  N     0.95871   0.58301   0.76776   0.00000  Uiso   1.00
O1163  O     0.94883   0.60879   0.73416   0.00000  Uiso   1.00
O1164  O     0.95673   0.59925   0.80827   0.00000  Uiso   1.00
N1165  N     0.95820   0.41636   0.73595   0.00000  Uiso   1.00
O1166  O     0.94582   0.40629   0.69581   0.00000  Uiso   1.00
O1167  O     0.95731   0.38527   0.76693   0.00000  Uiso   1.00
N1168  N     0.70876   0.58136   0.77502   0.00000  Uiso   1.00
O1169  O     0.72695   0.58411   0.81355   0.00000  Uiso   1.00
O1170  O     0.70690   0.61718   0.74956   0.00000  Uiso   1.00
O1171  O     0.10559   0.87154   0.74999   0.00000  Uiso   1.00
O1172  O     0.22774   0.79513   0.75000   0.00000  Uiso   1.00
O1173  O     0.22774   0.87154   0.75000   0.00000  Uiso   1.00
O1174  O     0.10559   0.79513   0.74999   0.00000  Uiso   1.00
C1175  C     0.08658   0.83316   0.75145   0.00000  Uiso   1.00
C1176  C     0.24682   0.83342   0.74983   0.00000  Uiso   1.00
O1177  O     0.16666   0.87156   0.68392   0.00000  Uiso   1.00
O1178  O     0.16667   0.79511   0.81607   0.00000  Uiso   1.00
O1179  O     0.16667   0.87156   0.81607   0.00000  Uiso   1.00
O1180  O     0.16666   0.79511   0.68392   0.00000  Uiso   1.00
C1181  C     0.16691   0.83327   0.66343   0.00000  Uiso   1.00
C1182  C     0.16609   0.83323   0.83658   0.00000  Uiso   1.00
Zn1183 Zn    0.16667   0.88437   0.75000   0.00000  Uiso   1.00
Zn1184 Zn    0.16667   0.78229   0.75000   0.00000  Uiso   1.00
C1185  C     0.20321   0.83223   0.90676   0.00000  Uiso   1.00
C1186  C     0.12915   0.82893   0.59375   0.00000  Uiso   1.00
C1187  C     0.16585   0.83170   0.88445   0.00000  Uiso   1.00
C1188  C     0.16669   0.83210   0.61556   0.00000  Uiso   1.00
C1189  C     0.12880   0.82393   0.90684   0.00000  Uiso   1.00
C1190  C     0.20381   0.82922   0.59250   0.00000  Uiso   1.00
C1191  C     0.12903   0.81719   0.95328   0.00000  Uiso   1.00
C1192  C     0.20337   0.82111   0.54642   0.00000  Uiso   1.00
C1193  C     0.16623   0.82092   0.97650   0.00000  Uiso   1.00
C1194  C     0.16599   0.82129   0.52343   0.00000  Uiso   1.00
C1195  C     0.20380   0.82401   0.95303   0.00000  Uiso   1.00
C1196  C     0.12850   0.82171   0.54715   0.00000  Uiso   1.00
C1197  C     0.09364   0.80491   0.97733   0.00000  Uiso   1.00
C1198  C     0.23903   0.81001   0.52281   0.00000  Uiso   1.00
C1199  C     0.09233   0.81129   0.52371   0.00000  Uiso   1.00
C1200  C     0.24030   0.81536   0.97641   0.00000  Uiso   1.00
C1201  C     0.02092   0.79162   0.74626   0.00000  Uiso   1.00
C1202  C     0.31254   0.87412   0.75955   0.00000  Uiso   1.00
C1203  C     0.31220   0.79207   0.74406   0.00000  Uiso   1.00
C1204  C     0.02130   0.87350   0.76246   0.00000  Uiso   1.00
C1205  C     0.29104   0.83341   0.75030   0.00000  Uiso   1.00
C1206  C     0.04244   0.83261   0.75408   0.00000  Uiso   1.00
C1207  C     0.18933   0.69087   0.78038   0.00000  Uiso   1.00
C1208  C     0.14392   0.97579   0.71969   0.00000  Uiso   1.00
C1209  C     0.14396   0.69052   0.71965   0.00000  Uiso   1.00
C1210  C     0.18931   0.97615   0.78039   0.00000  Uiso   1.00
H1211  H     0.20742   0.70932   0.80462   0.00000  Uiso   1.00
H1212  H     0.12573   0.95735   0.69554   0.00000  Uiso   1.00
H1213  H     0.12589   0.70869   0.69542   0.00000  Uiso   1.00
H1214  H     0.20733   0.95799   0.80468   0.00000  Uiso   1.00
N1215  N     0.16667   0.95240   0.75000   0.00000  Uiso   1.00
N1216  N     0.16667   0.71427   0.75000   0.00000  Uiso   1.00
N1217  N     0.23969   0.84447   0.88270   0.00000  Uiso   1.00
O1218  O     0.25332   0.81873   0.85050   0.00000  Uiso   1.00
O1219  O     0.25868   0.88217   0.89226   0.00000  Uiso   1.00
N1220  N     0.09237   0.83637   0.61895   0.00000  Uiso   1.00
O1221  O     0.08053   0.80695   0.64888   0.00000  Uiso   1.00
O1222  O     0.07399   0.87538   0.61635   0.00000  Uiso   1.00
N1223  N     0.09110   0.82904   0.88315   0.00000  Uiso   1.00
O1224  O     0.06476   0.85937   0.89613   0.00000  Uiso   1.00
O1225  O     0.08238   0.80246   0.84964   0.00000  Uiso   1.00
N1226  N     0.24132   0.84052   0.61473   0.00000  Uiso   1.00
O1227  O     0.26539   0.87164   0.59815   0.00000  Uiso   1.00
O1228  O     0.25211   0.81907   0.65074   0.00000  Uiso   1.00
I1229  I     0.04891   0.76047   0.94883   0.00000  Uiso   1.00
I1230  I     0.28267   0.76612   0.55282   0.00000  Uiso   1.00
N1231  N     0.05484   0.80298   0.54676   0.00000  Uiso   1.00
O1232  O     0.02591   0.83300   0.54501   0.00000  Uiso   1.00
O1233  O     0.04941   0.76528   0.56885   0.00000  Uiso   1.00
N1234  N     0.27773   0.80670   0.95329   0.00000  Uiso   1.00
O1235  O     0.30895   0.83333   0.95967   0.00000  Uiso   1.00
O1236  O     0.28140   0.77068   0.92823   0.00000  Uiso   1.00
N1237  N     0.04120   0.74885   0.74029   0.00000  Uiso   1.00
O1238  O     0.05315   0.72620   0.77521   0.00000  Uiso   1.00
O1239  O     0.04100   0.72903   0.70129   0.00000  Uiso   1.00
N1240  N     0.29204   0.91634   0.76776   0.00000  Uiso   1.00
O1241  O     0.28217   0.94213   0.73416   0.00000  Uiso   1.00
O1242  O     0.29007   0.93258   0.80827   0.00000  Uiso   1.00
N1243  N     0.29153   0.74969   0.73595   0.00000  Uiso   1.00
O1244  O     0.27916   0.73963   0.69581   0.00000  Uiso   1.00
O1245  O     0.29064   0.71860   0.76693   0.00000  Uiso   1.00
N1246  N     0.04210   0.91470   0.77502   0.00000  Uiso   1.00
O1247  O     0.06028   0.91744   0.81355   0.00000  Uiso   1.00
O1248  O     0.04023   0.95051   0.74956   0.00000  Uiso   1.00
O1249  O     0.43892   0.87154   0.74999   0.00000  Uiso   1.00
O1250  O     0.56108   0.79513   0.75000   0.00000  Uiso   1.00
O1251  O     0.56108   0.87154   0.75000   0.00000  Uiso   1.00
O1252  O     0.43892   0.79513   0.74999   0.00000  Uiso   1.00
C1253  C     0.41991   0.83316   0.75145   0.00000  Uiso   1.00
C1254  C     0.58015   0.83342   0.74983   0.00000  Uiso   1.00
O1255  O     0.49999   0.87156   0.68392   0.00000  Uiso   1.00
O1256  O     0.50001   0.79511   0.81607   0.00000  Uiso   1.00
O1257  O     0.50001   0.87156   0.81607   0.00000  Uiso   1.00
O1258  O     0.49999   0.79511   0.68392   0.00000  Uiso   1.00
C1259  C     0.50024   0.83327   0.66343   0.00000  Uiso   1.00
C1260  C     0.49942   0.83323   0.83658   0.00000  Uiso   1.00
Zn1261 Zn    0.50000   0.88437   0.75000   0.00000  Uiso   1.00
Zn1262 Zn    0.50000   0.78229   0.75000   0.00000  Uiso   1.00
C1263  C     0.53654   0.83223   0.90676   0.00000  Uiso   1.00
C1264  C     0.46249   0.82893   0.59375   0.00000  Uiso   1.00
C1265  C     0.49918   0.83170   0.88445   0.00000  Uiso   1.00
C1266  C     0.50002   0.83210   0.61556   0.00000  Uiso   1.00
C1267  C     0.46214   0.82393   0.90684   0.00000  Uiso   1.00
C1268  C     0.53714   0.82922   0.59250   0.00000  Uiso   1.00
C1269  C     0.46236   0.81719   0.95328   0.00000  Uiso   1.00
C1270  C     0.53670   0.82111   0.54642   0.00000  Uiso   1.00
C1271  C     0.49956   0.82092   0.97650   0.00000  Uiso   1.00
C1272  C     0.49933   0.82129   0.52343   0.00000  Uiso   1.00
C1273  C     0.53713   0.82401   0.95303   0.00000  Uiso   1.00
C1274  C     0.46184   0.82171   0.54715   0.00000  Uiso   1.00
C1275  C     0.42698   0.80491   0.97733   0.00000  Uiso   1.00
C1276  C     0.57236   0.81001   0.52281   0.00000  Uiso   1.00
C1277  C     0.42566   0.81129   0.52371   0.00000  Uiso   1.00
C1278  C     0.57364   0.81536   0.97641   0.00000  Uiso   1.00
C1279  C     0.35425   0.79162   0.74626   0.00000  Uiso   1.00
C1280  C     0.64587   0.87412   0.75955   0.00000  Uiso   1.00
C1281  C     0.64554   0.79207   0.74406   0.00000  Uiso   1.00
C1282  C     0.35464   0.87350   0.76246   0.00000  Uiso   1.00
C1283  C     0.62438   0.83341   0.75030   0.00000  Uiso   1.00
C1284  C     0.37577   0.83261   0.75408   0.00000  Uiso   1.00
C1285  C     0.52266   0.69087   0.78038   0.00000  Uiso   1.00
C1286  C     0.47726   0.97579   0.71969   0.00000  Uiso   1.00
C1287  C     0.47730   0.69052   0.71965   0.00000  Uiso   1.00
C1288  C     0.52264   0.97615   0.78039   0.00000  Uiso   1.00
H1289  H     0.54075   0.70932   0.80462   0.00000  Uiso   1.00
H1290  H     0.45907   0.95735   0.69554   0.00000  Uiso   1.00
H1291  H     0.45922   0.70869   0.69542   0.00000  Uiso   1.00
H1292  H     0.54066   0.95799   0.80468   0.00000  Uiso   1.00
N1293  N     0.50000   0.95240   0.75000   0.00000  Uiso   1.00
N1294  N     0.50000   0.71427   0.75000   0.00000  Uiso   1.00
N1295  N     0.57303   0.84447   0.88270   0.00000  Uiso   1.00
O1296  O     0.58665   0.81873   0.85050   0.00000  Uiso   1.00
O1297  O     0.59202   0.88217   0.89226   0.00000  Uiso   1.00
N1298  N     0.42570   0.83637   0.61895   0.00000  Uiso   1.00
O1299  O     0.41386   0.80695   0.64888   0.00000  Uiso   1.00
O1300  O     0.40732   0.87538   0.61635   0.00000  Uiso   1.00
N1301  N     0.42443   0.82904   0.88315   0.00000  Uiso   1.00
O1302  O     0.39810   0.85937   0.89613   0.00000  Uiso   1.00
O1303  O     0.41572   0.80246   0.84964   0.00000  Uiso   1.00
N1304  N     0.57465   0.84052   0.61473   0.00000  Uiso   1.00
O1305  O     0.59873   0.87164   0.59815   0.00000  Uiso   1.00
O1306  O     0.58544   0.81907   0.65074   0.00000  Uiso   1.00
I1307  I     0.38224   0.76047   0.94883   0.00000  Uiso   1.00
I1308  I     0.61600   0.76612   0.55282   0.00000  Uiso   1.00
N1309  N     0.38817   0.80298   0.54676   0.00000  Uiso   1.00
O1310  O     0.35925   0.83300   0.54501   0.00000  Uiso   1.00
O1311  O     0.38274   0.76528   0.56885   0.00000  Uiso   1.00
N1312  N     0.61106   0.80670   0.95329   0.00000  Uiso   1.00
O1313  O     0.64228   0.83333   0.95967   0.00000  Uiso   1.00
O1314  O     0.61473   0.77068   0.92823   0.00000  Uiso   1.00
N1315  N     0.37454   0.74885   0.74029   0.00000  Uiso   1.00
O1316  O     0.38648   0.72620   0.77521   0.00000  Uiso   1.00
O1317  O     0.37433   0.72903   0.70129   0.00000  Uiso   1.00
N1318  N     0.62537   0.91634   0.76776   0.00000  Uiso   1.00
O1319  O     0.61550   0.94213   0.73416   0.00000  Uiso   1.00
O1320  O     0.62340   0.93258   0.80827   0.00000  Uiso   1.00
N1321  N     0.62487   0.74969   0.73595   0.00000  Uiso   1.00
O1322  O     0.61249   0.73963   0.69581   0.00000  Uiso   1.00
O1323  O     0.62398   0.71860   0.76693   0.00000  Uiso   1.00
N1324  N     0.37543   0.91470   0.77502   0.00000  Uiso   1.00
O1325  O     0.39361   0.91744   0.81355   0.00000  Uiso   1.00
O1326  O     0.37357   0.95051   0.74956   0.00000  Uiso   1.00
O1327  O     0.77226   0.87154   0.74999   0.00000  Uiso   1.00
O1328  O     0.89441   0.79513   0.75000   0.00000  Uiso   1.00
O1329  O     0.89441   0.87154   0.75000   0.00000  Uiso   1.00
O1330  O     0.77226   0.79513   0.74999   0.00000  Uiso   1.00
C1331  C     0.75324   0.83316   0.75145   0.00000  Uiso   1.00
C1332  C     0.91349   0.83342   0.74983   0.00000  Uiso   1.00
O1333  O     0.83333   0.87156   0.68392   0.00000  Uiso   1.00
O1334  O     0.83334   0.79511   0.81607   0.00000  Uiso   1.00
O1335  O     0.83334   0.87156   0.81607   0.00000  Uiso   1.00
O1336  O     0.83333   0.79511   0.68392   0.00000  Uiso   1.00
C1337  C     0.83357   0.83327   0.66343   0.00000  Uiso   1.00
C1338  C     0.83276   0.83323   0.83658   0.00000  Uiso   1.00
Zn1339 Zn    0.83333   0.88437   0.75000   0.00000  Uiso   1.00
Zn1340 Zn    0.83333   0.78229   0.75000   0.00000  Uiso   1.00
C1341  C     0.86987   0.83223   0.90676   0.00000  Uiso   1.00
C1342  C     0.79582   0.82893   0.59375   0.00000  Uiso   1.00
C1343  C     0.83252   0.83170   0.88445   0.00000  Uiso   1.00
C1344  C     0.83336   0.83210   0.61556   0.00000  Uiso   1.00
C1345  C     0.79547   0.82393   0.90684   0.00000  Uiso   1.00
C1346  C     0.87048   0.82922   0.59250   0.00000  Uiso   1.00
C1347  C     0.79570   0.81719   0.95328   0.00000  Uiso   1.00
C1348  C     0.87003   0.82111   0.54642   0.00000  Uiso   1.00
C1349  C     0.83290   0.82092   0.97650   0.00000  Uiso   1.00
C1350  C     0.83266   0.82129   0.52343   0.00000  Uiso   1.00
C1351  C     0.87047   0.82401   0.95303   0.00000  Uiso   1.00
C1352  C     0.79517   0.82171   0.54715   0.00000  Uiso   1.00
C1353  C     0.76031   0.80491   0.97733   0.00000  Uiso   1.00
C1354  C     0.90569   0.81001   0.52281   0.00000  Uiso   1.00
C1355  C     0.75899   0.81129   0.52371   0.00000  Uiso   1.00
C1356  C     0.90697   0.81536   0.97641   0.00000  Uiso   1.00
C1357  C     0.68758   0.79162   0.74626   0.00000  Uiso   1.00
C1358  C     0.97921   0.87412   0.75955   0.00000  Uiso   1.00
C1359  C     0.97887   0.79207   0.74406   0.00000  Uiso   1.00
C1360  C     0.68797   0.87350   0.76246   0.00000  Uiso   1.00
C1361  C     0.95771   0.83341   0.75030   0.00000  Uiso   1.00
C1362  C     0.70910   0.83261   0.75408   0.00000  Uiso   1.00
C1363  C     0.85600   0.69087   0.78038   0.00000  Uiso   1.00
C1364  C     0.81059   0.97579   0.71969   0.00000  Uiso   1.00
C1365  C     0.81063   0.69052   0.71965   0.00000  Uiso   1.00
C1366  C     0.85598   0.97615   0.78039   0.00000  Uiso   1.00
H1367  H     0.87408   0.70932   0.80462   0.00000  Uiso   1.00
H1368  H     0.79240   0.95735   0.69554   0.00000  Uiso   1.00
H1369  H     0.79256   0.70869   0.69542   0.00000  Uiso   1.00
H1370  H     0.87399   0.95799   0.80468   0.00000  Uiso   1.00
N1371  N     0.83333   0.95240   0.75000   0.00000  Uiso   1.00
N1372  N     0.83333   0.71427   0.75000   0.00000  Uiso   1.00
N1373  N     0.90636   0.84447   0.88270   0.00000  Uiso   1.00
O1374  O     0.91999   0.81873   0.85050   0.00000  Uiso   1.00
O1375  O     0.92535   0.88217   0.89226   0.00000  Uiso   1.00
N1376  N     0.75904   0.83637   0.61895   0.00000  Uiso   1.00
O1377  O     0.74719   0.80695   0.64888   0.00000  Uiso   1.00
O1378  O     0.74066   0.87538   0.61635   0.00000  Uiso   1.00
N1379  N     0.75777   0.82904   0.88315   0.00000  Uiso   1.00
O1380  O     0.73143   0.85937   0.89613   0.00000  Uiso   1.00
O1381  O     0.74905   0.80246   0.84964   0.00000  Uiso   1.00
N1382  N     0.90799   0.84052   0.61473   0.00000  Uiso   1.00
O1383  O     0.93206   0.87164   0.59815   0.00000  Uiso   1.00
O1384  O     0.91878   0.81907   0.65074   0.00000  Uiso   1.00
I1385  I     0.71558   0.76047   0.94883   0.00000  Uiso   1.00
I1386  I     0.94934   0.76612   0.55282   0.00000  Uiso   1.00
N1387  N     0.72150   0.80298   0.54676   0.00000  Uiso   1.00
O1388  O     0.69258   0.83300   0.54501   0.00000  Uiso   1.00
O1389  O     0.71607   0.76528   0.56885   0.00000  Uiso   1.00
N1390  N     0.94440   0.80670   0.95329   0.00000  Uiso   1.00
O1391  O     0.97561   0.83333   0.95967   0.00000  Uiso   1.00
O1392  O     0.94807   0.77068   0.92823   0.00000  Uiso   1.00
N1393  N     0.70787   0.74885   0.74029   0.00000  Uiso   1.00
O1394  O     0.71981   0.72620   0.77521   0.00000  Uiso   1.00
O1395  O     0.70766   0.72903   0.70129   0.00000  Uiso   1.00
N1396  N     0.95871   0.91634   0.76776   0.00000  Uiso   1.00
O1397  O     0.94883   0.94213   0.73416   0.00000  Uiso   1.00
O1398  O     0.95673   0.93258   0.80827   0.00000  Uiso   1.00
N1399  N     0.95820   0.74969   0.73595   0.00000  Uiso   1.00
O1400  O     0.94582   0.73963   0.69581   0.00000  Uiso   1.00
O1401  O     0.95731   0.71860   0.76693   0.00000  Uiso   1.00
N1402  N     0.70876   0.91470   0.77502   0.00000  Uiso   1.00
O1403  O     0.72695   0.91744   0.81355   0.00000  Uiso   1.00
O1404  O     0.70690   0.95051   0.74956   0.00000  Uiso   1.00
loop_
_geom_bond_atom_site_label_1
_geom_bond_atom_site_label_2
_geom_bond_distance
_geom_bond_site_symmetry_2
_ccdc_geom_bond_type
O1     C5      1.287   .     A
O1     Zn13    2.036   .     S
O2     C6      1.285   .     A
O2     Zn14    2.036   .     S
O3     C6      1.286   .     A
O3     Zn13    2.040   .     S
O4     C5      1.284   .     A
O4     Zn14    2.040   .     S
C5     C36     1.449   .     S
C6     C35     1.451   .     S
O7     C11     1.280   .     A
O7     Zn13    2.007   .     S
O8     C12     1.276   .     A
O8     Zn14    2.007   .     S
O9     Zn13    2.008   .     S
O9     C12     1.283   .     A
O10    Zn14    2.008   .     S
O10    C11     1.279   .     A
C11    C18     1.429   .     S
C12    C17     1.430   .     S
Zn13   N45     2.000   .     S
Zn14   N46     2.000   .     S
C15    N47     1.436   .     S
C15    C25     1.403   .     A
C15    C17     1.398   .     A
C16    N50     1.435   .     S
C16    C26     1.407   .     A
C16    C18     1.399   .     A
C17    C19     1.401   .     A
C18    C20     1.398   .     A
C19    C21     1.401   .     A
C19    N53     1.437   .     S
C20    N56     1.439   .     S
C20    C22     1.396   .     A
C21    C27     1.407   .     A
C21    C23     1.411   .     A
C22    C28     1.401   .     A
C22    C24     1.409   .     A
C23    C25     1.416   .     A
C23    C726    1.401   .     S
C24    C26     1.415   .     A
C24    C725    1.401   1_554 S
C25    C30     1.414   .     A
C26    C29     1.413   .     A
C27    I59     2.139   .     S
C27    C731    1.397   .     S
C28    I60     2.134   .     S
C28    C732    1.395   1_554 S
C29    N61     1.425   .     S
C29    C729    1.397   1_554 S
C30    N64     1.428   .     S
C30    C730    1.395   .     S
C31    N67     1.436   .     S
C31    C36     1.413   .     A
C31    C189    1.381   1_455 S
C32    C35     1.414   .     A
C32    N70     1.435   .     S
C32    C112    1.384   .     S
C33    N73     1.436   .     S
C33    C35     1.414   .     A
C33    C109    1.381   .     S
C34    C36     1.412   .     A
C34    N76     1.437   .     S
C34    C188    1.384   1_455 S
C37    H41     1.082   .     S
C37    N46     1.365   .     A
C37    C508    1.413   1_545 S
C38    H42     1.082   .     S
C38    N45     1.365   .     A
C38    C273    1.413   .     S
C39    H43     1.082   .     S
C39    N46     1.365   .     A
C39    C506    1.413   1_545 S
C40    N45     1.365   .     A
C40    H44     1.081   .     S
C40    C271    1.413   .     S
N47    O49     1.301   .     A
N47    O48     1.300   .     A
N50    O52     1.301   .     A
N50    O51     1.301   .     A
N53    O54     1.301   .     A
N53    O55     1.301   .     A
N56    O57     1.302   .     A
N56    O58     1.299   .     A
N61    O63     1.301   .     A
N61    O62     1.300   .     A
N64    O66     1.301   .     A
N64    O65     1.300   .     A
N67    O68     1.301   .     A
N67    O69     1.301   .     A
N70    O71     1.301   .     A
N70    O72     1.301   .     A
N73    O74     1.301   .     A
N73    O75     1.301   .     A
N76    O78     1.301   .     A
N76    O77     1.301   .     A
O79    C83     1.287   .     A
O79    Zn91    2.036   .     S
O80    C84     1.285   .     A
O80    Zn92    2.036   .     S
O81    C84     1.286   .     A
O81    Zn91    2.040   .     S
O82    C83     1.284   .     A
O82    Zn92    2.040   .     S
C83    C114    1.449   .     S
C84    C113    1.451   .     S
O85    C89     1.280   .     A
O85    Zn91    2.007   .     S
O86    C90     1.276   .     A
O86    Zn92    2.007   .     S
O87    Zn91    2.008   .     S
O87    C90     1.283   .     A
O88    Zn92    2.008   .     S
O88    C89     1.279   .     A
C89    C96     1.429   .     S
C90    C95     1.430   .     S
Zn91   N123    2.000   .     S
Zn92   N124    2.000   .     S
C93    N125    1.436   .     S
C93    C103    1.403   .     A
C93    C95     1.398   .     A
C94    N128    1.435   .     S
C94    C104    1.407   .     A
C94    C96     1.399   .     A
C95    C97     1.401   .     A
C96    C98     1.398   .     A
C97    C99     1.401   .     A
C97    N131    1.437   .     S
C98    N134    1.439   .     S
C98    C100    1.396   .     A
C99    C105    1.407   .     A
C99    C101    1.411   .     A
C100   C106    1.401   .     A
C100   C102    1.409   .     A
C101   C103    1.416   .     A
C101   C804    1.401   .     S
C102   C104    1.415   .     A
C102   C803    1.401   1_554 S
C103   C108    1.414   .     A
C104   C107    1.413   .     A
C105   I137    2.139   .     S
C105   C809    1.397   .     S
C106   I138    2.134   .     S
C106   C810    1.395   1_554 S
C107   N139    1.425   .     S
C107   C807    1.397   1_554 S
C108   N142    1.428   .     S
C108   C808    1.395   .     S
C109   N145    1.436   .     S
C109   C114    1.413   .     A
C110   C113    1.414   .     A
C110   N148    1.435   .     S
C110   C190    1.384   .     S
C111   N151    1.436   .     S
C111   C113    1.414   .     A
C111   C187    1.381   .     S
C112   C114    1.412   .     A
C112   N154    1.437   .     S
C115   H119    1.082   .     S
C115   N124    1.365   .     A
C115   C586    1.413   1_545 S
C116   H120    1.082   .     S
C116   N123    1.365   .     A
C116   C351    1.413   .     S
C117   H121    1.082   .     S
C117   N124    1.365   .     A
C117   C584    1.413   1_545 S
C118   N123    1.365   .     A
C118   H122    1.081   .     S
C118   C349    1.413   .     S
N125   O127    1.301   .     A
N125   O126    1.300   .     A
N128   O130    1.301   .     A
N128   O129    1.301   .     A
N131   O132    1.301   .     A
N131   O133    1.301   .     A
N134   O135    1.302   .     A
N134   O136    1.299   .     A
N139   O141    1.301   .     A
N139   O140    1.300   .     A
N142   O144    1.301   .     A
N142   O143    1.300   .     A
N145   O146    1.301   .     A
N145   O147    1.301   .     A
N148   O149    1.301   .     A
N148   O150    1.301   .     A
N151   O152    1.301   .     A
N151   O153    1.301   .     A
N154   O156    1.301   .     A
N154   O155    1.301   .     A
O157   C161    1.287   .     A
O157   Zn169   2.036   .     S
O158   C162    1.285   .     A
O158   Zn170   2.036   .     S
O159   C162    1.286   .     A
O159   Zn169   2.040   .     S
O160   C161    1.284   .     A
O160   Zn170   2.040   .     S
C161   C192    1.449   .     S
C162   C191    1.451   .     S
O163   C167    1.280   .     A
O163   Zn169   2.007   .     S
O164   C168    1.276   .     A
O164   Zn170   2.007   .     S
O165   Zn169   2.008   .     S
O165   C168    1.283   .     A
O166   Zn170   2.008   .     S
O166   C167    1.279   .     A
C167   C174    1.429   .     S
C168   C173    1.430   .     S
Zn169  N201    2.000   .     S
Zn170  N202    2.000   .     S
C171   N203    1.436   .     S
C171   C181    1.403   .     A
C171   C173    1.398   .     A
C172   N206    1.435   .     S
C172   C182    1.407   .     A
C172   C174    1.399   .     A
C173   C175    1.401   .     A
C174   C176    1.398   .     A
C175   C177    1.401   .     A
C175   N209    1.437   .     S
C176   N212    1.439   .     S
C176   C178    1.396   .     A
C177   C183    1.407   .     A
C177   C179    1.411   .     A
C178   C184    1.401   .     A
C178   C180    1.409   .     A
C179   C181    1.416   .     A
C179   C882    1.401   .     S
C180   C182    1.415   .     A
C180   C881    1.401   1_554 S
C181   C186    1.414   .     A
C182   C185    1.413   .     A
C183   I215    2.139   .     S
C183   C887    1.397   .     S
C184   I216    2.134   .     S
C184   C888    1.395   1_554 S
C185   N217    1.425   .     S
C185   C885    1.397   1_554 S
C186   N220    1.428   .     S
C186   C886    1.395   .     S
C187   N223    1.436   .     S
C187   C192    1.413   .     A
C188   C191    1.414   .     A
C188   N226    1.435   .     S
C188   C34     1.384   1_655 S
C189   N229    1.436   .     S
C189   C191    1.414   .     A
C189   C31     1.381   1_655 S
C190   C192    1.412   .     A
C190   N232    1.437   .     S
C193   H197    1.082   .     S
C193   N202    1.365   .     A
C193   C664    1.413   1_545 S
C194   H198    1.082   .     S
C194   N201    1.365   .     A
C194   C429    1.413   .     S
C195   H199    1.082   .     S
C195   N202    1.365   .     A
C195   C662    1.413   1_545 S
C196   N201    1.365   .     A
C196   H200    1.081   .     S
C196   C427    1.413   .     S
N203   O205    1.301   .     A
N203   O204    1.300   .     A
N206   O208    1.301   .     A
N206   O207    1.301   .     A
N209   O210    1.301   .     A
N209   O211    1.301   .     A
N212   O213    1.302   .     A
N212   O214    1.299   .     A
N217   O219    1.301   .     A
N217   O218    1.300   .     A
N220   O222    1.301   .     A
N220   O221    1.300   .     A
N223   O224    1.301   .     A
N223   O225    1.301   .     A
N226   O227    1.301   .     A
N226   O228    1.301   .     A
N229   O230    1.301   .     A
N229   O231    1.301   .     A
N232   O234    1.301   .     A
N232   O233    1.301   .     A
O235   C239    1.287   .     A
O235   Zn247   2.036   .     S
O236   C240    1.285   .     A
O236   Zn248   2.036   .     S
O237   C240    1.286   .     A
O237   Zn247   2.040   .     S
O238   C239    1.284   .     A
O238   Zn248   2.040   .     S
C239   C270    1.449   .     S
C240   C269    1.451   .     S
O241   C245    1.280   .     A
O241   Zn247   2.007   .     S
O242   C246    1.276   .     A
O242   Zn248   2.007   .     S
O243   Zn247   2.008   .     S
O243   C246    1.283   .     A
O244   Zn248   2.008   .     S
O244   C245    1.279   .     A
C245   C252    1.429   .     S
C246   C251    1.430   .     S
Zn247  N279    2.000   .     S
Zn248  N280    2.000   .     S
C249   N281    1.436   .     S
C249   C259    1.403   .     A
C249   C251    1.398   .     A
C250   N284    1.435   .     S
C250   C260    1.407   .     A
C250   C252    1.399   .     A
C251   C253    1.401   .     A
C252   C254    1.398   .     A
C253   C255    1.401   .     A
C253   N287    1.437   .     S
C254   N290    1.439   .     S
C254   C256    1.396   .     A
C255   C261    1.407   .     A
C255   C257    1.411   .     A
C256   C262    1.401   .     A
C256   C258    1.409   .     A
C257   C259    1.416   .     A
C257   C960    1.401   .     S
C258   C260    1.415   .     A
C258   C959    1.401   1_554 S
C259   C264    1.414   .     A
C260   C263    1.413   .     A
C261   I293    2.139   .     S
C261   C965    1.397   .     S
C262   I294    2.134   .     S
C262   C966    1.395   1_554 S
C263   N295    1.425   .     S
C263   C963    1.397   1_554 S
C264   N298    1.428   .     S
C264   C964    1.395   .     S
C265   N301    1.436   .     S
C265   C270    1.413   .     A
C265   C423    1.381   1_455 S
C266   C269    1.414   .     A
C266   N304    1.435   .     S
C266   C346    1.384   .     S
C267   N307    1.436   .     S
C267   C269    1.414   .     A
C267   C343    1.381   .     S
C268   C270    1.412   .     A
C268   N310    1.437   .     S
C268   C422    1.384   1_455 S
C271   H275    1.082   .     S
C271   N280    1.365   .     A
C272   H276    1.082   .     S
C272   N279    1.365   .     A
C272   C507    1.413   .     S
C273   H277    1.082   .     S
C273   N280    1.365   .     A
C274   N279    1.365   .     A
C274   H278    1.081   .     S
C274   C505    1.413   .     S
N281   O283    1.301   .     A
N281   O282    1.300   .     A
N284   O286    1.301   .     A
N284   O285    1.301   .     A
N287   O288    1.301   .     A
N287   O289    1.301   .     A
N290   O291    1.302   .     A
N290   O292    1.299   .     A
N295   O297    1.301   .     A
N295   O296    1.300   .     A
N298   O300    1.301   .     A
N298   O299    1.300   .     A
N301   O302    1.301   .     A
N301   O303    1.301   .     A
N304   O305    1.301   .     A
N304   O306    1.301   .     A
N307   O308    1.301   .     A
N307   O309    1.301   .     A
N310   O312    1.301   .     A
N310   O311    1.301   .     A
O313   C317    1.287   .     A
O313   Zn325   2.036   .     S
O314   C318    1.285   .     A
O314   Zn326   2.036   .     S
O315   C318    1.286   .     A
O315   Zn325   2.040   .     S
O316   C317    1.284   .     A
O316   Zn326   2.040   .     S
C317   C348    1.449   .     S
C318   C347    1.451   .     S
O319   C323    1.280   .     A
O319   Zn325   2.007   .     S
O320   C324    1.276   .     A
O320   Zn326   2.007   .     S
O321   Zn325   2.008   .     S
O321   C324    1.283   .     A
O322   Zn326   2.008   .     S
O322   C323    1.279   .     A
C323   C330    1.429   .     S
C324   C329    1.430   .     S
Zn325  N357    2.000   .     S
Zn326  N358    2.000   .     S
C327   N359    1.436   .     S
C327   C337    1.403   .     A
C327   C329    1.398   .     A
C328   N362    1.435   .     S
C328   C338    1.407   .     A
C328   C330    1.399   .     A
C329   C331    1.401   .     A
C330   C332    1.398   .     A
C331   C333    1.401   .     A
C331   N365    1.437   .     S
C332   N368    1.439   .     S
C332   C334    1.396   .     A
C333   C339    1.407   .     A
C333   C335    1.411   .     A
C334   C340    1.401   .     A
C334   C336    1.409   .     A
C335   C337    1.416   .     A
C335   C1038   1.401   .     S
C336   C338    1.415   .     A
C336   C1037   1.401   1_554 S
C337   C342    1.414   .     A
C338   C341    1.413   .     A
C339   I371    2.139   .     S
C339   C1043   1.397   .     S
C340   I372    2.134   .     S
C340   C1044   1.395   1_554 S
C341   N373    1.425   .     S
C341   C1041   1.397   1_554 S
C342   N376    1.428   .     S
C342   C1042   1.395   .     S
C343   N379    1.436   .     S
C343   C348    1.413   .     A
C344   C347    1.414   .     A
C344   N382    1.435   .     S
C344   C424    1.384   .     S
C345   N385    1.436   .     S
C345   C347    1.414   .     A
C345   C421    1.381   .     S
C346   C348    1.412   .     A
C346   N388    1.437   .     S
C349   H353    1.082   .     S
C349   N358    1.365   .     A
C350   H354    1.082   .     S
C350   N357    1.365   .     A
C350   C585    1.413   .     S
C351   H355    1.082   .     S
C351   N358    1.365   .     A
C352   N357    1.365   .     A
C352   H356    1.081   .     S
C352   C583    1.413   .     S
N359   O361    1.301   .     A
N359   O360    1.300   .     A
N362   O364    1.301   .     A
N362   O363    1.301   .     A
N365   O366    1.301   .     A
N365   O367    1.301   .     A
N368   O369    1.302   .     A
N368   O370    1.299   .     A
N373   O375    1.301   .     A
N373   O374    1.300   .     A
N376   O378    1.301   .     A
N376   O377    1.300   .     A
N379   O380    1.301   .     A
N379   O381    1.301   .     A
N382   O383    1.301   .     A
N382   O384    1.301   .     A
N385   O386    1.301   .     A
N385   O387    1.301   .     A
N388   O390    1.301   .     A
N388   O389    1.301   .     A
O391   C395    1.287   .     A
O391   Zn403   2.036   .     S
O392   C396    1.285   .     A
O392   Zn404   2.036   .     S
O393   C396    1.286   .     A
O393   Zn403   2.040   .     S
O394   C395    1.284   .     A
O394   Zn404   2.040   .     S
C395   C426    1.449   .     S
C396   C425    1.451   .     S
O397   C401    1.280   .     A
O397   Zn403   2.007   .     S
O398   C402    1.276   .     A
O398   Zn404   2.007   .     S
O399   Zn403   2.008   .     S
O399   C402    1.283   .     A
O400   Zn404   2.008   .     S
O400   C401    1.279   .     A
C401   C408    1.429   .     S
C402   C407    1.430   .     S
Zn403  N435    2.000   .     S
Zn404  N436    2.000   .     S
C405   N437    1.436   .     S
C405   C415    1.403   .     A
C405   C407    1.398   .     A
C406   N440    1.435   .     S
C406   C416    1.407   .     A
C406   C408    1.399   .     A
C407   C409    1.401   .     A
C408   C410    1.398   .     A
C409   C411    1.401   .     A
C409   N443    1.437   .     S
C410   N446    1.439   .     S
C410   C412    1.396   .     A
C411   C417    1.407   .     A
C411   C413    1.411   .     A
C412   C418    1.401   .     A
C412   C414    1.409   .     A
C413   C415    1.416   .     A
C413   C1116   1.401   .     S
C414   C416    1.415   .     A
C414   C1115   1.401   1_554 S
C415   C420    1.414   .     A
C416   C419    1.413   .     A
C417   I449    2.139   .     S
C417   C1121   1.397   .     S
C418   I450    2.134   .     S
C418   C1122   1.395   1_554 S
C419   N451    1.425   .     S
C419   C1119   1.397   1_554 S
C420   N454    1.428   .     S
C420   C1120   1.395   .     S
C421   N457    1.436   .     S
C421   C426    1.413   .     A
C422   C425    1.414   .     A
C422   N460    1.435   .     S
C422   C268    1.384   1_655 S
C423   N463    1.436   .     S
C423   C425    1.414   .     A
C423   C265    1.381   1_655 S
C424   C426    1.412   .     A
C424   N466    1.437   .     S
C427   H431    1.082   .     S
C427   N436    1.365   .     A
C428   H432    1.082   .     S
C428   N435    1.365   .     A
C428   C663    1.413   .     S
C429   H433    1.082   .     S
C429   N436    1.365   .     A
C430   N435    1.365   .     A
C430   H434    1.081   .     S
C430   C661    1.413   .     S
N437   O439    1.301   .     A
N437   O438    1.300   .     A
N440   O442    1.301   .     A
N440   O441    1.301   .     A
N443   O444    1.301   .     A
N443   O445    1.301   .     A
N446   O447    1.302   .     A
N446   O448    1.299   .     A
N451   O453    1.301   .     A
N451   O452    1.300   .     A
N454   O456    1.301   .     A
N454   O455    1.300   .     A
N457   O458    1.301   .     A
N457   O459    1.301   .     A
N460   O461    1.301   .     A
N460   O462    1.301   .     A
N463   O464    1.301   .     A
N463   O465    1.301   .     A
N466   O468    1.301   .     A
N466   O467    1.301   .     A
O469   C473    1.287   .     A
O469   Zn481   2.036   .     S
O470   C474    1.285   .     A
O470   Zn482   2.036   .     S
O471   C474    1.286   .     A
O471   Zn481   2.040   .     S
O472   C473    1.284   .     A
O472   Zn482   2.040   .     S
C473   C504    1.449   .     S
C474   C503    1.451   .     S
O475   C479    1.280   .     A
O475   Zn481   2.007   .     S
O476   C480    1.276   .     A
O476   Zn482   2.007   .     S
O477   Zn481   2.008   .     S
O477   C480    1.283   .     A
O478   Zn482   2.008   .     S
O478   C479    1.279   .     A
C479   C486    1.429   .     S
C480   C485    1.430   .     S
Zn481  N513    2.000   .     S
Zn482  N514    2.000   .     S
C483   N515    1.436   .     S
C483   C493    1.403   .     A
C483   C485    1.398   .     A
C484   N518    1.435   .     S
C484   C494    1.407   .     A
C484   C486    1.399   .     A
C485   C487    1.401   .     A
C486   C488    1.398   .     A
C487   C489    1.401   .     A
C487   N521    1.437   .     S
C488   N524    1.439   .     S
C488   C490    1.396   .     A
C489   C495    1.407   .     A
C489   C491    1.411   .     A
C490   C496    1.401   .     A
C490   C492    1.409   .     A
C491   C493    1.416   .     A
C491   C1194   1.401   .     S
C492   C494    1.415   .     A
C492   C1193   1.401   1_554 S
C493   C498    1.414   .     A
C494   C497    1.413   .     A
C495   I527    2.139   .     S
C495   C1199   1.397   .     S
C496   I528    2.134   .     S
C496   C1200   1.395   1_554 S
C497   N529    1.425   .     S
C497   C1197   1.397   1_554 S
C498   N532    1.428   .     S
C498   C1198   1.395   .     S
C499   N535    1.436   .     S
C499   C504    1.413   .     A
C499   C657    1.381   1_455 S
C500   C503    1.414   .     A
C500   N538    1.435   .     S
C500   C580    1.384   .     S
C501   N541    1.436   .     S
C501   C503    1.414   .     A
C501   C577    1.381   .     S
C502   C504    1.412   .     A
C502   N544    1.437   .     S
C502   C656    1.384   1_455 S
C505   H509    1.082   .     S
C505   N514    1.365   .     A
C506   H510    1.082   .     S
C506   N513    1.365   .     A
C506   C39     1.413   1_565 S
C507   H511    1.082   .     S
C507   N514    1.365   .     A
C508   N513    1.365   .     A
C508   H512    1.081   .     S
C508   C37     1.413   1_565 S
N515   O517    1.301   .     A
N515   O516    1.300   .     A
N518   O520    1.301   .     A
N518   O519    1.301   .     A
N521   O522    1.301   .     A
N521   O523    1.301   .     A
N524   O525    1.302   .     A
N524   O526    1.299   .     A
N529   O531    1.301   .     A
N529   O530    1.300   .     A
N532   O534    1.301   .     A
N532   O533    1.300   .     A
N535   O536    1.301   .     A
N535   O537    1.301   .     A
N538   O539    1.301   .     A
N538   O540    1.301   .     A
N541   O542    1.301   .     A
N541   O543    1.301   .     A
N544   O546    1.301   .     A
N544   O545    1.301   .     A
O547   C551    1.287   .     A
O547   Zn559   2.036   .     S
O548   C552    1.285   .     A
O548   Zn560   2.036   .     S
O549   C552    1.286   .     A
O549   Zn559   2.040   .     S
O550   C551    1.284   .     A
O550   Zn560   2.040   .     S
C551   C582    1.449   .     S
C552   C581    1.451   .     S
O553   C557    1.280   .     A
O553   Zn559   2.007   .     S
O554   C558    1.276   .     A
O554   Zn560   2.007   .     S
O555   Zn559   2.008   .     S
O555   C558    1.283   .     A
O556   Zn560   2.008   .     S
O556   C557    1.279   .     A
C557   C564    1.429   .     S
C558   C563    1.430   .     S
Zn559  N591    2.000   .     S
Zn560  N592    2.000   .     S
C561   N593    1.436   .     S
C561   C571    1.403   .     A
C561   C563    1.398   .     A
C562   N596    1.435   .     S
C562   C572    1.407   .     A
C562   C564    1.399   .     A
C563   C565    1.401   .     A
C564   C566    1.398   .     A
C565   C567    1.401   .     A
C565   N599    1.437   .     S
C566   N602    1.439   .     S
C566   C568    1.396   .     A
C567   C573    1.407   .     A
C567   C569    1.411   .     A
C568   C574    1.401   .     A
C568   C570    1.409   .     A
C569   C571    1.416   .     A
C569   C1272   1.401   .     S
C570   C572    1.415   .     A
C570   C1271   1.401   1_554 S
C571   C576    1.414   .     A
C572   C575    1.413   .     A
C573   I605    2.139   .     S
C573   C1277   1.397   .     S
C574   I606    2.134   .     S
C574   C1278   1.395   1_554 S
C575   N607    1.425   .     S
C575   C1275   1.397   1_554 S
C576   N610    1.428   .     S
C576   C1276   1.395   .     S
C577   N613    1.436   .     S
C577   C582    1.413   .     A
C578   C581    1.414   .     A
C578   N616    1.435   .     S
C578   C658    1.384   .     S
C579   N619    1.436   .     S
C579   C581    1.414   .     A
C579   C655    1.381   .     S
C580   C582    1.412   .     A
C580   N622    1.437   .     S
C583   H587    1.082   .     S
C583   N592    1.365   .     A
C584   H588    1.082   .     S
C584   N591    1.365   .     A
C584   C117    1.413   1_565 S
C585   H589    1.082   .     S
C585   N592    1.365   .     A
C586   N591    1.365   .     A
C586   H590    1.081   .     S
C586   C115    1.413   1_565 S
N593   O595    1.301   .     A
N593   O594    1.300   .     A
N596   O598    1.301   .     A
N596   O597    1.301   .     A
N599   O600    1.301   .     A
N599   O601    1.301   .     A
N602   O603    1.302   .     A
N602   O604    1.299   .     A
N607   O609    1.301   .     A
N607   O608    1.300   .     A
N610   O612    1.301   .     A
N610   O611    1.300   .     A
N613   O614    1.301   .     A
N613   O615    1.301   .     A
N616   O617    1.301   .     A
N616   O618    1.301   .     A
N619   O620    1.301   .     A
N619   O621    1.301   .     A
N622   O624    1.301   .     A
N622   O623    1.301   .     A
O625   C629    1.287   .     A
O625   Zn637   2.036   .     S
O626   C630    1.285   .     A
O626   Zn638   2.036   .     S
O627   C630    1.286   .     A
O627   Zn637   2.040   .     S
O628   C629    1.284   .     A
O628   Zn638   2.040   .     S
C629   C660    1.449   .     S
C630   C659    1.451   .     S
O631   C635    1.280   .     A
O631   Zn637   2.007   .     S
O632   C636    1.276   .     A
O632   Zn638   2.007   .     S
O633   Zn637   2.008   .     S
O633   C636    1.283   .     A
O634   Zn638   2.008   .     S
O634   C635    1.279   .     A
C635   C642    1.429   .     S
C636   C641    1.430   .     S
Zn637  N669    2.000   .     S
Zn638  N670    2.000   .     S
C639   N671    1.436   .     S
C639   C649    1.403   .     A
C639   C641    1.398   .     A
C640   N674    1.435   .     S
C640   C650    1.407   .     A
C640   C642    1.399   .     A
C641   C643    1.401   .     A
C642   C644    1.398   .     A
C643   C645    1.401   .     A
C643   N677    1.437   .     S
C644   N680    1.439   .     S
C644   C646    1.396   .     A
C645   C651    1.407   .     A
C645   C647    1.411   .     A
C646   C652    1.401   .     A
C646   C648    1.409   .     A
C647   C649    1.416   .     A
C647   C1350   1.401   .     S
C648   C650    1.415   .     A
C648   C1349   1.401   1_554 S
C649   C654    1.414   .     A
C650   C653    1.413   .     A
C651   I683    2.139   .     S
C651   C1355   1.397   .     S
C652   I684    2.134   .     S
C652   C1356   1.395   1_554 S
C653   N685    1.425   .     S
C653   C1353   1.397   1_554 S
C654   N688    1.428   .     S
C654   C1354   1.395   .     S
C655   N691    1.436   .     S
C655   C660    1.413   .     A
C656   C659    1.414   .     A
C656   N694    1.435   .     S
C656   C502    1.384   1_655 S
C657   N697    1.436   .     S
C657   C659    1.414   .     A
C657   C499    1.381   1_655 S
C658   C660    1.412   .     A
C658   N700    1.437   .     S
C661   H665    1.082   .     S
C661   N670    1.365   .     A
C662   H666    1.082   .     S
C662   N669    1.365   .     A
C662   C195    1.413   1_565 S
C663   H667    1.082   .     S
C663   N670    1.365   .     A
C664   N669    1.365   .     A
C664   H668    1.081   .     S
C664   C193    1.413   1_565 S
N671   O673    1.301   .     A
N671   O672    1.300   .     A
N674   O676    1.301   .     A
N674   O675    1.301   .     A
N677   O678    1.301   .     A
N677   O679    1.301   .     A
N680   O681    1.302   .     A
N680   O682    1.299   .     A
N685   O687    1.301   .     A
N685   O686    1.300   .     A
N688   O690    1.301   .     A
N688   O689    1.300   .     A
N691   O692    1.301   .     A
N691   O693    1.301   .     A
N694   O695    1.301   .     A
N694   O696    1.301   .     A
N697   O698    1.301   .     A
N697   O699    1.301   .     A
N700   O702    1.301   .     A
N700   O701    1.301   .     A
O703   C707    1.287   .     A
O703   Zn715   2.036   .     S
O704   C708    1.285   .     A
O704   Zn716   2.036   .     S
O705   C708    1.286   .     A
O705   Zn715   2.040   .     S
O706   C707    1.284   .     A
O706   Zn716   2.040   .     S
C707   C738    1.449   .     S
C708   C737    1.451   .     S
O709   C713    1.280   .     A
O709   Zn715   2.007   .     S
O710   C714    1.276   .     A
O710   Zn716   2.007   .     S
O711   Zn715   2.008   .     S
O711   C714    1.283   .     A
O712   Zn716   2.008   .     S
O712   C713    1.279   .     A
C713   C720    1.429   .     S
C714   C719    1.430   .     S
Zn715  N747    2.000   .     S
Zn716  N748    2.000   .     S
C717   N749    1.436   .     S
C717   C727    1.403   .     A
C717   C719    1.398   .     A
C718   N752    1.435   .     S
C718   C728    1.407   .     A
C718   C720    1.399   .     A
C719   C721    1.401   .     A
C720   C722    1.398   .     A
C721   C723    1.401   .     A
C721   N755    1.437   .     S
C722   N758    1.439   .     S
C722   C724    1.396   .     A
C723   C729    1.407   .     A
C723   C725    1.411   .     A
C724   C730    1.401   .     A
C724   C726    1.409   .     A
C725   C727    1.416   .     A
C725   C24     1.401   1_556 S
C726   C728    1.415   .     A
C727   C732    1.414   .     A
C728   C731    1.413   .     A
C729   I761    2.139   .     S
C729   C29     1.397   1_556 S
C730   I762    2.134   .     S
C731   N763    1.425   .     S
C732   N766    1.428   .     S
C732   C28     1.395   1_556 S
C733   N769    1.436   .     S
C733   C738    1.413   .     A
C733   C891    1.381   1_455 S
C734   C737    1.414   .     A
C734   N772    1.435   .     S
C734   C814    1.384   .     S
C735   N775    1.436   .     S
C735   C737    1.414   .     A
C735   C811    1.381   .     S
C736   C738    1.412   .     A
C736   N778    1.437   .     S
C736   C890    1.384   1_455 S
C739   H743    1.082   .     S
C739   N748    1.365   .     A
C739   C1210   1.413   1_545 S
C740   H744    1.082   .     S
C740   N747    1.365   .     A
C740   C975    1.413   .     S
C741   H745    1.082   .     S
C741   N748    1.365   .     A
C741   C1208   1.413   1_545 S
C742   N747    1.365   .     A
C742   H746    1.081   .     S
C742   C973    1.413   .     S
N749   O751    1.301   .     A
N749   O750    1.300   .     A
N752   O754    1.301   .     A
N752   O753    1.301   .     A
N755   O756    1.301   .     A
N755   O757    1.301   .     A
N758   O759    1.302   .     A
N758   O760    1.299   .     A
N763   O765    1.301   .     A
N763   O764    1.300   .     A
N766   O768    1.301   .     A
N766   O767    1.300   .     A
N769   O770    1.301   .     A
N769   O771    1.301   .     A
N772   O773    1.301   .     A
N772   O774    1.301   .     A
N775   O776    1.301   .     A
N775   O777    1.301   .     A
N778   O780    1.301   .     A
N778   O779    1.301   .     A
O781   C785    1.287   .     A
O781   Zn793   2.036   .     S
O782   C786    1.285   .     A
O782   Zn794   2.036   .     S
O783   C786    1.286   .     A
O783   Zn793   2.040   .     S
O784   C785    1.284   .     A
O784   Zn794   2.040   .     S
C785   C816    1.449   .     S
C786   C815    1.451   .     S
O787   C791    1.280   .     A
O787   Zn793   2.007   .     S
O788   C792    1.276   .     A
O788   Zn794   2.007   .     S
O789   Zn793   2.008   .     S
O789   C792    1.283   .     A
O790   Zn794   2.008   .     S
O790   C791    1.279   .     A
C791   C798    1.429   .     S
C792   C797    1.430   .     S
Zn793  N825    2.000   .     S
Zn794  N826    2.000   .     S
C795   N827    1.436   .     S
C795   C805    1.403   .     A
C795   C797    1.398   .     A
C796   N830    1.435   .     S
C796   C806    1.407   .     A
C796   C798    1.399   .     A
C797   C799    1.401   .     A
C798   C800    1.398   .     A
C799   C801    1.401   .     A
C799   N833    1.437   .     S
C800   N836    1.439   .     S
C800   C802    1.396   .     A
C801   C807    1.407   .     A
C801   C803    1.411   .     A
C802   C808    1.401   .     A
C802   C804    1.409   .     A
C803   C805    1.416   .     A
C803   C102    1.401   1_556 S
C804   C806    1.415   .     A
C805   C810    1.414   .     A
C806   C809    1.413   .     A
C807   I839    2.139   .     S
C807   C107    1.397   1_556 S
C808   I840    2.134   .     S
C809   N841    1.425   .     S
C810   N844    1.428   .     S
C810   C106    1.395   1_556 S
C811   N847    1.436   .     S
C811   C816    1.413   .     A
C812   C815    1.414   .     A
C812   N850    1.435   .     S
C812   C892    1.384   .     S
C813   N853    1.436   .     S
C813   C815    1.414   .     A
C813   C889    1.381   .     S
C814   C816    1.412   .     A
C814   N856    1.437   .     S
C817   H821    1.082   .     S
C817   N826    1.365   .     A
C817   C1288   1.413   1_545 S
C818   H822    1.082   .     S
C818   N825    1.365   .     A
C818   C1053   1.413   .     S
C819   H823    1.082   .     S
C819   N826    1.365   .     A
C819   C1286   1.413   1_545 S
C820   N825    1.365   .     A
C820   H824    1.081   .     S
C820   C1051   1.413   .     S
N827   O829    1.301   .     A
N827   O828    1.300   .     A
N830   O832    1.301   .     A
N830   O831    1.301   .     A
N833   O834    1.301   .     A
N833   O835    1.301   .     A
N836   O837    1.302   .     A
N836   O838    1.299   .     A
N841   O843    1.301   .     A
N841   O842    1.300   .     A
N844   O846    1.301   .     A
N844   O845    1.300   .     A
N847   O848    1.301   .     A
N847   O849    1.301   .     A
N850   O851    1.301   .     A
N850   O852    1.301   .     A
N853   O854    1.301   .     A
N853   O855    1.301   .     A
N856   O858    1.301   .     A
N856   O857    1.301   .     A
O859   C863    1.287   .     A
O859   Zn871   2.036   .     S
O860   C864    1.285   .     A
O860   Zn872   2.036   .     S
O861   C864    1.286   .     A
O861   Zn871   2.040   .     S
O862   C863    1.284   .     A
O862   Zn872   2.040   .     S
C863   C894    1.449   .     S
C864   C893    1.451   .     S
O865   C869    1.280   .     A
O865   Zn871   2.007   .     S
O866   C870    1.276   .     A
O866   Zn872   2.007   .     S
O867   Zn871   2.008   .     S
O867   C870    1.283   .     A
O868   Zn872   2.008   .     S
O868   C869    1.279   .     A
C869   C876    1.429   .     S
C870   C875    1.430   .     S
Zn871  N903    2.000   .     S
Zn872  N904    2.000   .     S
C873   N905    1.436   .     S
C873   C883    1.403   .     A
C873   C875    1.398   .     A
C874   N908    1.435   .     S
C874   C884    1.407   .     A
C874   C876    1.399   .     A
C875   C877    1.401   .     A
C876   C878    1.398   .     A
C877   C879    1.401   .     A
C877   N911    1.437   .     S
C878   N914    1.439   .     S
C878   C880    1.396   .     A
C879   C885    1.407   .     A
C879   C881    1.411   .     A
C880   C886    1.401   .     A
C880   C882    1.409   .     A
C881   C883    1.416   .     A
C881   C180    1.401   1_556 S
C882   C884    1.415   .     A
C883   C888    1.414   .     A
C884   C887    1.413   .     A
C885   I917    2.139   .     S
C885   C185    1.397   1_556 S
C886   I918    2.134   .     S
C887   N919    1.425   .     S
C888   N922    1.428   .     S
C888   C184    1.395   1_556 S
C889   N925    1.436   .     S
C889   C894    1.413   .     A
C890   C893    1.414   .     A
C890   N928    1.435   .     S
C890   C736    1.384   1_655 S
C891   N931    1.436   .     S
C891   C893    1.414   .     A
C891   C733    1.381   1_655 S
C892   C894    1.412   .     A
C892   N934    1.437   .     S
C895   H899    1.082   .     S
C895   N904    1.365   .     A
C895   C1366   1.413   1_545 S
C896   H900    1.082   .     S
C896   N903    1.365   .     A
C896   C1131   1.413   .     S
C897   H901    1.082   .     S
C897   N904    1.365   .     A
C897   C1364   1.413   1_545 S
C898   N903    1.365   .     A
C898   H902    1.081   .     S
C898   C1129   1.413   .     S
N905   O907    1.301   .     A
N905   O906    1.300   .     A
N908   O910    1.301   .     A
N908   O909    1.301   .     A
N911   O912    1.301   .     A
N911   O913    1.301   .     A
N914   O915    1.302   .     A
N914   O916    1.299   .     A
N919   O921    1.301   .     A
N919   O920    1.300   .     A
N922   O924    1.301   .     A
N922   O923    1.300   .     A
N925   O926    1.301   .     A
N925   O927    1.301   .     A
N928   O929    1.301   .     A
N928   O930    1.301   .     A
N931   O932    1.301   .     A
N931   O933    1.301   .     A
N934   O936    1.301   .     A
N934   O935    1.301   .     A
O937   C941    1.287   .     A
O937   Zn949   2.036   .     S
O938   C942    1.285   .     A
O938   Zn950   2.036   .     S
O939   C942    1.286   .     A
O939   Zn949   2.040   .     S
O940   C941    1.284   .     A
O940   Zn950   2.040   .     S
C941   C972    1.449   .     S
C942   C971    1.451   .     S
O943   C947    1.280   .     A
O943   Zn949   2.007   .     S
O944   C948    1.276   .     A
O944   Zn950   2.007   .     S
O945   Zn949   2.008   .     S
O945   C948    1.283   .     A
O946   Zn950   2.008   .     S
O946   C947    1.279   .     A
C947   C954    1.429   .     S
C948   C953    1.430   .     S
Zn949  N981    2.000   .     S
Zn950  N982    2.000   .     S
C951   N983    1.436   .     S
C951   C961    1.403   .     A
C951   C953    1.398   .     A
C952   N986    1.435   .     S
C952   C962    1.407   .     A
C952   C954    1.399   .     A
C953   C955    1.401   .     A
C954   C956    1.398   .     A
C955   C957    1.401   .     A
C955   N989    1.437   .     S
C956   N992    1.439   .     S
C956   C958    1.396   .     A
C957   C963    1.407   .     A
C957   C959    1.411   .     A
C958   C964    1.401   .     A
C958   C960    1.409   .     A
C959   C961    1.416   .     A
C959   C258    1.401   1_556 S
C960   C962    1.415   .     A
C961   C966    1.414   .     A
C962   C965    1.413   .     A
C963   I995    2.139   .     S
C963   C263    1.397   1_556 S
C964   I996    2.134   .     S
C965   N997    1.425   .     S
C966   N1000   1.428   .     S
C966   C262    1.395   1_556 S
C967   N1003   1.436   .     S
C967   C972    1.413   .     A
C967   C1125   1.381   1_455 S
C968   C971    1.414   .     A
C968   N1006   1.435   .     S
C968   C1048   1.384   .     S
C969   N1009   1.436   .     S
C969   C971    1.414   .     A
C969   C1045   1.381   .     S
C970   C972    1.412   .     A
C970   N1012   1.437   .     S
C970   C1124   1.384   1_455 S
C973   H977    1.082   .     S
C973   N982    1.365   .     A
C974   H978    1.082   .     S
C974   N981    1.365   .     A
C974   C1209   1.413   .     S
C975   H979    1.082   .     S
C975   N982    1.365   .     A
C976   N981    1.365   .     A
C976   H980    1.081   .     S
C976   C1207   1.413   .     S
N983   O985    1.301   .     A
N983   O984    1.300   .     A
N986   O988    1.301   .     A
N986   O987    1.301   .     A
N989   O990    1.301   .     A
N989   O991    1.301   .     A
N992   O993    1.302   .     A
N992   O994    1.299   .     A
N997   O999    1.301   .     A
N997   O998    1.300   .     A
N1000  O1002   1.301   .     A
N1000  O1001   1.300   .     A
N1003  O1004   1.301   .     A
N1003  O1005   1.301   .     A
N1006  O1007   1.301   .     A
N1006  O1008   1.301   .     A
N1009  O1010   1.301   .     A
N1009  O1011   1.301   .     A
N1012  O1014   1.301   .     A
N1012  O1013   1.301   .     A
O1015  C1019   1.287   .     A
O1015  Zn1027  2.036   .     S
O1016  C1020   1.285   .     A
O1016  Zn1028  2.036   .     S
O1017  C1020   1.286   .     A
O1017  Zn1027  2.040   .     S
O1018  C1019   1.284   .     A
O1018  Zn1028  2.040   .     S
C1019  C1050   1.449   .     S
C1020  C1049   1.451   .     S
O1021  C1025   1.280   .     A
O1021  Zn1027  2.007   .     S
O1022  C1026   1.276   .     A
O1022  Zn1028  2.007   .     S
O1023  Zn1027  2.008   .     S
O1023  C1026   1.283   .     A
O1024  Zn1028  2.008   .     S
O1024  C1025   1.279   .     A
C1025  C1032   1.429   .     S
C1026  C1031   1.430   .     S
Zn1027 N1059   2.000   .     S
Zn1028 N1060   2.000   .     S
C1029  N1061   1.436   .     S
C1029  C1039   1.403   .     A
C1029  C1031   1.398   .     A
C1030  N1064   1.435   .     S
C1030  C1040   1.407   .     A
C1030  C1032   1.399   .     A
C1031  C1033   1.401   .     A
C1032  C1034   1.398   .     A
C1033  C1035   1.401   .     A
C1033  N1067   1.437   .     S
C1034  N1070   1.439   .     S
C1034  C1036   1.396   .     A
C1035  C1041   1.407   .     A
C1035  C1037   1.411   .     A
C1036  C1042   1.401   .     A
C1036  C1038   1.409   .     A
C1037  C1039   1.416   .     A
C1037  C336    1.401   1_556 S
C1038  C1040   1.415   .     A
C1039  C1044   1.414   .     A
C1040  C1043   1.413   .     A
C1041  I1073   2.139   .     S
C1041  C341    1.397   1_556 S
C1042  I1074   2.134   .     S
C1043  N1075   1.425   .     S
C1044  N1078   1.428   .     S
C1044  C340    1.395   1_556 S
C1045  N1081   1.436   .     S
C1045  C1050   1.413   .     A
C1046  C1049   1.414   .     A
C1046  N1084   1.435   .     S
C1046  C1126   1.384   .     S
C1047  N1087   1.436   .     S
C1047  C1049   1.414   .     A
C1047  C1123   1.381   .     S
C1048  C1050   1.412   .     A
C1048  N1090   1.437   .     S
C1051  H1055   1.082   .     S
C1051  N1060   1.365   .     A
C1052  H1056   1.082   .     S
C1052  N1059   1.365   .     A
C1052  C1287   1.413   .     S
C1053  H1057   1.082   .     S
C1053  N1060   1.365   .     A
C1054  N1059   1.365   .     A
C1054  H1058   1.081   .     S
C1054  C1285   1.413   .     S
N1061  O1063   1.301   .     A
N1061  O1062   1.300   .     A
N1064  O1066   1.301   .     A
N1064  O1065   1.301   .     A
N1067  O1068   1.301   .     A
N1067  O1069   1.301   .     A
N1070  O1071   1.302   .     A
N1070  O1072   1.299   .     A
N1075  O1077   1.301   .     A
N1075  O1076   1.300   .     A
N1078  O1080   1.301   .     A
N1078  O1079   1.300   .     A
N1081  O1082   1.301   .     A
N1081  O1083   1.301   .     A
N1084  O1085   1.301   .     A
N1084  O1086   1.301   .     A
N1087  O1088   1.301   .     A
N1087  O1089   1.301   .     A
N1090  O1092   1.301   .     A
N1090  O1091   1.301   .     A
O1093  C1097   1.287   .     A
O1093  Zn1105  2.036   .     S
O1094  C1098   1.285   .     A
O1094  Zn1106  2.036   .     S
O1095  C1098   1.286   .     A
O1095  Zn1105  2.040   .     S
O1096  C1097   1.284   .     A
O1096  Zn1106  2.040   .     S
C1097  C1128   1.449   .     S
C1098  C1127   1.451   .     S
O1099  C1103   1.280   .     A
O1099  Zn1105  2.007   .     S
O1100  C1104   1.276   .     A
O1100  Zn1106  2.007   .     S
O1101  Zn1105  2.008   .     S
O1101  C1104   1.283   .     A
O1102  Zn1106  2.008   .     S
O1102  C1103   1.279   .     A
C1103  C1110   1.429   .     S
C1104  C1109   1.430   .     S
Zn1105 N1137   2.000   .     S
Zn1106 N1138   2.000   .     S
C1107  N1139   1.436   .     S
C1107  C1117   1.403   .     A
C1107  C1109   1.398   .     A
C1108  N1142   1.435   .     S
C1108  C1118   1.407   .     A
C1108  C1110   1.399   .     A
C1109  C1111   1.401   .     A
C1110  C1112   1.398   .     A
C1111  C1113   1.401   .     A
C1111  N1145   1.437   .     S
C1112  N1148   1.439   .     S
C1112  C1114   1.396   .     A
C1113  C1119   1.407   .     A
C1113  C1115   1.411   .     A
C1114  C1120   1.401   .     A
C1114  C1116   1.409   .     A
C1115  C1117   1.416   .     A
C1115  C414    1.401   1_556 S
C1116  C1118   1.415   .     A
C1117  C1122   1.414   .     A
C1118  C1121   1.413   .     A
C1119  I1151   2.139   .     S
C1119  C419    1.397   1_556 S
C1120  I1152   2.134   .     S
C1121  N1153   1.425   .     S
C1122  N1156   1.428   .     S
C1122  C418    1.395   1_556 S
C1123  N1159   1.436   .     S
C1123  C1128   1.413   .     A
C1124  C1127   1.414   .     A
C1124  N1162   1.435   .     S
C1124  C970    1.384   1_655 S
C1125  N1165   1.436   .     S
C1125  C1127   1.414   .     A
C1125  C967    1.381   1_655 S
C1126  C1128   1.412   .     A
C1126  N1168   1.437   .     S
C1129  H1133   1.082   .     S
C1129  N1138   1.365   .     A
C1130  H1134   1.082   .     S
C1130  N1137   1.365   .     A
C1130  C1365   1.413   .     S
C1131  H1135   1.082   .     S
C1131  N1138   1.365   .     A
C1132  N1137   1.365   .     A
C1132  H1136   1.081   .     S
C1132  C1363   1.413   .     S
N1139  O1141   1.301   .     A
N1139  O1140   1.300   .     A
N1142  O1144   1.301   .     A
N1142  O1143   1.301   .     A
N1145  O1146   1.301   .     A
N1145  O1147   1.301   .     A
N1148  O1149   1.302   .     A
N1148  O1150   1.299   .     A
N1153  O1155   1.301   .     A
N1153  O1154   1.300   .     A
N1156  O1158   1.301   .     A
N1156  O1157   1.300   .     A
N1159  O1160   1.301   .     A
N1159  O1161   1.301   .     A
N1162  O1163   1.301   .     A
N1162  O1164   1.301   .     A
N1165  O1166   1.301   .     A
N1165  O1167   1.301   .     A
N1168  O1170   1.301   .     A
N1168  O1169   1.301   .     A
O1171  C1175   1.287   .     A
O1171  Zn1183  2.036   .     S
O1172  C1176   1.285   .     A
O1172  Zn1184  2.036   .     S
O1173  C1176   1.286   .     A
O1173  Zn1183  2.040   .     S
O1174  C1175   1.284   .     A
O1174  Zn1184  2.040   .     S
C1175  C1206   1.449   .     S
C1176  C1205   1.451   .     S
O1177  C1181   1.280   .     A
O1177  Zn1183  2.007   .     S
O1178  C1182   1.276   .     A
O1178  Zn1184  2.007   .     S
O1179  Zn1183  2.008   .     S
O1179  C1182   1.283   .     A
O1180  Zn1184  2.008   .     S
O1180  C1181   1.279   .     A
C1181  C1188   1.429   .     S
C1182  C1187   1.430   .     S
Zn1183 N1215   2.000   .     S
Zn1184 N1216   2.000   .     S
C1185  N1217   1.436   .     S
C1185  C1195   1.403   .     A
C1185  C1187   1.398   .     A
C1186  N1220   1.435   .     S
C1186  C1196   1.407   .     A
C1186  C1188   1.399   .     A
C1187  C1189   1.401   .     A
C1188  C1190   1.398   .     A
C1189  C1191   1.401   .     A
C1189  N1223   1.437   .     S
C1190  N1226   1.439   .     S
C1190  C1192   1.396   .     A
C1191  C1197   1.407   .     A
C1191  C1193   1.411   .     A
C1192  C1198   1.401   .     A
C1192  C1194   1.409   .     A
C1193  C1195   1.416   .     A
C1193  C492    1.401   1_556 S
C1194  C1196   1.415   .     A
C1195  C1200   1.414   .     A
C1196  C1199   1.413   .     A
C1197  I1229   2.139   .     S
C1197  C497    1.397   1_556 S
C1198  I1230   2.134   .     S
C1199  N1231   1.425   .     S
C1200  N1234   1.428   .     S
C1200  C496    1.395   1_556 S
C1201  N1237   1.436   .     S
C1201  C1206   1.413   .     A
C1201  C1359   1.381   1_455 S
C1202  C1205   1.414   .     A
C1202  N1240   1.435   .     S
C1202  C1282   1.384   .     S
C1203  N1243   1.436   .     S
C1203  C1205   1.414   .     A
C1203  C1279   1.381   .     S
C1204  C1206   1.412   .     A
C1204  N1246   1.437   .     S
C1204  C1358   1.384   1_455 S
C1207  H1211   1.082   .     S
C1207  N1216   1.365   .     A
C1208  H1212   1.082   .     S
C1208  N1215   1.365   .     A
C1208  C741    1.413   1_565 S
C1209  H1213   1.082   .     S
C1209  N1216   1.365   .     A
C1210  N1215   1.365   .     A
C1210  H1214   1.081   .     S
C1210  C739    1.413   1_565 S
N1217  O1219   1.301   .     A
N1217  O1218   1.300   .     A
N1220  O1222   1.301   .     A
N1220  O1221   1.301   .     A
N1223  O1224   1.301   .     A
N1223  O1225   1.301   .     A
N1226  O1227   1.302   .     A
N1226  O1228   1.299   .     A
N1231  O1233   1.301   .     A
N1231  O1232   1.300   .     A
N1234  O1236   1.301   .     A
N1234  O1235   1.300   .     A
N1237  O1238   1.301   .     A
N1237  O1239   1.301   .     A
N1240  O1241   1.301   .     A
N1240  O1242   1.301   .     A
N1243  O1244   1.301   .     A
N1243  O1245   1.301   .     A
N1246  O1248   1.301   .     A
N1246  O1247   1.301   .     A
O1249  C1253   1.287   .     A
O1249  Zn1261  2.036   .     S
O1250  C1254   1.285   .     A
O1250  Zn1262  2.036   .     S
O1251  C1254   1.286   .     A
O1251  Zn1261  2.040   .     S
O1252  C1253   1.284   .     A
O1252  Zn1262  2.040   .     S
C1253  C1284   1.449   .     S
C1254  C1283   1.451   .     S
O1255  C1259   1.280   .     A
O1255  Zn1261  2.007   .     S
O1256  C1260   1.276   .     A
O1256  Zn1262  2.007   .     S
O1257  Zn1261  2.008   .     S
O1257  C1260   1.283   .     A
O1258  Zn1262  2.008   .     S
O1258  C1259   1.279   .     A
C1259  C1266   1.429   .     S
C1260  C1265   1.430   .     S
Zn1261 N1293   2.000   .     S
Zn1262 N1294   2.000   .     S
C1263  N1295   1.436   .     S
C1263  C1273   1.403   .     A
C1263  C1265   1.398   .     A
C1264  N1298   1.435   .     S
C1264  C1274   1.407   .     A
C1264  C1266   1.399   .     A
C1265  C1267   1.401   .     A
C1266  C1268   1.398   .     A
C1267  C1269   1.401   .     A
C1267  N1301   1.437   .     S
C1268  N1304   1.439   .     S
C1268  C1270   1.396   .     A
C1269  C1275   1.407   .     A
C1269  C1271   1.411   .     A
C1270  C1276   1.401   .     A
C1270  C1272   1.409   .     A
C1271  C1273   1.416   .     A
C1271  C570    1.401   1_556 S
C1272  C1274   1.415   .     A
C1273  C1278   1.414   .     A
C1274  C1277   1.413   .     A
C1275  I1307   2.139   .     S
C1275  C575    1.397   1_556 S
C1276  I1308   2.134   .     S
C1277  N1309   1.425   .     S
C1278  N1312   1.428   .     S
C1278  C574    1.395   1_556 S
C1279  N1315   1.436   .     S
C1279  C1284   1.413   .     A
C1280  C1283   1.414   .     A
C1280  N1318   1.435   .     S
C1280  C1360   1.384   .     S
C1281  N1321   1.436   .     S
C1281  C1283   1.414   .     A
C1281  C1357   1.381   .     S
C1282  C1284   1.412   .     A
C1282  N1324   1.437   .     S
C1285  H1289   1.082   .     S
C1285  N1294   1.365   .     A
C1286  H1290   1.082   .     S
C1286  N1293   1.365   .     A
C1286  C819    1.413   1_565 S
C1287  H1291   1.082   .     S
C1287  N1294   1.365   .     A
C1288  N1293   1.365   .     A
C1288  H1292   1.081   .     S
C1288  C817    1.413   1_565 S
N1295  O1297   1.301   .     A
N1295  O1296   1.300   .     A
N1298  O1300   1.301   .     A
N1298  O1299   1.301   .     A
N1301  O1302   1.301   .     A
N1301  O1303   1.301   .     A
N1304  O1305   1.302   .     A
N1304  O1306   1.299   .     A
N1309  O1311   1.301   .     A
N1309  O1310   1.300   .     A
N1312  O1314   1.301   .     A
N1312  O1313   1.300   .     A
N1315  O1316   1.301   .     A
N1315  O1317   1.301   .     A
N1318  O1319   1.301   .     A
N1318  O1320   1.301   .     A
N1321  O1322   1.301   .     A
N1321  O1323   1.301   .     A
N1324  O1326   1.301   .     A
N1324  O1325   1.301   .     A
O1327  C1331   1.287   .     A
O1327  Zn1339  2.036   .     S
O1328  C1332   1.285   .     A
O1328  Zn1340  2.036   .     S
O1329  C1332   1.286   .     A
O1329  Zn1339  2.040   .     S
O1330  C1331   1.284   .     A
O1330  Zn1340  2.040   .     S
C1331  C1362   1.449   .     S
C1332  C1361   1.451   .     S
O1333  C1337   1.280   .     A
O1333  Zn1339  2.007   .     S
O1334  C1338   1.276   .     A
O1334  Zn1340  2.007   .     S
O1335  Zn1339  2.008   .     S
O1335  C1338   1.283   .     A
O1336  Zn1340  2.008   .     S
O1336  C1337   1.279   .     A
C1337  C1344   1.429   .     S
C1338  C1343   1.430   .     S
Zn1339 N1371   2.000   .     S
Zn1340 N1372   2.000   .     S
C1341  N1373   1.436   .     S
C1341  C1351   1.403   .     A
C1341  C1343   1.398   .     A
C1342  N1376   1.435   .     S
C1342  C1352   1.407   .     A
C1342  C1344   1.399   .     A
C1343  C1345   1.401   .     A
C1344  C1346   1.398   .     A
C1345  C1347   1.401   .     A
C1345  N1379   1.437   .     S
C1346  N1382   1.439   .     S
C1346  C1348   1.396   .     A
C1347  C1353   1.407   .     A
C1347  C1349   1.411   .     A
C1348  C1354   1.401   .     A
C1348  C1350   1.409   .     A
C1349  C1351   1.416   .     A
C1349  C648    1.401   1_556 S
C1350  C1352   1.415   .     A
C1351  C1356   1.414   .     A
C1352  C1355   1.413   .     A
C1353  I1385   2.139   .     S
C1353  C653    1.397   1_556 S
C1354  I1386   2.134   .     S
C1355  N1387   1.425   .     S
C1356  N1390   1.428   .     S
C1356  C652    1.395   1_556 S
C1357  N1393   1.436   .     S
C1357  C1362   1.413   .     A
C1358  C1361   1.414   .     A
C1358  N1396   1.435   .     S
C1358  C1204   1.384   1_655 S
C1359  N1399   1.436   .     S
C1359  C1361   1.414   .     A
C1359  C1201   1.381   1_655 S
C1360  C1362   1.412   .     A
C1360  N1402   1.437   .     S
C1363  H1367   1.082   .     S
C1363  N1372   1.365   .     A
C1364  H1368   1.082   .     S
C1364  N1371   1.365   .     A
C1364  C897    1.413   1_565 S
C1365  H1369   1.082   .     S
C1365  N1372   1.365   .     A
C1366  N1371   1.365   .     A
C1366  H1370   1.081   .     S
C1366  C895    1.413   1_565 S
N1373  O1375   1.301   .     A
N1373  O1374   1.300   .     A
N1376  O1378   1.301   .     A
N1376  O1377   1.301   .     A
N1379  O1380   1.301   .     A
N1379  O1381   1.301   .     A
N1382  O1383   1.302   .     A
N1382  O1384   1.299   .     A
N1387  O1389   1.301   .     A
N1387  O1388   1.300   .     A
N1390  O1392   1.301   .     A
N1390  O1391   1.300   .     A
N1393  O1394   1.301   .     A
N1393  O1395   1.301   .     A
N1396  O1397   1.301   .     A
N1396  O1398   1.301   .     A
N1399  O1400   1.301   .     A
N1399  O1401   1.301   .     A
N1402  O1404   1.301   .     A
N1402  O1403   1.301   .     A
