data_str_m3_o2_o10_pcu_sym.187
_audit_creation_date              2020-01-03
_audit_creation_method            'Materials Studio'
_symmetry_space_group_name_H-M    'P1'
_symmetry_Int_Tables_number       1
_symmetry_cell_setting            triclinic
loop_
_symmetry_equiv_pos_as_xyz
  x,y,z
_cell_length_a                    25.7807
_cell_length_b                    30.0161
_cell_length_c                    28.3340
_cell_angle_alpha                 90.5147
_cell_angle_beta                  98.6596
_cell_angle_gamma                 89.9418
loop_
_atom_site_label
_atom_site_type_symbol
_atom_site_fract_x
_atom_site_fract_y
_atom_site_fract_z
_atom_site_U_iso_or_equiv
_atom_site_adp_type
_atom_site_occupancy
C1     C     0.16694   0.16381   0.24976   0.00000  Uiso   1.00
C2     C     0.16716   0.33616   0.25033   0.00000  Uiso   1.00
C3     C     0.14580   0.21400   0.04940   0.00000  Uiso   1.00
C4     C     0.20675   0.27130   0.45304   0.00000  Uiso   1.00
C5     C     0.14600   0.21476   0.09907   0.00000  Uiso   1.00
C6     C     0.20586   0.27104   0.40329   0.00000  Uiso   1.00
C7     C     0.18749   0.28515   0.10541   0.00000  Uiso   1.00
C8     C     0.12750   0.22898   0.39220   0.00000  Uiso   1.00
C9     C     0.18778   0.28587   0.05583   0.00000  Uiso   1.00
C10    C     0.12670   0.22868   0.44172   0.00000  Uiso   1.00
C11    C     0.16678   0.24994   0.02668   0.00000  Uiso   1.00
C12    C     0.16675   0.24997   0.47332   0.00000  Uiso   1.00
C13    C     0.06700   0.24999   0.23753   0.00000  Uiso   1.00
C14    C     0.26634   0.25001   0.26248   0.00000  Uiso   1.00
C15    C     0.01198   0.24999   0.23080   0.00000  Uiso   1.00
C16    C     0.32136   0.25001   0.26922   0.00000  Uiso   1.00
C17    C     0.13984   0.04817   0.28438   0.00000  Uiso   1.00
C18    C     0.13826   0.45165   0.20916   0.00000  Uiso   1.00
C19    C     0.14306   0.09405   0.28464   0.00000  Uiso   1.00
C20    C     0.14171   0.40581   0.20965   0.00000  Uiso   1.00
C21    C     0.16517   0.11576   0.24886   0.00000  Uiso   1.00
C22    C     0.16583   0.38418   0.25079   0.00000  Uiso   1.00
C23    C     0.18417   0.09122   0.21240   0.00000  Uiso   1.00
C24    C     0.18706   0.40867   0.29195   0.00000  Uiso   1.00
C25    C     0.18046   0.04513   0.21234   0.00000  Uiso   1.00
C26    C     0.18292   0.45483   0.29108   0.00000  Uiso   1.00
C27    C     0.15864   0.02388   0.24832   0.00000  Uiso   1.00
C28    C     0.15886   0.47598   0.24981   0.00000  Uiso   1.00
H29    H     0.32467   0.24998   0.19436   0.00000  Uiso   1.00
H30    H     0.00866   0.25001   0.30566   0.00000  Uiso   1.00
H31    H     0.12292   0.03156   0.31226   0.00000  Uiso   1.00
H32    H     0.11966   0.46820   0.17718   0.00000  Uiso   1.00
H33    H     0.12790   0.11257   0.31261   0.00000  Uiso   1.00
H34    H     0.12501   0.38723   0.17803   0.00000  Uiso   1.00
H35    H     0.19597   0.02588   0.18506   0.00000  Uiso   1.00
H36    H     0.19982   0.47442   0.32191   0.00000  Uiso   1.00
H37    H     0.12994   0.18508   0.02919   0.00000  Uiso   1.00
H38    H     0.23907   0.28761   0.47537   0.00000  Uiso   1.00
H39    H     0.12969   0.18696   0.11592   0.00000  Uiso   1.00
H40    H     0.23677   0.28760   0.38825   0.00000  Uiso   1.00
H41    H     0.20388   0.31293   0.12724   0.00000  Uiso   1.00
H42    H     0.09655   0.21242   0.36845   0.00000  Uiso   1.00
H43    H     0.20370   0.31477   0.04052   0.00000  Uiso   1.00
H44    H     0.09441   0.21237   0.45492   0.00000  Uiso   1.00
N45    N     0.16667   0.24999   0.12624   0.00000  Uiso   1.00
N46    N     0.16667   0.25001   0.37377   0.00000  Uiso   1.00
O47    O     0.16667   0.18453   0.28974   0.00000  Uiso   1.00
O48    O     0.16666   0.31546   0.21026   0.00000  Uiso   1.00
O49    O     0.16667   0.18453   0.21026   0.00000  Uiso   1.00
O50    O     0.16666   0.31547   0.28974   0.00000  Uiso   1.00
O51    O     0.09058   0.25000   0.28045   0.00000  Uiso   1.00
O52    O     0.24275   0.25000   0.21956   0.00000  Uiso   1.00
O53    O     0.09058   0.24999   0.20096   0.00000  Uiso   1.00
O54    O     0.24275   0.25000   0.29904   0.00000  Uiso   1.00
Zn55   Zn    0.16667   0.25000   0.30307   0.00000  Uiso   1.00
Zn56   Zn    0.16667   0.24999   0.19693   0.00000  Uiso   1.00
N57    N     0.20864   0.11270   0.17648   0.00000  Uiso   1.00
H58    H     0.18789   0.10397   0.14308   0.00000  Uiso   1.00
H59    H     0.24679   0.10028   0.17832   0.00000  Uiso   1.00
N60    N     0.21384   0.38679   0.33363   0.00000  Uiso   1.00
H61    H     0.24877   0.37371   0.32479   0.00000  Uiso   1.00
H62    H     0.22444   0.40972   0.36141   0.00000  Uiso   1.00
C63    C     0.50028   0.16381   0.24976   0.00000  Uiso   1.00
C64    C     0.50049   0.33616   0.25033   0.00000  Uiso   1.00
C65    C     0.47914   0.21400   0.04940   0.00000  Uiso   1.00
C66    C     0.54009   0.27130   0.45304   0.00000  Uiso   1.00
C67    C     0.47933   0.21476   0.09907   0.00000  Uiso   1.00
C68    C     0.53919   0.27104   0.40329   0.00000  Uiso   1.00
C69    C     0.52082   0.28515   0.10541   0.00000  Uiso   1.00
C70    C     0.46083   0.22898   0.39220   0.00000  Uiso   1.00
C71    C     0.52111   0.28587   0.05583   0.00000  Uiso   1.00
C72    C     0.46003   0.22868   0.44172   0.00000  Uiso   1.00
C73    C     0.50012   0.24994   0.02668   0.00000  Uiso   1.00
C74    C     0.50009   0.24997   0.47332   0.00000  Uiso   1.00
C75    C     0.40033   0.24999   0.23753   0.00000  Uiso   1.00
C76    C     0.59967   0.25001   0.26248   0.00000  Uiso   1.00
C77    C     0.34531   0.24999   0.23080   0.00000  Uiso   1.00
C78    C     0.65469   0.25001   0.26922   0.00000  Uiso   1.00
C79    C     0.47318   0.04817   0.28438   0.00000  Uiso   1.00
C80    C     0.47159   0.45165   0.20916   0.00000  Uiso   1.00
C81    C     0.47640   0.09405   0.28464   0.00000  Uiso   1.00
C82    C     0.47504   0.40581   0.20965   0.00000  Uiso   1.00
C83    C     0.49850   0.11576   0.24886   0.00000  Uiso   1.00
C84    C     0.49916   0.38418   0.25079   0.00000  Uiso   1.00
C85    C     0.51751   0.09122   0.21240   0.00000  Uiso   1.00
C86    C     0.52040   0.40867   0.29195   0.00000  Uiso   1.00
C87    C     0.51380   0.04513   0.21234   0.00000  Uiso   1.00
C88    C     0.51625   0.45483   0.29108   0.00000  Uiso   1.00
C89    C     0.49197   0.02388   0.24832   0.00000  Uiso   1.00
C90    C     0.49219   0.47598   0.24981   0.00000  Uiso   1.00
H91    H     0.65800   0.24998   0.19436   0.00000  Uiso   1.00
H92    H     0.34199   0.25001   0.30566   0.00000  Uiso   1.00
H93    H     0.45625   0.03156   0.31226   0.00000  Uiso   1.00
H94    H     0.45300   0.46820   0.17718   0.00000  Uiso   1.00
H95    H     0.46124   0.11257   0.31261   0.00000  Uiso   1.00
H96    H     0.45835   0.38723   0.17803   0.00000  Uiso   1.00
H97    H     0.52930   0.02588   0.18506   0.00000  Uiso   1.00
H98    H     0.53315   0.47442   0.32191   0.00000  Uiso   1.00
H99    H     0.46327   0.18508   0.02919   0.00000  Uiso   1.00
H100   H     0.57240   0.28761   0.47537   0.00000  Uiso   1.00
H101   H     0.46302   0.18696   0.11592   0.00000  Uiso   1.00
H102   H     0.57010   0.28760   0.38825   0.00000  Uiso   1.00
H103   H     0.53721   0.31293   0.12724   0.00000  Uiso   1.00
H104   H     0.42988   0.21242   0.36845   0.00000  Uiso   1.00
H105   H     0.53704   0.31477   0.04052   0.00000  Uiso   1.00
H106   H     0.42774   0.21237   0.45492   0.00000  Uiso   1.00
N107   N     0.50000   0.24999   0.12624   0.00000  Uiso   1.00
N108   N     0.50000   0.25001   0.37377   0.00000  Uiso   1.00
O109   O     0.50000   0.18453   0.28974   0.00000  Uiso   1.00
O110   O     0.50000   0.31546   0.21026   0.00000  Uiso   1.00
O111   O     0.50000   0.18453   0.21026   0.00000  Uiso   1.00
O112   O     0.50000   0.31547   0.28974   0.00000  Uiso   1.00
O113   O     0.42392   0.25000   0.28045   0.00000  Uiso   1.00
O114   O     0.57608   0.25000   0.21956   0.00000  Uiso   1.00
O115   O     0.42392   0.24999   0.20096   0.00000  Uiso   1.00
O116   O     0.57608   0.25000   0.29904   0.00000  Uiso   1.00
Zn117  Zn    0.50000   0.25000   0.30307   0.00000  Uiso   1.00
Zn118  Zn    0.50000   0.24999   0.19693   0.00000  Uiso   1.00
N119   N     0.54197   0.11270   0.17648   0.00000  Uiso   1.00
H120   H     0.52123   0.10397   0.14308   0.00000  Uiso   1.00
H121   H     0.58013   0.10028   0.17832   0.00000  Uiso   1.00
N122   N     0.54718   0.38679   0.33363   0.00000  Uiso   1.00
H123   H     0.58210   0.37371   0.32479   0.00000  Uiso   1.00
H124   H     0.55777   0.40972   0.36141   0.00000  Uiso   1.00
C125   C     0.83361   0.16381   0.24976   0.00000  Uiso   1.00
C126   C     0.83383   0.33616   0.25033   0.00000  Uiso   1.00
C127   C     0.81247   0.21400   0.04940   0.00000  Uiso   1.00
C128   C     0.87342   0.27130   0.45304   0.00000  Uiso   1.00
C129   C     0.81267   0.21476   0.09907   0.00000  Uiso   1.00
C130   C     0.87253   0.27104   0.40329   0.00000  Uiso   1.00
C131   C     0.85415   0.28515   0.10541   0.00000  Uiso   1.00
C132   C     0.79417   0.22898   0.39220   0.00000  Uiso   1.00
C133   C     0.85444   0.28587   0.05583   0.00000  Uiso   1.00
C134   C     0.79336   0.22868   0.44172   0.00000  Uiso   1.00
C135   C     0.83345   0.24994   0.02668   0.00000  Uiso   1.00
C136   C     0.83342   0.24997   0.47332   0.00000  Uiso   1.00
C137   C     0.73366   0.24999   0.23753   0.00000  Uiso   1.00
C138   C     0.93301   0.25001   0.26248   0.00000  Uiso   1.00
C139   C     0.67865   0.24999   0.23080   0.00000  Uiso   1.00
C140   C     0.98802   0.25001   0.26922   0.00000  Uiso   1.00
C141   C     0.80651   0.04817   0.28438   0.00000  Uiso   1.00
C142   C     0.80492   0.45165   0.20916   0.00000  Uiso   1.00
C143   C     0.80973   0.09405   0.28464   0.00000  Uiso   1.00
C144   C     0.80837   0.40581   0.20965   0.00000  Uiso   1.00
C145   C     0.83183   0.11576   0.24886   0.00000  Uiso   1.00
C146   C     0.83250   0.38418   0.25079   0.00000  Uiso   1.00
C147   C     0.85084   0.09122   0.21240   0.00000  Uiso   1.00
C148   C     0.85373   0.40867   0.29195   0.00000  Uiso   1.00
C149   C     0.84713   0.04513   0.21234   0.00000  Uiso   1.00
C150   C     0.84959   0.45483   0.29108   0.00000  Uiso   1.00
C151   C     0.82531   0.02388   0.24832   0.00000  Uiso   1.00
C152   C     0.82553   0.47598   0.24981   0.00000  Uiso   1.00
H153   H     0.99134   0.24998   0.19436   0.00000  Uiso   1.00
H154   H     0.67533   0.25001   0.30566   0.00000  Uiso   1.00
H155   H     0.78959   0.03156   0.31226   0.00000  Uiso   1.00
H156   H     0.78633   0.46820   0.17718   0.00000  Uiso   1.00
H157   H     0.79457   0.11257   0.31261   0.00000  Uiso   1.00
H158   H     0.79168   0.38723   0.17803   0.00000  Uiso   1.00
H159   H     0.86264   0.02588   0.18506   0.00000  Uiso   1.00
H160   H     0.86649   0.47442   0.32191   0.00000  Uiso   1.00
H161   H     0.79661   0.18508   0.02919   0.00000  Uiso   1.00
H162   H     0.90574   0.28761   0.47537   0.00000  Uiso   1.00
H163   H     0.79636   0.18696   0.11592   0.00000  Uiso   1.00
H164   H     0.90344   0.28760   0.38825   0.00000  Uiso   1.00
H165   H     0.87054   0.31293   0.12724   0.00000  Uiso   1.00
H166   H     0.76322   0.21242   0.36845   0.00000  Uiso   1.00
H167   H     0.87037   0.31477   0.04052   0.00000  Uiso   1.00
H168   H     0.76107   0.21237   0.45492   0.00000  Uiso   1.00
N169   N     0.83333   0.24999   0.12624   0.00000  Uiso   1.00
N170   N     0.83333   0.25001   0.37377   0.00000  Uiso   1.00
O171   O     0.83334   0.18453   0.28974   0.00000  Uiso   1.00
O172   O     0.83333   0.31546   0.21026   0.00000  Uiso   1.00
O173   O     0.83334   0.18453   0.21026   0.00000  Uiso   1.00
O174   O     0.83333   0.31547   0.28974   0.00000  Uiso   1.00
O175   O     0.75725   0.25000   0.28045   0.00000  Uiso   1.00
O176   O     0.90942   0.25000   0.21956   0.00000  Uiso   1.00
O177   O     0.75725   0.24999   0.20096   0.00000  Uiso   1.00
O178   O     0.90942   0.25000   0.29904   0.00000  Uiso   1.00
Zn179  Zn    0.83333   0.25000   0.30307   0.00000  Uiso   1.00
Zn180  Zn    0.83333   0.24999   0.19693   0.00000  Uiso   1.00
N181   N     0.87531   0.11270   0.17648   0.00000  Uiso   1.00
H182   H     0.85456   0.10397   0.14308   0.00000  Uiso   1.00
H183   H     0.91346   0.10028   0.17832   0.00000  Uiso   1.00
N184   N     0.88051   0.38679   0.33363   0.00000  Uiso   1.00
H185   H     0.91544   0.37371   0.32479   0.00000  Uiso   1.00
H186   H     0.89111   0.40972   0.36141   0.00000  Uiso   1.00
C187   C     0.16694   0.66381   0.24976   0.00000  Uiso   1.00
C188   C     0.16716   0.83616   0.25033   0.00000  Uiso   1.00
C189   C     0.14580   0.71400   0.04940   0.00000  Uiso   1.00
C190   C     0.20675   0.77130   0.45304   0.00000  Uiso   1.00
C191   C     0.14600   0.71476   0.09907   0.00000  Uiso   1.00
C192   C     0.20586   0.77104   0.40329   0.00000  Uiso   1.00
C193   C     0.18749   0.78515   0.10541   0.00000  Uiso   1.00
C194   C     0.12750   0.72898   0.39220   0.00000  Uiso   1.00
C195   C     0.18778   0.78587   0.05583   0.00000  Uiso   1.00
C196   C     0.12670   0.72868   0.44172   0.00000  Uiso   1.00
C197   C     0.16678   0.74994   0.02668   0.00000  Uiso   1.00
C198   C     0.16675   0.74997   0.47332   0.00000  Uiso   1.00
C199   C     0.06700   0.74999   0.23753   0.00000  Uiso   1.00
C200   C     0.26634   0.75001   0.26248   0.00000  Uiso   1.00
C201   C     0.01198   0.74999   0.23080   0.00000  Uiso   1.00
C202   C     0.32136   0.75001   0.26922   0.00000  Uiso   1.00
C203   C     0.13984   0.54817   0.28438   0.00000  Uiso   1.00
C204   C     0.13826   0.95165   0.20916   0.00000  Uiso   1.00
C205   C     0.14306   0.59405   0.28464   0.00000  Uiso   1.00
C206   C     0.14171   0.90581   0.20965   0.00000  Uiso   1.00
C207   C     0.16517   0.61576   0.24886   0.00000  Uiso   1.00
C208   C     0.16583   0.88418   0.25079   0.00000  Uiso   1.00
C209   C     0.18417   0.59122   0.21240   0.00000  Uiso   1.00
C210   C     0.18706   0.90867   0.29195   0.00000  Uiso   1.00
C211   C     0.18046   0.54513   0.21234   0.00000  Uiso   1.00
C212   C     0.18292   0.95483   0.29108   0.00000  Uiso   1.00
C213   C     0.15864   0.52388   0.24832   0.00000  Uiso   1.00
C214   C     0.15886   0.97598   0.24981   0.00000  Uiso   1.00
H215   H     0.32467   0.74998   0.19436   0.00000  Uiso   1.00
H216   H     0.00866   0.75001   0.30566   0.00000  Uiso   1.00
H217   H     0.12292   0.53156   0.31226   0.00000  Uiso   1.00
H218   H     0.11966   0.96820   0.17718   0.00000  Uiso   1.00
H219   H     0.12790   0.61257   0.31261   0.00000  Uiso   1.00
H220   H     0.12501   0.88723   0.17803   0.00000  Uiso   1.00
H221   H     0.19597   0.52588   0.18506   0.00000  Uiso   1.00
H222   H     0.19982   0.97442   0.32191   0.00000  Uiso   1.00
H223   H     0.12994   0.68508   0.02919   0.00000  Uiso   1.00
H224   H     0.23907   0.78761   0.47537   0.00000  Uiso   1.00
H225   H     0.12969   0.68696   0.11592   0.00000  Uiso   1.00
H226   H     0.23677   0.78760   0.38825   0.00000  Uiso   1.00
H227   H     0.20388   0.81293   0.12724   0.00000  Uiso   1.00
H228   H     0.09655   0.71242   0.36845   0.00000  Uiso   1.00
H229   H     0.20370   0.81477   0.04052   0.00000  Uiso   1.00
H230   H     0.09441   0.71237   0.45492   0.00000  Uiso   1.00
N231   N     0.16667   0.74999   0.12624   0.00000  Uiso   1.00
N232   N     0.16667   0.75001   0.37377   0.00000  Uiso   1.00
O233   O     0.16667   0.68453   0.28974   0.00000  Uiso   1.00
O234   O     0.16666   0.81546   0.21026   0.00000  Uiso   1.00
O235   O     0.16667   0.68453   0.21026   0.00000  Uiso   1.00
O236   O     0.16666   0.81547   0.28974   0.00000  Uiso   1.00
O237   O     0.09058   0.75000   0.28045   0.00000  Uiso   1.00
O238   O     0.24275   0.75000   0.21956   0.00000  Uiso   1.00
O239   O     0.09058   0.74999   0.20096   0.00000  Uiso   1.00
O240   O     0.24275   0.75000   0.29904   0.00000  Uiso   1.00
Zn241  Zn    0.16667   0.75000   0.30307   0.00000  Uiso   1.00
Zn242  Zn    0.16667   0.74999   0.19693   0.00000  Uiso   1.00
N243   N     0.20864   0.61270   0.17648   0.00000  Uiso   1.00
H244   H     0.18789   0.60397   0.14308   0.00000  Uiso   1.00
H245   H     0.24679   0.60028   0.17832   0.00000  Uiso   1.00
N246   N     0.21384   0.88679   0.33363   0.00000  Uiso   1.00
H247   H     0.24877   0.87371   0.32479   0.00000  Uiso   1.00
H248   H     0.22444   0.90972   0.36141   0.00000  Uiso   1.00
C249   C     0.50028   0.66381   0.24976   0.00000  Uiso   1.00
C250   C     0.50049   0.83616   0.25033   0.00000  Uiso   1.00
C251   C     0.47914   0.71400   0.04940   0.00000  Uiso   1.00
C252   C     0.54009   0.77130   0.45304   0.00000  Uiso   1.00
C253   C     0.47933   0.71476   0.09907   0.00000  Uiso   1.00
C254   C     0.53919   0.77104   0.40329   0.00000  Uiso   1.00
C255   C     0.52082   0.78515   0.10541   0.00000  Uiso   1.00
C256   C     0.46083   0.72898   0.39220   0.00000  Uiso   1.00
C257   C     0.52111   0.78587   0.05583   0.00000  Uiso   1.00
C258   C     0.46003   0.72868   0.44172   0.00000  Uiso   1.00
C259   C     0.50012   0.74994   0.02668   0.00000  Uiso   1.00
C260   C     0.50009   0.74997   0.47332   0.00000  Uiso   1.00
C261   C     0.40033   0.74999   0.23753   0.00000  Uiso   1.00
C262   C     0.59967   0.75001   0.26248   0.00000  Uiso   1.00
C263   C     0.34531   0.74999   0.23080   0.00000  Uiso   1.00
C264   C     0.65469   0.75001   0.26922   0.00000  Uiso   1.00
C265   C     0.47318   0.54817   0.28438   0.00000  Uiso   1.00
C266   C     0.47159   0.95165   0.20916   0.00000  Uiso   1.00
C267   C     0.47640   0.59405   0.28464   0.00000  Uiso   1.00
C268   C     0.47504   0.90581   0.20965   0.00000  Uiso   1.00
C269   C     0.49850   0.61576   0.24886   0.00000  Uiso   1.00
C270   C     0.49916   0.88418   0.25079   0.00000  Uiso   1.00
C271   C     0.51751   0.59122   0.21240   0.00000  Uiso   1.00
C272   C     0.52040   0.90867   0.29195   0.00000  Uiso   1.00
C273   C     0.51380   0.54513   0.21234   0.00000  Uiso   1.00
C274   C     0.51625   0.95483   0.29108   0.00000  Uiso   1.00
C275   C     0.49197   0.52388   0.24832   0.00000  Uiso   1.00
C276   C     0.49219   0.97598   0.24981   0.00000  Uiso   1.00
H277   H     0.65800   0.74998   0.19436   0.00000  Uiso   1.00
H278   H     0.34199   0.75001   0.30566   0.00000  Uiso   1.00
H279   H     0.45625   0.53156   0.31226   0.00000  Uiso   1.00
H280   H     0.45300   0.96820   0.17718   0.00000  Uiso   1.00
H281   H     0.46124   0.61257   0.31261   0.00000  Uiso   1.00
H282   H     0.45835   0.88723   0.17803   0.00000  Uiso   1.00
H283   H     0.52930   0.52588   0.18506   0.00000  Uiso   1.00
H284   H     0.53315   0.97442   0.32191   0.00000  Uiso   1.00
H285   H     0.46327   0.68508   0.02919   0.00000  Uiso   1.00
H286   H     0.57240   0.78761   0.47537   0.00000  Uiso   1.00
H287   H     0.46302   0.68696   0.11592   0.00000  Uiso   1.00
H288   H     0.57010   0.78760   0.38825   0.00000  Uiso   1.00
H289   H     0.53721   0.81293   0.12724   0.00000  Uiso   1.00
H290   H     0.42988   0.71242   0.36845   0.00000  Uiso   1.00
H291   H     0.53704   0.81477   0.04052   0.00000  Uiso   1.00
H292   H     0.42774   0.71237   0.45492   0.00000  Uiso   1.00
N293   N     0.50000   0.74999   0.12624   0.00000  Uiso   1.00
N294   N     0.50000   0.75001   0.37377   0.00000  Uiso   1.00
O295   O     0.50000   0.68453   0.28974   0.00000  Uiso   1.00
O296   O     0.50000   0.81546   0.21026   0.00000  Uiso   1.00
O297   O     0.50000   0.68453   0.21026   0.00000  Uiso   1.00
O298   O     0.50000   0.81547   0.28974   0.00000  Uiso   1.00
O299   O     0.42392   0.75000   0.28045   0.00000  Uiso   1.00
O300   O     0.57608   0.75000   0.21956   0.00000  Uiso   1.00
O301   O     0.42392   0.74999   0.20096   0.00000  Uiso   1.00
O302   O     0.57608   0.75000   0.29904   0.00000  Uiso   1.00
Zn303  Zn    0.50000   0.75000   0.30307   0.00000  Uiso   1.00
Zn304  Zn    0.50000   0.74999   0.19693   0.00000  Uiso   1.00
N305   N     0.54197   0.61270   0.17648   0.00000  Uiso   1.00
H306   H     0.52123   0.60397   0.14308   0.00000  Uiso   1.00
H307   H     0.58013   0.60028   0.17832   0.00000  Uiso   1.00
N308   N     0.54718   0.88679   0.33363   0.00000  Uiso   1.00
H309   H     0.58210   0.87371   0.32479   0.00000  Uiso   1.00
H310   H     0.55777   0.90972   0.36141   0.00000  Uiso   1.00
C311   C     0.83361   0.66381   0.24976   0.00000  Uiso   1.00
C312   C     0.83383   0.83616   0.25033   0.00000  Uiso   1.00
C313   C     0.81247   0.71400   0.04940   0.00000  Uiso   1.00
C314   C     0.87342   0.77130   0.45304   0.00000  Uiso   1.00
C315   C     0.81267   0.71476   0.09907   0.00000  Uiso   1.00
C316   C     0.87253   0.77104   0.40329   0.00000  Uiso   1.00
C317   C     0.85415   0.78515   0.10541   0.00000  Uiso   1.00
C318   C     0.79417   0.72898   0.39220   0.00000  Uiso   1.00
C319   C     0.85444   0.78587   0.05583   0.00000  Uiso   1.00
C320   C     0.79336   0.72868   0.44172   0.00000  Uiso   1.00
C321   C     0.83345   0.74994   0.02668   0.00000  Uiso   1.00
C322   C     0.83342   0.74997   0.47332   0.00000  Uiso   1.00
C323   C     0.73366   0.74999   0.23753   0.00000  Uiso   1.00
C324   C     0.93301   0.75001   0.26248   0.00000  Uiso   1.00
C325   C     0.67865   0.74999   0.23080   0.00000  Uiso   1.00
C326   C     0.98802   0.75001   0.26922   0.00000  Uiso   1.00
C327   C     0.80651   0.54817   0.28438   0.00000  Uiso   1.00
C328   C     0.80492   0.95165   0.20916   0.00000  Uiso   1.00
C329   C     0.80973   0.59405   0.28464   0.00000  Uiso   1.00
C330   C     0.80837   0.90581   0.20965   0.00000  Uiso   1.00
C331   C     0.83183   0.61576   0.24886   0.00000  Uiso   1.00
C332   C     0.83250   0.88418   0.25079   0.00000  Uiso   1.00
C333   C     0.85084   0.59122   0.21240   0.00000  Uiso   1.00
C334   C     0.85373   0.90867   0.29195   0.00000  Uiso   1.00
C335   C     0.84713   0.54513   0.21234   0.00000  Uiso   1.00
C336   C     0.84959   0.95483   0.29108   0.00000  Uiso   1.00
C337   C     0.82531   0.52388   0.24832   0.00000  Uiso   1.00
C338   C     0.82553   0.97598   0.24981   0.00000  Uiso   1.00
H339   H     0.99134   0.74998   0.19436   0.00000  Uiso   1.00
H340   H     0.67533   0.75001   0.30566   0.00000  Uiso   1.00
H341   H     0.78959   0.53156   0.31226   0.00000  Uiso   1.00
H342   H     0.78633   0.96820   0.17718   0.00000  Uiso   1.00
H343   H     0.79457   0.61257   0.31261   0.00000  Uiso   1.00
H344   H     0.79168   0.88723   0.17803   0.00000  Uiso   1.00
H345   H     0.86264   0.52588   0.18506   0.00000  Uiso   1.00
H346   H     0.86649   0.97442   0.32191   0.00000  Uiso   1.00
H347   H     0.79661   0.68508   0.02919   0.00000  Uiso   1.00
H348   H     0.90574   0.78761   0.47537   0.00000  Uiso   1.00
H349   H     0.79636   0.68696   0.11592   0.00000  Uiso   1.00
H350   H     0.90344   0.78760   0.38825   0.00000  Uiso   1.00
H351   H     0.87054   0.81293   0.12724   0.00000  Uiso   1.00
H352   H     0.76322   0.71242   0.36845   0.00000  Uiso   1.00
H353   H     0.87037   0.81477   0.04052   0.00000  Uiso   1.00
H354   H     0.76107   0.71237   0.45492   0.00000  Uiso   1.00
N355   N     0.83333   0.74999   0.12624   0.00000  Uiso   1.00
N356   N     0.83333   0.75001   0.37377   0.00000  Uiso   1.00
O357   O     0.83334   0.68453   0.28974   0.00000  Uiso   1.00
O358   O     0.83333   0.81546   0.21026   0.00000  Uiso   1.00
O359   O     0.83334   0.68453   0.21026   0.00000  Uiso   1.00
O360   O     0.83333   0.81547   0.28974   0.00000  Uiso   1.00
O361   O     0.75725   0.75000   0.28045   0.00000  Uiso   1.00
O362   O     0.90942   0.75000   0.21956   0.00000  Uiso   1.00
O363   O     0.75725   0.74999   0.20096   0.00000  Uiso   1.00
O364   O     0.90942   0.75000   0.29904   0.00000  Uiso   1.00
Zn365  Zn    0.83333   0.75000   0.30307   0.00000  Uiso   1.00
Zn366  Zn    0.83333   0.74999   0.19693   0.00000  Uiso   1.00
N367   N     0.87531   0.61270   0.17648   0.00000  Uiso   1.00
H368   H     0.85456   0.60397   0.14308   0.00000  Uiso   1.00
H369   H     0.91346   0.60028   0.17832   0.00000  Uiso   1.00
N370   N     0.88051   0.88679   0.33363   0.00000  Uiso   1.00
H371   H     0.91544   0.87371   0.32479   0.00000  Uiso   1.00
H372   H     0.89111   0.90972   0.36141   0.00000  Uiso   1.00
C373   C     0.16694   0.16381   0.74976   0.00000  Uiso   1.00
C374   C     0.16716   0.33616   0.75033   0.00000  Uiso   1.00
C375   C     0.14580   0.21400   0.54940   0.00000  Uiso   1.00
C376   C     0.20675   0.27130   0.95304   0.00000  Uiso   1.00
C377   C     0.14600   0.21476   0.59907   0.00000  Uiso   1.00
C378   C     0.20586   0.27104   0.90329   0.00000  Uiso   1.00
C379   C     0.18749   0.28515   0.60541   0.00000  Uiso   1.00
C380   C     0.12750   0.22898   0.89220   0.00000  Uiso   1.00
C381   C     0.18778   0.28587   0.55583   0.00000  Uiso   1.00
C382   C     0.12670   0.22868   0.94172   0.00000  Uiso   1.00
C383   C     0.16678   0.24994   0.52668   0.00000  Uiso   1.00
C384   C     0.16675   0.24997   0.97332   0.00000  Uiso   1.00
C385   C     0.06700   0.24999   0.73753   0.00000  Uiso   1.00
C386   C     0.26634   0.25001   0.76248   0.00000  Uiso   1.00
C387   C     0.01198   0.24999   0.73080   0.00000  Uiso   1.00
C388   C     0.32136   0.25001   0.76922   0.00000  Uiso   1.00
C389   C     0.13984   0.04817   0.78438   0.00000  Uiso   1.00
C390   C     0.13826   0.45165   0.70916   0.00000  Uiso   1.00
C391   C     0.14306   0.09405   0.78464   0.00000  Uiso   1.00
C392   C     0.14171   0.40581   0.70965   0.00000  Uiso   1.00
C393   C     0.16517   0.11576   0.74886   0.00000  Uiso   1.00
C394   C     0.16583   0.38418   0.75079   0.00000  Uiso   1.00
C395   C     0.18417   0.09122   0.71240   0.00000  Uiso   1.00
C396   C     0.18706   0.40867   0.79195   0.00000  Uiso   1.00
C397   C     0.18046   0.04513   0.71234   0.00000  Uiso   1.00
C398   C     0.18292   0.45483   0.79108   0.00000  Uiso   1.00
C399   C     0.15864   0.02388   0.74832   0.00000  Uiso   1.00
C400   C     0.15886   0.47598   0.74981   0.00000  Uiso   1.00
H401   H     0.32467   0.24998   0.69436   0.00000  Uiso   1.00
H402   H     0.00866   0.25001   0.80566   0.00000  Uiso   1.00
H403   H     0.12292   0.03156   0.81226   0.00000  Uiso   1.00
H404   H     0.11966   0.46820   0.67718   0.00000  Uiso   1.00
H405   H     0.12790   0.11257   0.81261   0.00000  Uiso   1.00
H406   H     0.12501   0.38723   0.67803   0.00000  Uiso   1.00
H407   H     0.19597   0.02588   0.68506   0.00000  Uiso   1.00
H408   H     0.19982   0.47442   0.82191   0.00000  Uiso   1.00
H409   H     0.12994   0.18508   0.52919   0.00000  Uiso   1.00
H410   H     0.23907   0.28761   0.97537   0.00000  Uiso   1.00
H411   H     0.12969   0.18696   0.61592   0.00000  Uiso   1.00
H412   H     0.23677   0.28760   0.88825   0.00000  Uiso   1.00
H413   H     0.20388   0.31293   0.62724   0.00000  Uiso   1.00
H414   H     0.09655   0.21242   0.86845   0.00000  Uiso   1.00
H415   H     0.20370   0.31477   0.54052   0.00000  Uiso   1.00
H416   H     0.09441   0.21237   0.95492   0.00000  Uiso   1.00
N417   N     0.16667   0.24999   0.62624   0.00000  Uiso   1.00
N418   N     0.16667   0.25001   0.87377   0.00000  Uiso   1.00
O419   O     0.16667   0.18453   0.78974   0.00000  Uiso   1.00
O420   O     0.16666   0.31546   0.71026   0.00000  Uiso   1.00
O421   O     0.16667   0.18453   0.71026   0.00000  Uiso   1.00
O422   O     0.16666   0.31547   0.78974   0.00000  Uiso   1.00
O423   O     0.09058   0.25000   0.78045   0.00000  Uiso   1.00
O424   O     0.24275   0.25000   0.71956   0.00000  Uiso   1.00
O425   O     0.09058   0.24999   0.70096   0.00000  Uiso   1.00
O426   O     0.24275   0.25000   0.79904   0.00000  Uiso   1.00
Zn427  Zn    0.16667   0.25000   0.80307   0.00000  Uiso   1.00
Zn428  Zn    0.16667   0.24999   0.69693   0.00000  Uiso   1.00
N429   N     0.20864   0.11270   0.67648   0.00000  Uiso   1.00
H430   H     0.18789   0.10397   0.64308   0.00000  Uiso   1.00
H431   H     0.24679   0.10028   0.67832   0.00000  Uiso   1.00
N432   N     0.21384   0.38679   0.83363   0.00000  Uiso   1.00
H433   H     0.24877   0.37371   0.82479   0.00000  Uiso   1.00
H434   H     0.22444   0.40972   0.86141   0.00000  Uiso   1.00
C435   C     0.50028   0.16381   0.74976   0.00000  Uiso   1.00
C436   C     0.50049   0.33616   0.75033   0.00000  Uiso   1.00
C437   C     0.47914   0.21400   0.54940   0.00000  Uiso   1.00
C438   C     0.54009   0.27130   0.95304   0.00000  Uiso   1.00
C439   C     0.47933   0.21476   0.59907   0.00000  Uiso   1.00
C440   C     0.53919   0.27104   0.90329   0.00000  Uiso   1.00
C441   C     0.52082   0.28515   0.60541   0.00000  Uiso   1.00
C442   C     0.46083   0.22898   0.89220   0.00000  Uiso   1.00
C443   C     0.52111   0.28587   0.55583   0.00000  Uiso   1.00
C444   C     0.46003   0.22868   0.94172   0.00000  Uiso   1.00
C445   C     0.50012   0.24994   0.52668   0.00000  Uiso   1.00
C446   C     0.50009   0.24997   0.97332   0.00000  Uiso   1.00
C447   C     0.40033   0.24999   0.73753   0.00000  Uiso   1.00
C448   C     0.59967   0.25001   0.76248   0.00000  Uiso   1.00
C449   C     0.34531   0.24999   0.73080   0.00000  Uiso   1.00
C450   C     0.65469   0.25001   0.76922   0.00000  Uiso   1.00
C451   C     0.47318   0.04817   0.78438   0.00000  Uiso   1.00
C452   C     0.47159   0.45165   0.70916   0.00000  Uiso   1.00
C453   C     0.47640   0.09405   0.78464   0.00000  Uiso   1.00
C454   C     0.47504   0.40581   0.70965   0.00000  Uiso   1.00
C455   C     0.49850   0.11576   0.74886   0.00000  Uiso   1.00
C456   C     0.49916   0.38418   0.75079   0.00000  Uiso   1.00
C457   C     0.51751   0.09122   0.71240   0.00000  Uiso   1.00
C458   C     0.52040   0.40867   0.79195   0.00000  Uiso   1.00
C459   C     0.51380   0.04513   0.71234   0.00000  Uiso   1.00
C460   C     0.51625   0.45483   0.79108   0.00000  Uiso   1.00
C461   C     0.49197   0.02388   0.74832   0.00000  Uiso   1.00
C462   C     0.49219   0.47598   0.74981   0.00000  Uiso   1.00
H463   H     0.65800   0.24998   0.69436   0.00000  Uiso   1.00
H464   H     0.34199   0.25001   0.80566   0.00000  Uiso   1.00
H465   H     0.45625   0.03156   0.81226   0.00000  Uiso   1.00
H466   H     0.45300   0.46820   0.67718   0.00000  Uiso   1.00
H467   H     0.46124   0.11257   0.81261   0.00000  Uiso   1.00
H468   H     0.45835   0.38723   0.67803   0.00000  Uiso   1.00
H469   H     0.52930   0.02588   0.68506   0.00000  Uiso   1.00
H470   H     0.53315   0.47442   0.82191   0.00000  Uiso   1.00
H471   H     0.46327   0.18508   0.52919   0.00000  Uiso   1.00
H472   H     0.57240   0.28761   0.97537   0.00000  Uiso   1.00
H473   H     0.46302   0.18696   0.61592   0.00000  Uiso   1.00
H474   H     0.57010   0.28760   0.88825   0.00000  Uiso   1.00
H475   H     0.53721   0.31293   0.62724   0.00000  Uiso   1.00
H476   H     0.42988   0.21242   0.86845   0.00000  Uiso   1.00
H477   H     0.53704   0.31477   0.54052   0.00000  Uiso   1.00
H478   H     0.42774   0.21237   0.95492   0.00000  Uiso   1.00
N479   N     0.50000   0.24999   0.62624   0.00000  Uiso   1.00
N480   N     0.50000   0.25001   0.87377   0.00000  Uiso   1.00
O481   O     0.50000   0.18453   0.78974   0.00000  Uiso   1.00
O482   O     0.50000   0.31546   0.71026   0.00000  Uiso   1.00
O483   O     0.50000   0.18453   0.71026   0.00000  Uiso   1.00
O484   O     0.50000   0.31547   0.78974   0.00000  Uiso   1.00
O485   O     0.42392   0.25000   0.78045   0.00000  Uiso   1.00
O486   O     0.57608   0.25000   0.71956   0.00000  Uiso   1.00
O487   O     0.42392   0.24999   0.70096   0.00000  Uiso   1.00
O488   O     0.57608   0.25000   0.79904   0.00000  Uiso   1.00
Zn489  Zn    0.50000   0.25000   0.80307   0.00000  Uiso   1.00
Zn490  Zn    0.50000   0.24999   0.69693   0.00000  Uiso   1.00
N491   N     0.54197   0.11270   0.67648   0.00000  Uiso   1.00
H492   H     0.52123   0.10397   0.64308   0.00000  Uiso   1.00
H493   H     0.58013   0.10028   0.67832   0.00000  Uiso   1.00
N494   N     0.54718   0.38679   0.83363   0.00000  Uiso   1.00
H495   H     0.58210   0.37371   0.82479   0.00000  Uiso   1.00
H496   H     0.55777   0.40972   0.86141   0.00000  Uiso   1.00
C497   C     0.83361   0.16381   0.74976   0.00000  Uiso   1.00
C498   C     0.83383   0.33616   0.75033   0.00000  Uiso   1.00
C499   C     0.81247   0.21400   0.54940   0.00000  Uiso   1.00
C500   C     0.87342   0.27130   0.95304   0.00000  Uiso   1.00
C501   C     0.81267   0.21476   0.59907   0.00000  Uiso   1.00
C502   C     0.87253   0.27104   0.90329   0.00000  Uiso   1.00
C503   C     0.85415   0.28515   0.60541   0.00000  Uiso   1.00
C504   C     0.79417   0.22898   0.89220   0.00000  Uiso   1.00
C505   C     0.85444   0.28587   0.55583   0.00000  Uiso   1.00
C506   C     0.79336   0.22868   0.94172   0.00000  Uiso   1.00
C507   C     0.83345   0.24994   0.52668   0.00000  Uiso   1.00
C508   C     0.83342   0.24997   0.97332   0.00000  Uiso   1.00
C509   C     0.73366   0.24999   0.73753   0.00000  Uiso   1.00
C510   C     0.93301   0.25001   0.76248   0.00000  Uiso   1.00
C511   C     0.67865   0.24999   0.73080   0.00000  Uiso   1.00
C512   C     0.98802   0.25001   0.76922   0.00000  Uiso   1.00
C513   C     0.80651   0.04817   0.78438   0.00000  Uiso   1.00
C514   C     0.80492   0.45165   0.70916   0.00000  Uiso   1.00
C515   C     0.80973   0.09405   0.78464   0.00000  Uiso   1.00
C516   C     0.80837   0.40581   0.70965   0.00000  Uiso   1.00
C517   C     0.83183   0.11576   0.74886   0.00000  Uiso   1.00
C518   C     0.83250   0.38418   0.75079   0.00000  Uiso   1.00
C519   C     0.85084   0.09122   0.71240   0.00000  Uiso   1.00
C520   C     0.85373   0.40867   0.79195   0.00000  Uiso   1.00
C521   C     0.84713   0.04513   0.71234   0.00000  Uiso   1.00
C522   C     0.84959   0.45483   0.79108   0.00000  Uiso   1.00
C523   C     0.82531   0.02388   0.74832   0.00000  Uiso   1.00
C524   C     0.82553   0.47598   0.74981   0.00000  Uiso   1.00
H525   H     0.99134   0.24998   0.69436   0.00000  Uiso   1.00
H526   H     0.67533   0.25001   0.80566   0.00000  Uiso   1.00
H527   H     0.78959   0.03156   0.81226   0.00000  Uiso   1.00
H528   H     0.78633   0.46820   0.67718   0.00000  Uiso   1.00
H529   H     0.79457   0.11257   0.81261   0.00000  Uiso   1.00
H530   H     0.79168   0.38723   0.67803   0.00000  Uiso   1.00
H531   H     0.86264   0.02588   0.68506   0.00000  Uiso   1.00
H532   H     0.86649   0.47442   0.82191   0.00000  Uiso   1.00
H533   H     0.79661   0.18508   0.52919   0.00000  Uiso   1.00
H534   H     0.90574   0.28761   0.97537   0.00000  Uiso   1.00
H535   H     0.79636   0.18696   0.61592   0.00000  Uiso   1.00
H536   H     0.90344   0.28760   0.88825   0.00000  Uiso   1.00
H537   H     0.87054   0.31293   0.62724   0.00000  Uiso   1.00
H538   H     0.76322   0.21242   0.86845   0.00000  Uiso   1.00
H539   H     0.87037   0.31477   0.54052   0.00000  Uiso   1.00
H540   H     0.76107   0.21237   0.95492   0.00000  Uiso   1.00
N541   N     0.83333   0.24999   0.62624   0.00000  Uiso   1.00
N542   N     0.83333   0.25001   0.87377   0.00000  Uiso   1.00
O543   O     0.83334   0.18453   0.78974   0.00000  Uiso   1.00
O544   O     0.83333   0.31546   0.71026   0.00000  Uiso   1.00
O545   O     0.83334   0.18453   0.71026   0.00000  Uiso   1.00
O546   O     0.83333   0.31547   0.78974   0.00000  Uiso   1.00
O547   O     0.75725   0.25000   0.78045   0.00000  Uiso   1.00
O548   O     0.90942   0.25000   0.71956   0.00000  Uiso   1.00
O549   O     0.75725   0.24999   0.70096   0.00000  Uiso   1.00
O550   O     0.90942   0.25000   0.79904   0.00000  Uiso   1.00
Zn551  Zn    0.83333   0.25000   0.80307   0.00000  Uiso   1.00
Zn552  Zn    0.83333   0.24999   0.69693   0.00000  Uiso   1.00
N553   N     0.87531   0.11270   0.67648   0.00000  Uiso   1.00
H554   H     0.85456   0.10397   0.64308   0.00000  Uiso   1.00
H555   H     0.91346   0.10028   0.67832   0.00000  Uiso   1.00
N556   N     0.88051   0.38679   0.83363   0.00000  Uiso   1.00
H557   H     0.91544   0.37371   0.82479   0.00000  Uiso   1.00
H558   H     0.89111   0.40972   0.86141   0.00000  Uiso   1.00
C559   C     0.16694   0.66381   0.74976   0.00000  Uiso   1.00
C560   C     0.16716   0.83616   0.75033   0.00000  Uiso   1.00
C561   C     0.14580   0.71400   0.54940   0.00000  Uiso   1.00
C562   C     0.20675   0.77130   0.95304   0.00000  Uiso   1.00
C563   C     0.14600   0.71476   0.59907   0.00000  Uiso   1.00
C564   C     0.20586   0.77104   0.90329   0.00000  Uiso   1.00
C565   C     0.18749   0.78515   0.60541   0.00000  Uiso   1.00
C566   C     0.12750   0.72898   0.89220   0.00000  Uiso   1.00
C567   C     0.18778   0.78587   0.55583   0.00000  Uiso   1.00
C568   C     0.12670   0.72868   0.94172   0.00000  Uiso   1.00
C569   C     0.16678   0.74994   0.52668   0.00000  Uiso   1.00
C570   C     0.16675   0.74997   0.97332   0.00000  Uiso   1.00
C571   C     0.06700   0.74999   0.73753   0.00000  Uiso   1.00
C572   C     0.26634   0.75001   0.76248   0.00000  Uiso   1.00
C573   C     0.01198   0.74999   0.73080   0.00000  Uiso   1.00
C574   C     0.32136   0.75001   0.76922   0.00000  Uiso   1.00
C575   C     0.13984   0.54817   0.78438   0.00000  Uiso   1.00
C576   C     0.13826   0.95165   0.70916   0.00000  Uiso   1.00
C577   C     0.14306   0.59405   0.78464   0.00000  Uiso   1.00
C578   C     0.14171   0.90581   0.70965   0.00000  Uiso   1.00
C579   C     0.16517   0.61576   0.74886   0.00000  Uiso   1.00
C580   C     0.16583   0.88418   0.75079   0.00000  Uiso   1.00
C581   C     0.18417   0.59122   0.71240   0.00000  Uiso   1.00
C582   C     0.18706   0.90867   0.79195   0.00000  Uiso   1.00
C583   C     0.18046   0.54513   0.71234   0.00000  Uiso   1.00
C584   C     0.18292   0.95483   0.79108   0.00000  Uiso   1.00
C585   C     0.15864   0.52388   0.74832   0.00000  Uiso   1.00
C586   C     0.15886   0.97598   0.74981   0.00000  Uiso   1.00
H587   H     0.32467   0.74998   0.69436   0.00000  Uiso   1.00
H588   H     0.00866   0.75001   0.80566   0.00000  Uiso   1.00
H589   H     0.12292   0.53156   0.81226   0.00000  Uiso   1.00
H590   H     0.11966   0.96820   0.67718   0.00000  Uiso   1.00
H591   H     0.12790   0.61257   0.81261   0.00000  Uiso   1.00
H592   H     0.12501   0.88723   0.67803   0.00000  Uiso   1.00
H593   H     0.19597   0.52588   0.68506   0.00000  Uiso   1.00
H594   H     0.19982   0.97442   0.82191   0.00000  Uiso   1.00
H595   H     0.12994   0.68508   0.52919   0.00000  Uiso   1.00
H596   H     0.23907   0.78761   0.97537   0.00000  Uiso   1.00
H597   H     0.12969   0.68696   0.61592   0.00000  Uiso   1.00
H598   H     0.23677   0.78760   0.88825   0.00000  Uiso   1.00
H599   H     0.20388   0.81293   0.62724   0.00000  Uiso   1.00
H600   H     0.09655   0.71242   0.86845   0.00000  Uiso   1.00
H601   H     0.20370   0.81477   0.54052   0.00000  Uiso   1.00
H602   H     0.09441   0.71237   0.95492   0.00000  Uiso   1.00
N603   N     0.16667   0.74999   0.62624   0.00000  Uiso   1.00
N604   N     0.16667   0.75001   0.87377   0.00000  Uiso   1.00
O605   O     0.16667   0.68453   0.78974   0.00000  Uiso   1.00
O606   O     0.16666   0.81546   0.71026   0.00000  Uiso   1.00
O607   O     0.16667   0.68453   0.71026   0.00000  Uiso   1.00
O608   O     0.16666   0.81547   0.78974   0.00000  Uiso   1.00
O609   O     0.09058   0.75000   0.78045   0.00000  Uiso   1.00
O610   O     0.24275   0.75000   0.71956   0.00000  Uiso   1.00
O611   O     0.09058   0.74999   0.70096   0.00000  Uiso   1.00
O612   O     0.24275   0.75000   0.79904   0.00000  Uiso   1.00
Zn613  Zn    0.16667   0.75000   0.80307   0.00000  Uiso   1.00
Zn614  Zn    0.16667   0.74999   0.69693   0.00000  Uiso   1.00
N615   N     0.20864   0.61270   0.67648   0.00000  Uiso   1.00
H616   H     0.18789   0.60397   0.64308   0.00000  Uiso   1.00
H617   H     0.24679   0.60028   0.67832   0.00000  Uiso   1.00
N618   N     0.21384   0.88679   0.83363   0.00000  Uiso   1.00
H619   H     0.24877   0.87371   0.82479   0.00000  Uiso   1.00
H620   H     0.22444   0.90972   0.86141   0.00000  Uiso   1.00
C621   C     0.50028   0.66381   0.74976   0.00000  Uiso   1.00
C622   C     0.50049   0.83616   0.75033   0.00000  Uiso   1.00
C623   C     0.47914   0.71400   0.54940   0.00000  Uiso   1.00
C624   C     0.54009   0.77130   0.95304   0.00000  Uiso   1.00
C625   C     0.47933   0.71476   0.59907   0.00000  Uiso   1.00
C626   C     0.53919   0.77104   0.90329   0.00000  Uiso   1.00
C627   C     0.52082   0.78515   0.60541   0.00000  Uiso   1.00
C628   C     0.46083   0.72898   0.89220   0.00000  Uiso   1.00
C629   C     0.52111   0.78587   0.55583   0.00000  Uiso   1.00
C630   C     0.46003   0.72868   0.94172   0.00000  Uiso   1.00
C631   C     0.50012   0.74994   0.52668   0.00000  Uiso   1.00
C632   C     0.50009   0.74997   0.97332   0.00000  Uiso   1.00
C633   C     0.40033   0.74999   0.73753   0.00000  Uiso   1.00
C634   C     0.59967   0.75001   0.76248   0.00000  Uiso   1.00
C635   C     0.34531   0.74999   0.73080   0.00000  Uiso   1.00
C636   C     0.65469   0.75001   0.76922   0.00000  Uiso   1.00
C637   C     0.47318   0.54817   0.78438   0.00000  Uiso   1.00
C638   C     0.47159   0.95165   0.70916   0.00000  Uiso   1.00
C639   C     0.47640   0.59405   0.78464   0.00000  Uiso   1.00
C640   C     0.47504   0.90581   0.70965   0.00000  Uiso   1.00
C641   C     0.49850   0.61576   0.74886   0.00000  Uiso   1.00
C642   C     0.49916   0.88418   0.75079   0.00000  Uiso   1.00
C643   C     0.51751   0.59122   0.71240   0.00000  Uiso   1.00
C644   C     0.52040   0.90867   0.79195   0.00000  Uiso   1.00
C645   C     0.51380   0.54513   0.71234   0.00000  Uiso   1.00
C646   C     0.51625   0.95483   0.79108   0.00000  Uiso   1.00
C647   C     0.49197   0.52388   0.74832   0.00000  Uiso   1.00
C648   C     0.49219   0.97598   0.74981   0.00000  Uiso   1.00
H649   H     0.65800   0.74998   0.69436   0.00000  Uiso   1.00
H650   H     0.34199   0.75001   0.80566   0.00000  Uiso   1.00
H651   H     0.45625   0.53156   0.81226   0.00000  Uiso   1.00
H652   H     0.45300   0.96820   0.67718   0.00000  Uiso   1.00
H653   H     0.46124   0.61257   0.81261   0.00000  Uiso   1.00
H654   H     0.45835   0.88723   0.67803   0.00000  Uiso   1.00
H655   H     0.52930   0.52588   0.68506   0.00000  Uiso   1.00
H656   H     0.53315   0.97442   0.82191   0.00000  Uiso   1.00
H657   H     0.46327   0.68508   0.52919   0.00000  Uiso   1.00
H658   H     0.57240   0.78761   0.97537   0.00000  Uiso   1.00
H659   H     0.46302   0.68696   0.61592   0.00000  Uiso   1.00
H660   H     0.57010   0.78760   0.88825   0.00000  Uiso   1.00
H661   H     0.53721   0.81293   0.62724   0.00000  Uiso   1.00
H662   H     0.42988   0.71242   0.86845   0.00000  Uiso   1.00
H663   H     0.53704   0.81477   0.54052   0.00000  Uiso   1.00
H664   H     0.42774   0.71237   0.95492   0.00000  Uiso   1.00
N665   N     0.50000   0.74999   0.62624   0.00000  Uiso   1.00
N666   N     0.50000   0.75001   0.87377   0.00000  Uiso   1.00
O667   O     0.50000   0.68453   0.78974   0.00000  Uiso   1.00
O668   O     0.50000   0.81546   0.71026   0.00000  Uiso   1.00
O669   O     0.50000   0.68453   0.71026   0.00000  Uiso   1.00
O670   O     0.50000   0.81547   0.78974   0.00000  Uiso   1.00
O671   O     0.42392   0.75000   0.78045   0.00000  Uiso   1.00
O672   O     0.57608   0.75000   0.71956   0.00000  Uiso   1.00
O673   O     0.42392   0.74999   0.70096   0.00000  Uiso   1.00
O674   O     0.57608   0.75000   0.79904   0.00000  Uiso   1.00
Zn675  Zn    0.50000   0.75000   0.80307   0.00000  Uiso   1.00
Zn676  Zn    0.50000   0.74999   0.69693   0.00000  Uiso   1.00
N677   N     0.54197   0.61270   0.67648   0.00000  Uiso   1.00
H678   H     0.52123   0.60397   0.64308   0.00000  Uiso   1.00
H679   H     0.58013   0.60028   0.67832   0.00000  Uiso   1.00
N680   N     0.54718   0.88679   0.83363   0.00000  Uiso   1.00
H681   H     0.58210   0.87371   0.82479   0.00000  Uiso   1.00
H682   H     0.55777   0.90972   0.86141   0.00000  Uiso   1.00
C683   C     0.83361   0.66381   0.74976   0.00000  Uiso   1.00
C684   C     0.83383   0.83616   0.75033   0.00000  Uiso   1.00
C685   C     0.81247   0.71400   0.54940   0.00000  Uiso   1.00
C686   C     0.87342   0.77130   0.95304   0.00000  Uiso   1.00
C687   C     0.81267   0.71476   0.59907   0.00000  Uiso   1.00
C688   C     0.87253   0.77104   0.90329   0.00000  Uiso   1.00
C689   C     0.85415   0.78515   0.60541   0.00000  Uiso   1.00
C690   C     0.79417   0.72898   0.89220   0.00000  Uiso   1.00
C691   C     0.85444   0.78587   0.55583   0.00000  Uiso   1.00
C692   C     0.79336   0.72868   0.94172   0.00000  Uiso   1.00
C693   C     0.83345   0.74994   0.52668   0.00000  Uiso   1.00
C694   C     0.83342   0.74997   0.97332   0.00000  Uiso   1.00
C695   C     0.73366   0.74999   0.73753   0.00000  Uiso   1.00
C696   C     0.93301   0.75001   0.76248   0.00000  Uiso   1.00
C697   C     0.67865   0.74999   0.73080   0.00000  Uiso   1.00
C698   C     0.98802   0.75001   0.76922   0.00000  Uiso   1.00
C699   C     0.80651   0.54817   0.78438   0.00000  Uiso   1.00
C700   C     0.80492   0.95165   0.70916   0.00000  Uiso   1.00
C701   C     0.80973   0.59405   0.78464   0.00000  Uiso   1.00
C702   C     0.80837   0.90581   0.70965   0.00000  Uiso   1.00
C703   C     0.83183   0.61576   0.74886   0.00000  Uiso   1.00
C704   C     0.83250   0.88418   0.75079   0.00000  Uiso   1.00
C705   C     0.85084   0.59122   0.71240   0.00000  Uiso   1.00
C706   C     0.85373   0.90867   0.79195   0.00000  Uiso   1.00
C707   C     0.84713   0.54513   0.71234   0.00000  Uiso   1.00
C708   C     0.84959   0.95483   0.79108   0.00000  Uiso   1.00
C709   C     0.82531   0.52388   0.74832   0.00000  Uiso   1.00
C710   C     0.82553   0.97598   0.74981   0.00000  Uiso   1.00
H711   H     0.99134   0.74998   0.69436   0.00000  Uiso   1.00
H712   H     0.67533   0.75001   0.80566   0.00000  Uiso   1.00
H713   H     0.78959   0.53156   0.81226   0.00000  Uiso   1.00
H714   H     0.78633   0.96820   0.67718   0.00000  Uiso   1.00
H715   H     0.79457   0.61257   0.81261   0.00000  Uiso   1.00
H716   H     0.79168   0.88723   0.67803   0.00000  Uiso   1.00
H717   H     0.86264   0.52588   0.68506   0.00000  Uiso   1.00
H718   H     0.86649   0.97442   0.82191   0.00000  Uiso   1.00
H719   H     0.79661   0.68508   0.52919   0.00000  Uiso   1.00
H720   H     0.90574   0.78761   0.97537   0.00000  Uiso   1.00
H721   H     0.79636   0.68696   0.61592   0.00000  Uiso   1.00
H722   H     0.90344   0.78760   0.88825   0.00000  Uiso   1.00
H723   H     0.87054   0.81293   0.62724   0.00000  Uiso   1.00
H724   H     0.76322   0.71242   0.86845   0.00000  Uiso   1.00
H725   H     0.87037   0.81477   0.54052   0.00000  Uiso   1.00
H726   H     0.76107   0.71237   0.95492   0.00000  Uiso   1.00
N727   N     0.83333   0.74999   0.62624   0.00000  Uiso   1.00
N728   N     0.83333   0.75001   0.87377   0.00000  Uiso   1.00
O729   O     0.83334   0.68453   0.78974   0.00000  Uiso   1.00
O730   O     0.83333   0.81546   0.71026   0.00000  Uiso   1.00
O731   O     0.83334   0.68453   0.71026   0.00000  Uiso   1.00
O732   O     0.83333   0.81547   0.78974   0.00000  Uiso   1.00
O733   O     0.75725   0.75000   0.78045   0.00000  Uiso   1.00
O734   O     0.90942   0.75000   0.71956   0.00000  Uiso   1.00
O735   O     0.75725   0.74999   0.70096   0.00000  Uiso   1.00
O736   O     0.90942   0.75000   0.79904   0.00000  Uiso   1.00
Zn737  Zn    0.83333   0.75000   0.80307   0.00000  Uiso   1.00
Zn738  Zn    0.83333   0.74999   0.69693   0.00000  Uiso   1.00
N739   N     0.87531   0.61270   0.67648   0.00000  Uiso   1.00
H740   H     0.85456   0.60397   0.64308   0.00000  Uiso   1.00
H741   H     0.91346   0.60028   0.67832   0.00000  Uiso   1.00
N742   N     0.88051   0.88679   0.83363   0.00000  Uiso   1.00
H743   H     0.91544   0.87371   0.82479   0.00000  Uiso   1.00
H744   H     0.89111   0.90972   0.86141   0.00000  Uiso   1.00
loop_
_geom_bond_atom_site_label_1
_geom_bond_atom_site_label_2
_geom_bond_distance
_geom_bond_site_symmetry_2
_ccdc_geom_bond_type
C1     C21     1.443   .     S
C1     O47     1.288   .     A
C1     O49     1.284   .     A
C2     C22     1.442   .     S
C2     O50     1.284   .     A
C2     O48     1.288   .     A
C3     C11     1.410   .     A
C3     C5      1.407   .     A
C3     H37     1.082   .     S
C4     C12     1.411   .     A
C4     C6      1.407   .     A
C4     H38     1.082   .     S
C5     H39     1.082   .     S
C5     N45     1.363   .     A
C6     N46     1.363   .     A
C6     H40     1.082   .     S
C7     N45     1.363   .     A
C7     C9      1.406   .     A
C7     H41     1.081   .     S
C8     H42     1.082   .     S
C8     N46     1.363   .     A
C8     C10     1.406   .     A
C9     C11     1.410   .     A
C9     H43     1.082   .     S
C10    C12     1.410   .     A
C10    H44     1.082   .     S
C11    C384    1.512   1_554 S
C12    C383    1.512   .     S
C13    C15     1.402   .     S
C13    O53     1.278   .     A
C13    O51     1.275   .     A
C14    O52     1.275   .     A
C14    C16     1.402   .     S
C14    O54     1.278   .     A
C15    C140    1.330   1_455 S
C15    H153    1.088   1_455 S
C16    C77     1.330   .     S
C16    H92     1.088   .     S
C17    H31     1.084   .     S
C17    C27     1.395   .     A
C17    C19     1.380   .     A
C18    H32     1.084   .     S
C18    C28     1.394   .     A
C18    C20     1.379   .     A
C19    H33     1.084   .     S
C19    C21     1.401   .     A
C20    H34     1.084   .     S
C20    C22     1.401   .     A
C21    C23     1.410   .     A
C22    C24     1.412   .     A
C23    C25     1.387   .     A
C23    N57     1.434   .     S
C24    N60     1.439   .     S
C24    C26     1.390   .     A
C25    C27     1.396   .     A
C25    H35     1.084   .     S
C26    C28     1.396   .     A
C26    H36     1.084   .     S
C27    C214    1.439   1_545 S
C28    C213    1.439   .     S
H29    C77     1.088   .     S
H30    C140    1.088   1_455 S
N45    Zn56    2.003   .     S
N46    Zn55    2.003   .     S
O47    Zn55    1.998   .     S
O48    Zn56    1.998   .     S
O49    Zn56    2.004   .     S
O50    Zn55    2.004   .     S
O51    Zn55    1.970   .     S
O52    Zn56    1.970   .     S
O53    Zn56    1.982   .     S
O54    Zn55    1.982   .     S
N57    H58     1.046   .     S
N57    H59     1.046   .     S
N60    H62     1.046   .     S
N60    H61     1.046   .     S
C63    C83     1.443   .     S
C63    O109    1.288   .     A
C63    O111    1.284   .     A
C64    C84     1.442   .     S
C64    O112    1.284   .     A
C64    O110    1.288   .     A
C65    C73     1.410   .     A
C65    C67     1.407   .     A
C65    H99     1.082   .     S
C66    C74     1.411   .     A
C66    C68     1.407   .     A
C66    H100    1.082   .     S
C67    H101    1.082   .     S
C67    N107    1.363   .     A
C68    N108    1.363   .     A
C68    H102    1.082   .     S
C69    N107    1.363   .     A
C69    C71     1.406   .     A
C69    H103    1.081   .     S
C70    H104    1.082   .     S
C70    N108    1.363   .     A
C70    C72     1.406   .     A
C71    C73     1.410   .     A
C71    H105    1.082   .     S
C72    C74     1.410   .     A
C72    H106    1.082   .     S
C73    C446    1.512   1_554 S
C74    C445    1.512   .     S
C75    C77     1.402   .     S
C75    O115    1.278   .     A
C75    O113    1.275   .     A
C76    O114    1.275   .     A
C76    C78     1.402   .     S
C76    O116    1.278   .     A
C78    C139    1.330   .     S
C78    H154    1.088   .     S
C79    H93     1.084   .     S
C79    C89     1.395   .     A
C79    C81     1.380   .     A
C80    H94     1.084   .     S
C80    C90     1.394   .     A
C80    C82     1.379   .     A
C81    H95     1.084   .     S
C81    C83     1.401   .     A
C82    H96     1.084   .     S
C82    C84     1.401   .     A
C83    C85     1.410   .     A
C84    C86     1.412   .     A
C85    C87     1.387   .     A
C85    N119    1.434   .     S
C86    N122    1.439   .     S
C86    C88     1.390   .     A
C87    C89     1.396   .     A
C87    H97     1.084   .     S
C88    C90     1.396   .     A
C88    H98     1.084   .     S
C89    C276    1.439   1_545 S
C90    C275    1.439   .     S
H91    C139    1.088   .     S
N107   Zn118   2.003   .     S
N108   Zn117   2.003   .     S
O109   Zn117   1.998   .     S
O110   Zn118   1.998   .     S
O111   Zn118   2.004   .     S
O112   Zn117   2.004   .     S
O113   Zn117   1.970   .     S
O114   Zn118   1.970   .     S
O115   Zn118   1.982   .     S
O116   Zn117   1.982   .     S
N119   H120    1.046   .     S
N119   H121    1.046   .     S
N122   H124    1.046   .     S
N122   H123    1.046   .     S
C125   C145    1.443   .     S
C125   O171    1.288   .     A
C125   O173    1.284   .     A
C126   C146    1.442   .     S
C126   O174    1.284   .     A
C126   O172    1.288   .     A
C127   C135    1.410   .     A
C127   C129    1.407   .     A
C127   H161    1.082   .     S
C128   C136    1.411   .     A
C128   C130    1.407   .     A
C128   H162    1.082   .     S
C129   H163    1.082   .     S
C129   N169    1.363   .     A
C130   N170    1.363   .     A
C130   H164    1.082   .     S
C131   N169    1.363   .     A
C131   C133    1.406   .     A
C131   H165    1.081   .     S
C132   H166    1.082   .     S
C132   N170    1.363   .     A
C132   C134    1.406   .     A
C133   C135    1.410   .     A
C133   H167    1.082   .     S
C134   C136    1.410   .     A
C134   H168    1.082   .     S
C135   C508    1.512   1_554 S
C136   C507    1.512   .     S
C137   C139    1.402   .     S
C137   O177    1.278   .     A
C137   O175    1.275   .     A
C138   O176    1.275   .     A
C138   C140    1.402   .     S
C138   O178    1.278   .     A
C140   C15     1.330   1_655 S
C140   H30     1.088   1_655 S
C141   H155    1.084   .     S
C141   C151    1.395   .     A
C141   C143    1.380   .     A
C142   H156    1.084   .     S
C142   C152    1.394   .     A
C142   C144    1.379   .     A
C143   H157    1.084   .     S
C143   C145    1.401   .     A
C144   H158    1.084   .     S
C144   C146    1.401   .     A
C145   C147    1.410   .     A
C146   C148    1.412   .     A
C147   C149    1.387   .     A
C147   N181    1.434   .     S
C148   N184    1.439   .     S
C148   C150    1.390   .     A
C149   C151    1.396   .     A
C149   H159    1.084   .     S
C150   C152    1.396   .     A
C150   H160    1.084   .     S
C151   C338    1.439   1_545 S
C152   C337    1.439   .     S
H153   C15     1.088   1_655 S
N169   Zn180   2.003   .     S
N170   Zn179   2.003   .     S
O171   Zn179   1.998   .     S
O172   Zn180   1.998   .     S
O173   Zn180   2.004   .     S
O174   Zn179   2.004   .     S
O175   Zn179   1.970   .     S
O176   Zn180   1.970   .     S
O177   Zn180   1.982   .     S
O178   Zn179   1.982   .     S
N181   H182    1.046   .     S
N181   H183    1.046   .     S
N184   H186    1.046   .     S
N184   H185    1.046   .     S
C187   C207    1.443   .     S
C187   O233    1.288   .     A
C187   O235    1.284   .     A
C188   C208    1.442   .     S
C188   O236    1.284   .     A
C188   O234    1.288   .     A
C189   C197    1.410   .     A
C189   C191    1.407   .     A
C189   H223    1.082   .     S
C190   C198    1.411   .     A
C190   C192    1.407   .     A
C190   H224    1.082   .     S
C191   H225    1.082   .     S
C191   N231    1.363   .     A
C192   N232    1.363   .     A
C192   H226    1.082   .     S
C193   N231    1.363   .     A
C193   C195    1.406   .     A
C193   H227    1.081   .     S
C194   H228    1.082   .     S
C194   N232    1.363   .     A
C194   C196    1.406   .     A
C195   C197    1.410   .     A
C195   H229    1.082   .     S
C196   C198    1.410   .     A
C196   H230    1.082   .     S
C197   C570    1.512   1_554 S
C198   C569    1.512   .     S
C199   C201    1.402   .     S
C199   O239    1.278   .     A
C199   O237    1.275   .     A
C200   O238    1.275   .     A
C200   C202    1.402   .     S
C200   O240    1.278   .     A
C201   C326    1.330   1_455 S
C201   H339    1.088   1_455 S
C202   C263    1.330   .     S
C202   H278    1.088   .     S
C203   H217    1.084   .     S
C203   C213    1.395   .     A
C203   C205    1.380   .     A
C204   H218    1.084   .     S
C204   C214    1.394   .     A
C204   C206    1.379   .     A
C205   H219    1.084   .     S
C205   C207    1.401   .     A
C206   H220    1.084   .     S
C206   C208    1.401   .     A
C207   C209    1.410   .     A
C208   C210    1.412   .     A
C209   C211    1.387   .     A
C209   N243    1.434   .     S
C210   N246    1.439   .     S
C210   C212    1.390   .     A
C211   C213    1.396   .     A
C211   H221    1.084   .     S
C212   C214    1.396   .     A
C212   H222    1.084   .     S
C214   C27     1.439   1_565 S
H215   C263    1.088   .     S
H216   C326    1.088   1_455 S
N231   Zn242   2.003   .     S
N232   Zn241   2.003   .     S
O233   Zn241   1.998   .     S
O234   Zn242   1.998   .     S
O235   Zn242   2.004   .     S
O236   Zn241   2.004   .     S
O237   Zn241   1.970   .     S
O238   Zn242   1.970   .     S
O239   Zn242   1.982   .     S
O240   Zn241   1.982   .     S
N243   H244    1.046   .     S
N243   H245    1.046   .     S
N246   H248    1.046   .     S
N246   H247    1.046   .     S
C249   C269    1.443   .     S
C249   O295    1.288   .     A
C249   O297    1.284   .     A
C250   C270    1.442   .     S
C250   O298    1.284   .     A
C250   O296    1.288   .     A
C251   C259    1.410   .     A
C251   C253    1.407   .     A
C251   H285    1.082   .     S
C252   C260    1.411   .     A
C252   C254    1.407   .     A
C252   H286    1.082   .     S
C253   H287    1.082   .     S
C253   N293    1.363   .     A
C254   N294    1.363   .     A
C254   H288    1.082   .     S
C255   N293    1.363   .     A
C255   C257    1.406   .     A
C255   H289    1.081   .     S
C256   H290    1.082   .     S
C256   N294    1.363   .     A
C256   C258    1.406   .     A
C257   C259    1.410   .     A
C257   H291    1.082   .     S
C258   C260    1.410   .     A
C258   H292    1.082   .     S
C259   C632    1.512   1_554 S
C260   C631    1.512   .     S
C261   C263    1.402   .     S
C261   O301    1.278   .     A
C261   O299    1.275   .     A
C262   O300    1.275   .     A
C262   C264    1.402   .     S
C262   O302    1.278   .     A
C264   C325    1.330   .     S
C264   H340    1.088   .     S
C265   H279    1.084   .     S
C265   C275    1.395   .     A
C265   C267    1.380   .     A
C266   H280    1.084   .     S
C266   C276    1.394   .     A
C266   C268    1.379   .     A
C267   H281    1.084   .     S
C267   C269    1.401   .     A
C268   H282    1.084   .     S
C268   C270    1.401   .     A
C269   C271    1.410   .     A
C270   C272    1.412   .     A
C271   C273    1.387   .     A
C271   N305    1.434   .     S
C272   N308    1.439   .     S
C272   C274    1.390   .     A
C273   C275    1.396   .     A
C273   H283    1.084   .     S
C274   C276    1.396   .     A
C274   H284    1.084   .     S
C276   C89     1.439   1_565 S
H277   C325    1.088   .     S
N293   Zn304   2.003   .     S
N294   Zn303   2.003   .     S
O295   Zn303   1.998   .     S
O296   Zn304   1.998   .     S
O297   Zn304   2.004   .     S
O298   Zn303   2.004   .     S
O299   Zn303   1.970   .     S
O300   Zn304   1.970   .     S
O301   Zn304   1.982   .     S
O302   Zn303   1.982   .     S
N305   H306    1.046   .     S
N305   H307    1.046   .     S
N308   H310    1.046   .     S
N308   H309    1.046   .     S
C311   C331    1.443   .     S
C311   O357    1.288   .     A
C311   O359    1.284   .     A
C312   C332    1.442   .     S
C312   O360    1.284   .     A
C312   O358    1.288   .     A
C313   C321    1.410   .     A
C313   C315    1.407   .     A
C313   H347    1.082   .     S
C314   C322    1.411   .     A
C314   C316    1.407   .     A
C314   H348    1.082   .     S
C315   H349    1.082   .     S
C315   N355    1.363   .     A
C316   N356    1.363   .     A
C316   H350    1.082   .     S
C317   N355    1.363   .     A
C317   C319    1.406   .     A
C317   H351    1.081   .     S
C318   H352    1.082   .     S
C318   N356    1.363   .     A
C318   C320    1.406   .     A
C319   C321    1.410   .     A
C319   H353    1.082   .     S
C320   C322    1.410   .     A
C320   H354    1.082   .     S
C321   C694    1.512   1_554 S
C322   C693    1.512   .     S
C323   C325    1.402   .     S
C323   O363    1.278   .     A
C323   O361    1.275   .     A
C324   O362    1.275   .     A
C324   C326    1.402   .     S
C324   O364    1.278   .     A
C326   C201    1.330   1_655 S
C326   H216    1.088   1_655 S
C327   H341    1.084   .     S
C327   C337    1.395   .     A
C327   C329    1.380   .     A
C328   H342    1.084   .     S
C328   C338    1.394   .     A
C328   C330    1.379   .     A
C329   H343    1.084   .     S
C329   C331    1.401   .     A
C330   H344    1.084   .     S
C330   C332    1.401   .     A
C331   C333    1.410   .     A
C332   C334    1.412   .     A
C333   C335    1.387   .     A
C333   N367    1.434   .     S
C334   N370    1.439   .     S
C334   C336    1.390   .     A
C335   C337    1.396   .     A
C335   H345    1.084   .     S
C336   C338    1.396   .     A
C336   H346    1.084   .     S
C338   C151    1.439   1_565 S
H339   C201    1.088   1_655 S
N355   Zn366   2.003   .     S
N356   Zn365   2.003   .     S
O357   Zn365   1.998   .     S
O358   Zn366   1.998   .     S
O359   Zn366   2.004   .     S
O360   Zn365   2.004   .     S
O361   Zn365   1.970   .     S
O362   Zn366   1.970   .     S
O363   Zn366   1.982   .     S
O364   Zn365   1.982   .     S
N367   H368    1.046   .     S
N367   H369    1.046   .     S
N370   H372    1.046   .     S
N370   H371    1.046   .     S
C373   C393    1.443   .     S
C373   O419    1.288   .     A
C373   O421    1.284   .     A
C374   C394    1.442   .     S
C374   O422    1.284   .     A
C374   O420    1.288   .     A
C375   C383    1.410   .     A
C375   C377    1.407   .     A
C375   H409    1.082   .     S
C376   C384    1.411   .     A
C376   C378    1.407   .     A
C376   H410    1.082   .     S
C377   H411    1.082   .     S
C377   N417    1.363   .     A
C378   N418    1.363   .     A
C378   H412    1.082   .     S
C379   N417    1.363   .     A
C379   C381    1.406   .     A
C379   H413    1.081   .     S
C380   H414    1.082   .     S
C380   N418    1.363   .     A
C380   C382    1.406   .     A
C381   C383    1.410   .     A
C381   H415    1.082   .     S
C382   C384    1.410   .     A
C382   H416    1.082   .     S
C384   C11     1.512   1_556 S
C385   C387    1.402   .     S
C385   O425    1.278   .     A
C385   O423    1.275   .     A
C386   O424    1.275   .     A
C386   C388    1.402   .     S
C386   O426    1.278   .     A
C387   C512    1.330   1_455 S
C387   H525    1.088   1_455 S
C388   C449    1.330   .     S
C388   H464    1.088   .     S
C389   H403    1.084   .     S
C389   C399    1.395   .     A
C389   C391    1.380   .     A
C390   H404    1.084   .     S
C390   C400    1.394   .     A
C390   C392    1.379   .     A
C391   H405    1.084   .     S
C391   C393    1.401   .     A
C392   H406    1.084   .     S
C392   C394    1.401   .     A
C393   C395    1.410   .     A
C394   C396    1.412   .     A
C395   C397    1.387   .     A
C395   N429    1.434   .     S
C396   N432    1.439   .     S
C396   C398    1.390   .     A
C397   C399    1.396   .     A
C397   H407    1.084   .     S
C398   C400    1.396   .     A
C398   H408    1.084   .     S
C399   C586    1.439   1_545 S
C400   C585    1.439   .     S
H401   C449    1.088   .     S
H402   C512    1.088   1_455 S
N417   Zn428   2.003   .     S
N418   Zn427   2.003   .     S
O419   Zn427   1.998   .     S
O420   Zn428   1.998   .     S
O421   Zn428   2.004   .     S
O422   Zn427   2.004   .     S
O423   Zn427   1.970   .     S
O424   Zn428   1.970   .     S
O425   Zn428   1.982   .     S
O426   Zn427   1.982   .     S
N429   H430    1.046   .     S
N429   H431    1.046   .     S
N432   H434    1.046   .     S
N432   H433    1.046   .     S
C435   C455    1.443   .     S
C435   O481    1.288   .     A
C435   O483    1.284   .     A
C436   C456    1.442   .     S
C436   O484    1.284   .     A
C436   O482    1.288   .     A
C437   C445    1.410   .     A
C437   C439    1.407   .     A
C437   H471    1.082   .     S
C438   C446    1.411   .     A
C438   C440    1.407   .     A
C438   H472    1.082   .     S
C439   H473    1.082   .     S
C439   N479    1.363   .     A
C440   N480    1.363   .     A
C440   H474    1.082   .     S
C441   N479    1.363   .     A
C441   C443    1.406   .     A
C441   H475    1.081   .     S
C442   H476    1.082   .     S
C442   N480    1.363   .     A
C442   C444    1.406   .     A
C443   C445    1.410   .     A
C443   H477    1.082   .     S
C444   C446    1.410   .     A
C444   H478    1.082   .     S
C446   C73     1.512   1_556 S
C447   C449    1.402   .     S
C447   O487    1.278   .     A
C447   O485    1.275   .     A
C448   O486    1.275   .     A
C448   C450    1.402   .     S
C448   O488    1.278   .     A
C450   C511    1.330   .     S
C450   H526    1.088   .     S
C451   H465    1.084   .     S
C451   C461    1.395   .     A
C451   C453    1.380   .     A
C452   H466    1.084   .     S
C452   C462    1.394   .     A
C452   C454    1.379   .     A
C453   H467    1.084   .     S
C453   C455    1.401   .     A
C454   H468    1.084   .     S
C454   C456    1.401   .     A
C455   C457    1.410   .     A
C456   C458    1.412   .     A
C457   C459    1.387   .     A
C457   N491    1.434   .     S
C458   N494    1.439   .     S
C458   C460    1.390   .     A
C459   C461    1.396   .     A
C459   H469    1.084   .     S
C460   C462    1.396   .     A
C460   H470    1.084   .     S
C461   C648    1.439   1_545 S
C462   C647    1.439   .     S
H463   C511    1.088   .     S
N479   Zn490   2.003   .     S
N480   Zn489   2.003   .     S
O481   Zn489   1.998   .     S
O482   Zn490   1.998   .     S
O483   Zn490   2.004   .     S
O484   Zn489   2.004   .     S
O485   Zn489   1.970   .     S
O486   Zn490   1.970   .     S
O487   Zn490   1.982   .     S
O488   Zn489   1.982   .     S
N491   H492    1.046   .     S
N491   H493    1.046   .     S
N494   H496    1.046   .     S
N494   H495    1.046   .     S
C497   C517    1.443   .     S
C497   O543    1.288   .     A
C497   O545    1.284   .     A
C498   C518    1.442   .     S
C498   O546    1.284   .     A
C498   O544    1.288   .     A
C499   C507    1.410   .     A
C499   C501    1.407   .     A
C499   H533    1.082   .     S
C500   C508    1.411   .     A
C500   C502    1.407   .     A
C500   H534    1.082   .     S
C501   H535    1.082   .     S
C501   N541    1.363   .     A
C502   N542    1.363   .     A
C502   H536    1.082   .     S
C503   N541    1.363   .     A
C503   C505    1.406   .     A
C503   H537    1.081   .     S
C504   H538    1.082   .     S
C504   N542    1.363   .     A
C504   C506    1.406   .     A
C505   C507    1.410   .     A
C505   H539    1.082   .     S
C506   C508    1.410   .     A
C506   H540    1.082   .     S
C508   C135    1.512   1_556 S
C509   C511    1.402   .     S
C509   O549    1.278   .     A
C509   O547    1.275   .     A
C510   O548    1.275   .     A
C510   C512    1.402   .     S
C510   O550    1.278   .     A
C512   C387    1.330   1_655 S
C512   H402    1.088   1_655 S
C513   H527    1.084   .     S
C513   C523    1.395   .     A
C513   C515    1.380   .     A
C514   H528    1.084   .     S
C514   C524    1.394   .     A
C514   C516    1.379   .     A
C515   H529    1.084   .     S
C515   C517    1.401   .     A
C516   H530    1.084   .     S
C516   C518    1.401   .     A
C517   C519    1.410   .     A
C518   C520    1.412   .     A
C519   C521    1.387   .     A
C519   N553    1.434   .     S
C520   N556    1.439   .     S
C520   C522    1.390   .     A
C521   C523    1.396   .     A
C521   H531    1.084   .     S
C522   C524    1.396   .     A
C522   H532    1.084   .     S
C523   C710    1.439   1_545 S
C524   C709    1.439   .     S
H525   C387    1.088   1_655 S
N541   Zn552   2.003   .     S
N542   Zn551   2.003   .     S
O543   Zn551   1.998   .     S
O544   Zn552   1.998   .     S
O545   Zn552   2.004   .     S
O546   Zn551   2.004   .     S
O547   Zn551   1.970   .     S
O548   Zn552   1.970   .     S
O549   Zn552   1.982   .     S
O550   Zn551   1.982   .     S
N553   H554    1.046   .     S
N553   H555    1.046   .     S
N556   H558    1.046   .     S
N556   H557    1.046   .     S
C559   C579    1.443   .     S
C559   O605    1.288   .     A
C559   O607    1.284   .     A
C560   C580    1.442   .     S
C560   O608    1.284   .     A
C560   O606    1.288   .     A
C561   C569    1.410   .     A
C561   C563    1.407   .     A
C561   H595    1.082   .     S
C562   C570    1.411   .     A
C562   C564    1.407   .     A
C562   H596    1.082   .     S
C563   H597    1.082   .     S
C563   N603    1.363   .     A
C564   N604    1.363   .     A
C564   H598    1.082   .     S
C565   N603    1.363   .     A
C565   C567    1.406   .     A
C565   H599    1.081   .     S
C566   H600    1.082   .     S
C566   N604    1.363   .     A
C566   C568    1.406   .     A
C567   C569    1.410   .     A
C567   H601    1.082   .     S
C568   C570    1.410   .     A
C568   H602    1.082   .     S
C570   C197    1.512   1_556 S
C571   C573    1.402   .     S
C571   O611    1.278   .     A
C571   O609    1.275   .     A
C572   O610    1.275   .     A
C572   C574    1.402   .     S
C572   O612    1.278   .     A
C573   C698    1.330   1_455 S
C573   H711    1.088   1_455 S
C574   C635    1.330   .     S
C574   H650    1.088   .     S
C575   H589    1.084   .     S
C575   C585    1.395   .     A
C575   C577    1.380   .     A
C576   H590    1.084   .     S
C576   C586    1.394   .     A
C576   C578    1.379   .     A
C577   H591    1.084   .     S
C577   C579    1.401   .     A
C578   H592    1.084   .     S
C578   C580    1.401   .     A
C579   C581    1.410   .     A
C580   C582    1.412   .     A
C581   C583    1.387   .     A
C581   N615    1.434   .     S
C582   N618    1.439   .     S
C582   C584    1.390   .     A
C583   C585    1.396   .     A
C583   H593    1.084   .     S
C584   C586    1.396   .     A
C584   H594    1.084   .     S
C586   C399    1.439   1_565 S
H587   C635    1.088   .     S
H588   C698    1.088   1_455 S
N603   Zn614   2.003   .     S
N604   Zn613   2.003   .     S
O605   Zn613   1.998   .     S
O606   Zn614   1.998   .     S
O607   Zn614   2.004   .     S
O608   Zn613   2.004   .     S
O609   Zn613   1.970   .     S
O610   Zn614   1.970   .     S
O611   Zn614   1.982   .     S
O612   Zn613   1.982   .     S
N615   H616    1.046   .     S
N615   H617    1.046   .     S
N618   H620    1.046   .     S
N618   H619    1.046   .     S
C621   C641    1.443   .     S
C621   O667    1.288   .     A
C621   O669    1.284   .     A
C622   C642    1.442   .     S
C622   O670    1.284   .     A
C622   O668    1.288   .     A
C623   C631    1.410   .     A
C623   C625    1.407   .     A
C623   H657    1.082   .     S
C624   C632    1.411   .     A
C624   C626    1.407   .     A
C624   H658    1.082   .     S
C625   H659    1.082   .     S
C625   N665    1.363   .     A
C626   N666    1.363   .     A
C626   H660    1.082   .     S
C627   N665    1.363   .     A
C627   C629    1.406   .     A
C627   H661    1.081   .     S
C628   H662    1.082   .     S
C628   N666    1.363   .     A
C628   C630    1.406   .     A
C629   C631    1.410   .     A
C629   H663    1.082   .     S
C630   C632    1.410   .     A
C630   H664    1.082   .     S
C632   C259    1.512   1_556 S
C633   C635    1.402   .     S
C633   O673    1.278   .     A
C633   O671    1.275   .     A
C634   O672    1.275   .     A
C634   C636    1.402   .     S
C634   O674    1.278   .     A
C636   C697    1.330   .     S
C636   H712    1.088   .     S
C637   H651    1.084   .     S
C637   C647    1.395   .     A
C637   C639    1.380   .     A
C638   H652    1.084   .     S
C638   C648    1.394   .     A
C638   C640    1.379   .     A
C639   H653    1.084   .     S
C639   C641    1.401   .     A
C640   H654    1.084   .     S
C640   C642    1.401   .     A
C641   C643    1.410   .     A
C642   C644    1.412   .     A
C643   C645    1.387   .     A
C643   N677    1.434   .     S
C644   N680    1.439   .     S
C644   C646    1.390   .     A
C645   C647    1.396   .     A
C645   H655    1.084   .     S
C646   C648    1.396   .     A
C646   H656    1.084   .     S
C648   C461    1.439   1_565 S
H649   C697    1.088   .     S
N665   Zn676   2.003   .     S
N666   Zn675   2.003   .     S
O667   Zn675   1.998   .     S
O668   Zn676   1.998   .     S
O669   Zn676   2.004   .     S
O670   Zn675   2.004   .     S
O671   Zn675   1.970   .     S
O672   Zn676   1.970   .     S
O673   Zn676   1.982   .     S
O674   Zn675   1.982   .     S
N677   H678    1.046   .     S
N677   H679    1.046   .     S
N680   H682    1.046   .     S
N680   H681    1.046   .     S
C683   C703    1.443   .     S
C683   O729    1.288   .     A
C683   O731    1.284   .     A
C684   C704    1.442   .     S
C684   O732    1.284   .     A
C684   O730    1.288   .     A
C685   C693    1.410   .     A
C685   C687    1.407   .     A
C685   H719    1.082   .     S
C686   C694    1.411   .     A
C686   C688    1.407   .     A
C686   H720    1.082   .     S
C687   H721    1.082   .     S
C687   N727    1.363   .     A
C688   N728    1.363   .     A
C688   H722    1.082   .     S
C689   N727    1.363   .     A
C689   C691    1.406   .     A
C689   H723    1.081   .     S
C690   H724    1.082   .     S
C690   N728    1.363   .     A
C690   C692    1.406   .     A
C691   C693    1.410   .     A
C691   H725    1.082   .     S
C692   C694    1.410   .     A
C692   H726    1.082   .     S
C694   C321    1.512   1_556 S
C695   C697    1.402   .     S
C695   O735    1.278   .     A
C695   O733    1.275   .     A
C696   O734    1.275   .     A
C696   C698    1.402   .     S
C696   O736    1.278   .     A
C698   C573    1.330   1_655 S
C698   H588    1.088   1_655 S
C699   H713    1.084   .     S
C699   C709    1.395   .     A
C699   C701    1.380   .     A
C700   H714    1.084   .     S
C700   C710    1.394   .     A
C700   C702    1.379   .     A
C701   H715    1.084   .     S
C701   C703    1.401   .     A
C702   H716    1.084   .     S
C702   C704    1.401   .     A
C703   C705    1.410   .     A
C704   C706    1.412   .     A
C705   C707    1.387   .     A
C705   N739    1.434   .     S
C706   N742    1.439   .     S
C706   C708    1.390   .     A
C707   C709    1.396   .     A
C707   H717    1.084   .     S
C708   C710    1.396   .     A
C708   H718    1.084   .     S
C710   C523    1.439   1_565 S
H711   C573    1.088   1_655 S
N727   Zn738   2.003   .     S
N728   Zn737   2.003   .     S
O729   Zn737   1.998   .     S
O730   Zn738   1.998   .     S
O731   Zn738   2.004   .     S
O732   Zn737   2.004   .     S
O733   Zn737   1.970   .     S
O734   Zn738   1.970   .     S
O735   Zn738   1.982   .     S
O736   Zn737   1.982   .     S
N739   H740    1.046   .     S
N739   H741    1.046   .     S
N742   H744    1.046   .     S
N742   H743    1.046   .     S
