data_str_m3_o5_o17_pcu_sym.12
_audit_creation_date              2020-01-03
_audit_creation_method            'Materials Studio'
_symmetry_space_group_name_H-M    'P1'
_symmetry_Int_Tables_number       1
_symmetry_cell_setting            triclinic
loop_
_symmetry_equiv_pos_as_xyz
  x,y,z
_cell_length_a                    30.0212
_cell_length_b                    26.8708
_cell_length_c                    24.3515
_cell_angle_alpha                 90.0523
_cell_angle_beta                  90.4211
_cell_angle_gamma                 90.2924
loop_
_atom_site_label
_atom_site_type_symbol
_atom_site_fract_x
_atom_site_fract_y
_atom_site_fract_z
_atom_site_U_iso_or_equiv
_atom_site_adp_type
_atom_site_occupancy
O1     O     0.25000   0.09512   0.21228   0.00000  Uiso   1.00
O2     O     0.25000   0.23822   0.12105   0.00000  Uiso   1.00
O3     O     0.25000   0.23822   0.21228   0.00000  Uiso   1.00
O4     O     0.25000   0.09512   0.12105   0.00000  Uiso   1.00
H5     H     0.45901   0.04160   0.15071   0.00000  Uiso   1.00
H6     H     0.04099   0.29175   0.18235   0.00000  Uiso   1.00
H7     H     0.46196   0.29236   0.18289   0.00000  Uiso   1.00
H8     H     0.03804   0.04099   0.15017   0.00000  Uiso   1.00
C9     C     0.25034   0.07267   0.16666   0.00000  Uiso   1.00
C10    C     0.24966   0.26067   0.16667   0.00000  Uiso   1.00
O11    O     0.18393   0.16667   0.21230   0.00000  Uiso   1.00
O12    O     0.31608   0.16667   0.12104   0.00000  Uiso   1.00
O13    O     0.31608   0.16667   0.21230   0.00000  Uiso   1.00
O14    O     0.18393   0.16667   0.12104   0.00000  Uiso   1.00
C15    C     0.16346   0.16605   0.16644   0.00000  Uiso   1.00
C16    C     0.33654   0.16728   0.16689   0.00000  Uiso   1.00
Zn17   Zn    0.25000   0.16667   0.22759   0.00000  Uiso   1.00
Zn18   Zn    0.25000   0.16667   0.10574   0.00000  Uiso   1.00
N19    N     0.25000   0.16667   0.02455   0.00000  Uiso   1.00
N20    N     0.25000   0.16667   0.30879   0.00000  Uiso   1.00
C21    C     0.40708   0.21304   0.16847   0.00000  Uiso   1.00
C22    C     0.09292   0.12029   0.16477   0.00000  Uiso   1.00
C23    C     0.40619   0.12141   0.16801   0.00000  Uiso   1.00
C24    C     0.09381   0.21192   0.16529   0.00000  Uiso   1.00
C25    C     0.38414   0.16731   0.16765   0.00000  Uiso   1.00
C26    C     0.11586   0.16601   0.16567   0.00000  Uiso   1.00
C27    C     0.45275   0.12119   0.16472   0.00000  Uiso   1.00
C28    C     0.04725   0.21215   0.16848   0.00000  Uiso   1.00
C29    C     0.45370   0.21265   0.17015   0.00000  Uiso   1.00
C30    C     0.04630   0.12068   0.16303   0.00000  Uiso   1.00
C31    C     0.47656   0.16679   0.16700   0.00000  Uiso   1.00
C32    C     0.02344   0.16654   0.16618   0.00000  Uiso   1.00
C33    C     0.47601   0.07661   0.15736   0.00000  Uiso   1.00
C34    C     0.02399   0.25673   0.17576   0.00000  Uiso   1.00
C35    C     0.47805   0.25702   0.17637   0.00000  Uiso   1.00
C36    C     0.02195   0.07632   0.15674   0.00000  Uiso   1.00
C37    C     0.25014   0.02171   0.16666   0.00000  Uiso   1.00
C38    C     0.24986   0.31162   0.16668   0.00000  Uiso   1.00
C39    C     0.38252   0.26108   0.16637   0.00000  Uiso   1.00
H40    H     0.39385   0.29068   0.13950   0.00000  Uiso   1.00
O41    O     0.35041   0.26845   0.19566   0.00000  Uiso   1.00
C42    C     0.11747   0.07224   0.16689   0.00000  Uiso   1.00
H43    H     0.10607   0.04261   0.19368   0.00000  Uiso   1.00
O44    O     0.14966   0.06491   0.13772   0.00000  Uiso   1.00
C45    C     0.37989   0.07444   0.17324   0.00000  Uiso   1.00
H46    H     0.34926   0.06937   0.14994   0.00000  Uiso   1.00
O47    O     0.39110   0.04231   0.20590   0.00000  Uiso   1.00
C48    C     0.12012   0.25889   0.16019   0.00000  Uiso   1.00
H49    H     0.15059   0.26403   0.18378   0.00000  Uiso   1.00
O50    O     0.10911   0.29092   0.12734   0.00000  Uiso   1.00
O51    O     0.75000   0.09512   0.21228   0.00000  Uiso   1.00
O52    O     0.75000   0.23822   0.12105   0.00000  Uiso   1.00
O53    O     0.75000   0.23822   0.21228   0.00000  Uiso   1.00
O54    O     0.75000   0.09512   0.12105   0.00000  Uiso   1.00
H55    H     0.95901   0.04160   0.15071   0.00000  Uiso   1.00
H56    H     0.54099   0.29175   0.18235   0.00000  Uiso   1.00
H57    H     0.96196   0.29236   0.18289   0.00000  Uiso   1.00
H58    H     0.53804   0.04099   0.15017   0.00000  Uiso   1.00
C59    C     0.75034   0.07267   0.16666   0.00000  Uiso   1.00
C60    C     0.74966   0.26067   0.16667   0.00000  Uiso   1.00
O61    O     0.68393   0.16667   0.21230   0.00000  Uiso   1.00
O62    O     0.81608   0.16667   0.12104   0.00000  Uiso   1.00
O63    O     0.81608   0.16667   0.21230   0.00000  Uiso   1.00
O64    O     0.68393   0.16667   0.12104   0.00000  Uiso   1.00
C65    C     0.66346   0.16605   0.16644   0.00000  Uiso   1.00
C66    C     0.83654   0.16728   0.16689   0.00000  Uiso   1.00
Zn67   Zn    0.75000   0.16667   0.22759   0.00000  Uiso   1.00
Zn68   Zn    0.75000   0.16667   0.10574   0.00000  Uiso   1.00
N69    N     0.75000   0.16667   0.02455   0.00000  Uiso   1.00
N70    N     0.75000   0.16667   0.30879   0.00000  Uiso   1.00
C71    C     0.90708   0.21304   0.16847   0.00000  Uiso   1.00
C72    C     0.59292   0.12029   0.16477   0.00000  Uiso   1.00
C73    C     0.90619   0.12141   0.16801   0.00000  Uiso   1.00
C74    C     0.59381   0.21192   0.16529   0.00000  Uiso   1.00
C75    C     0.88414   0.16731   0.16765   0.00000  Uiso   1.00
C76    C     0.61586   0.16601   0.16567   0.00000  Uiso   1.00
C77    C     0.95275   0.12119   0.16472   0.00000  Uiso   1.00
C78    C     0.54725   0.21215   0.16848   0.00000  Uiso   1.00
C79    C     0.95370   0.21265   0.17015   0.00000  Uiso   1.00
C80    C     0.54630   0.12068   0.16303   0.00000  Uiso   1.00
C81    C     0.97656   0.16679   0.16700   0.00000  Uiso   1.00
C82    C     0.52344   0.16654   0.16618   0.00000  Uiso   1.00
C83    C     0.97601   0.07661   0.15736   0.00000  Uiso   1.00
C84    C     0.52399   0.25673   0.17576   0.00000  Uiso   1.00
C85    C     0.97805   0.25702   0.17637   0.00000  Uiso   1.00
C86    C     0.52195   0.07632   0.15674   0.00000  Uiso   1.00
C87    C     0.75014   0.02171   0.16666   0.00000  Uiso   1.00
C88    C     0.74986   0.31162   0.16668   0.00000  Uiso   1.00
C89    C     0.88252   0.26108   0.16637   0.00000  Uiso   1.00
H90    H     0.89385   0.29068   0.13950   0.00000  Uiso   1.00
O91    O     0.85041   0.26845   0.19566   0.00000  Uiso   1.00
C92    C     0.61747   0.07224   0.16689   0.00000  Uiso   1.00
H93    H     0.60607   0.04261   0.19368   0.00000  Uiso   1.00
O94    O     0.64966   0.06491   0.13772   0.00000  Uiso   1.00
C95    C     0.87989   0.07444   0.17324   0.00000  Uiso   1.00
H96    H     0.84926   0.06937   0.14994   0.00000  Uiso   1.00
O97    O     0.89110   0.04231   0.20590   0.00000  Uiso   1.00
C98    C     0.62012   0.25889   0.16019   0.00000  Uiso   1.00
H99    H     0.65059   0.26403   0.18378   0.00000  Uiso   1.00
O100   O     0.60911   0.29092   0.12734   0.00000  Uiso   1.00
O101   O     0.25000   0.42845   0.21228   0.00000  Uiso   1.00
O102   O     0.25000   0.57155   0.12105   0.00000  Uiso   1.00
O103   O     0.25000   0.57155   0.21228   0.00000  Uiso   1.00
O104   O     0.25000   0.42845   0.12105   0.00000  Uiso   1.00
H105   H     0.45901   0.37493   0.15071   0.00000  Uiso   1.00
H106   H     0.04099   0.62509   0.18235   0.00000  Uiso   1.00
H107   H     0.46196   0.62570   0.18289   0.00000  Uiso   1.00
H108   H     0.03804   0.37432   0.15017   0.00000  Uiso   1.00
C109   C     0.25034   0.40600   0.16666   0.00000  Uiso   1.00
C110   C     0.24966   0.59400   0.16667   0.00000  Uiso   1.00
O111   O     0.18393   0.50000   0.21230   0.00000  Uiso   1.00
O112   O     0.31608   0.50000   0.12104   0.00000  Uiso   1.00
O113   O     0.31608   0.50000   0.21230   0.00000  Uiso   1.00
O114   O     0.18393   0.50000   0.12104   0.00000  Uiso   1.00
C115   C     0.16346   0.49938   0.16644   0.00000  Uiso   1.00
C116   C     0.33654   0.50062   0.16689   0.00000  Uiso   1.00
Zn117  Zn    0.25000   0.50000   0.22759   0.00000  Uiso   1.00
Zn118  Zn    0.25000   0.50000   0.10574   0.00000  Uiso   1.00
N119   N     0.25000   0.50000   0.02455   0.00000  Uiso   1.00
N120   N     0.25000   0.50000   0.30879   0.00000  Uiso   1.00
C121   C     0.40708   0.54638   0.16847   0.00000  Uiso   1.00
C122   C     0.09292   0.45362   0.16477   0.00000  Uiso   1.00
C123   C     0.40619   0.45474   0.16801   0.00000  Uiso   1.00
C124   C     0.09381   0.54525   0.16529   0.00000  Uiso   1.00
C125   C     0.38414   0.50065   0.16765   0.00000  Uiso   1.00
C126   C     0.11586   0.49935   0.16567   0.00000  Uiso   1.00
C127   C     0.45275   0.45452   0.16472   0.00000  Uiso   1.00
C128   C     0.04725   0.54548   0.16848   0.00000  Uiso   1.00
C129   C     0.45370   0.54599   0.17015   0.00000  Uiso   1.00
C130   C     0.04630   0.45402   0.16303   0.00000  Uiso   1.00
C131   C     0.47656   0.50013   0.16700   0.00000  Uiso   1.00
C132   C     0.02344   0.49988   0.16618   0.00000  Uiso   1.00
C133   C     0.47601   0.40995   0.15736   0.00000  Uiso   1.00
C134   C     0.02399   0.59007   0.17576   0.00000  Uiso   1.00
C135   C     0.47805   0.59035   0.17637   0.00000  Uiso   1.00
C136   C     0.02195   0.40966   0.15674   0.00000  Uiso   1.00
C137   C     0.25014   0.35505   0.16666   0.00000  Uiso   1.00
C138   C     0.24986   0.64495   0.16668   0.00000  Uiso   1.00
C139   C     0.38252   0.59442   0.16637   0.00000  Uiso   1.00
H140   H     0.39385   0.62401   0.13950   0.00000  Uiso   1.00
O141   O     0.35041   0.60178   0.19566   0.00000  Uiso   1.00
C142   C     0.11747   0.40557   0.16689   0.00000  Uiso   1.00
H143   H     0.10607   0.37594   0.19368   0.00000  Uiso   1.00
O144   O     0.14966   0.39824   0.13772   0.00000  Uiso   1.00
C145   C     0.37989   0.40777   0.17324   0.00000  Uiso   1.00
H146   H     0.34926   0.40270   0.14994   0.00000  Uiso   1.00
O147   O     0.39110   0.37565   0.20590   0.00000  Uiso   1.00
C148   C     0.12012   0.59222   0.16019   0.00000  Uiso   1.00
H149   H     0.15059   0.59736   0.18378   0.00000  Uiso   1.00
O150   O     0.10911   0.62426   0.12734   0.00000  Uiso   1.00
O151   O     0.75000   0.42845   0.21228   0.00000  Uiso   1.00
O152   O     0.75000   0.57155   0.12105   0.00000  Uiso   1.00
O153   O     0.75000   0.57155   0.21228   0.00000  Uiso   1.00
O154   O     0.75000   0.42845   0.12105   0.00000  Uiso   1.00
H155   H     0.95901   0.37493   0.15071   0.00000  Uiso   1.00
H156   H     0.54099   0.62509   0.18235   0.00000  Uiso   1.00
H157   H     0.96196   0.62570   0.18289   0.00000  Uiso   1.00
H158   H     0.53804   0.37432   0.15017   0.00000  Uiso   1.00
C159   C     0.75034   0.40600   0.16666   0.00000  Uiso   1.00
C160   C     0.74966   0.59400   0.16667   0.00000  Uiso   1.00
O161   O     0.68393   0.50000   0.21230   0.00000  Uiso   1.00
O162   O     0.81608   0.50000   0.12104   0.00000  Uiso   1.00
O163   O     0.81608   0.50000   0.21230   0.00000  Uiso   1.00
O164   O     0.68393   0.50000   0.12104   0.00000  Uiso   1.00
C165   C     0.66346   0.49938   0.16644   0.00000  Uiso   1.00
C166   C     0.83654   0.50062   0.16689   0.00000  Uiso   1.00
Zn167  Zn    0.75000   0.50000   0.22759   0.00000  Uiso   1.00
Zn168  Zn    0.75000   0.50000   0.10574   0.00000  Uiso   1.00
N169   N     0.75000   0.50000   0.02455   0.00000  Uiso   1.00
N170   N     0.75000   0.50000   0.30879   0.00000  Uiso   1.00
C171   C     0.90708   0.54638   0.16847   0.00000  Uiso   1.00
C172   C     0.59292   0.45362   0.16477   0.00000  Uiso   1.00
C173   C     0.90619   0.45474   0.16801   0.00000  Uiso   1.00
C174   C     0.59381   0.54525   0.16529   0.00000  Uiso   1.00
C175   C     0.88414   0.50065   0.16765   0.00000  Uiso   1.00
C176   C     0.61586   0.49935   0.16567   0.00000  Uiso   1.00
C177   C     0.95275   0.45452   0.16472   0.00000  Uiso   1.00
C178   C     0.54725   0.54548   0.16848   0.00000  Uiso   1.00
C179   C     0.95370   0.54599   0.17015   0.00000  Uiso   1.00
C180   C     0.54630   0.45402   0.16303   0.00000  Uiso   1.00
C181   C     0.97656   0.50013   0.16700   0.00000  Uiso   1.00
C182   C     0.52344   0.49988   0.16618   0.00000  Uiso   1.00
C183   C     0.97601   0.40995   0.15736   0.00000  Uiso   1.00
C184   C     0.52399   0.59007   0.17576   0.00000  Uiso   1.00
C185   C     0.97805   0.59035   0.17637   0.00000  Uiso   1.00
C186   C     0.52195   0.40966   0.15674   0.00000  Uiso   1.00
C187   C     0.75014   0.35505   0.16666   0.00000  Uiso   1.00
C188   C     0.74986   0.64495   0.16668   0.00000  Uiso   1.00
C189   C     0.88252   0.59442   0.16637   0.00000  Uiso   1.00
H190   H     0.89385   0.62401   0.13950   0.00000  Uiso   1.00
O191   O     0.85041   0.60178   0.19566   0.00000  Uiso   1.00
C192   C     0.61747   0.40557   0.16689   0.00000  Uiso   1.00
H193   H     0.60607   0.37594   0.19368   0.00000  Uiso   1.00
O194   O     0.64966   0.39824   0.13772   0.00000  Uiso   1.00
C195   C     0.87989   0.40777   0.17324   0.00000  Uiso   1.00
H196   H     0.84926   0.40270   0.14994   0.00000  Uiso   1.00
O197   O     0.89110   0.37565   0.20590   0.00000  Uiso   1.00
C198   C     0.62012   0.59222   0.16019   0.00000  Uiso   1.00
H199   H     0.65059   0.59736   0.18378   0.00000  Uiso   1.00
O200   O     0.60911   0.62426   0.12734   0.00000  Uiso   1.00
O201   O     0.25000   0.76178   0.21228   0.00000  Uiso   1.00
O202   O     0.25000   0.90488   0.12105   0.00000  Uiso   1.00
O203   O     0.25000   0.90488   0.21228   0.00000  Uiso   1.00
O204   O     0.25000   0.76178   0.12105   0.00000  Uiso   1.00
H205   H     0.45901   0.70827   0.15071   0.00000  Uiso   1.00
H206   H     0.04099   0.95842   0.18235   0.00000  Uiso   1.00
H207   H     0.46196   0.95903   0.18289   0.00000  Uiso   1.00
H208   H     0.03804   0.70765   0.15017   0.00000  Uiso   1.00
C209   C     0.25034   0.73933   0.16666   0.00000  Uiso   1.00
C210   C     0.24966   0.92733   0.16667   0.00000  Uiso   1.00
O211   O     0.18393   0.83333   0.21230   0.00000  Uiso   1.00
O212   O     0.31608   0.83333   0.12104   0.00000  Uiso   1.00
O213   O     0.31608   0.83333   0.21230   0.00000  Uiso   1.00
O214   O     0.18393   0.83333   0.12104   0.00000  Uiso   1.00
C215   C     0.16346   0.83272   0.16644   0.00000  Uiso   1.00
C216   C     0.33654   0.83395   0.16689   0.00000  Uiso   1.00
Zn217  Zn    0.25000   0.83333   0.22759   0.00000  Uiso   1.00
Zn218  Zn    0.25000   0.83333   0.10574   0.00000  Uiso   1.00
N219   N     0.25000   0.83333   0.02455   0.00000  Uiso   1.00
N220   N     0.25000   0.83333   0.30879   0.00000  Uiso   1.00
C221   C     0.40708   0.87971   0.16847   0.00000  Uiso   1.00
C222   C     0.09292   0.78695   0.16477   0.00000  Uiso   1.00
C223   C     0.40619   0.78808   0.16801   0.00000  Uiso   1.00
C224   C     0.09381   0.87858   0.16529   0.00000  Uiso   1.00
C225   C     0.38414   0.83398   0.16765   0.00000  Uiso   1.00
C226   C     0.11586   0.83268   0.16567   0.00000  Uiso   1.00
C227   C     0.45275   0.78786   0.16472   0.00000  Uiso   1.00
C228   C     0.04725   0.87881   0.16848   0.00000  Uiso   1.00
C229   C     0.45370   0.87932   0.17015   0.00000  Uiso   1.00
C230   C     0.04630   0.78735   0.16303   0.00000  Uiso   1.00
C231   C     0.47656   0.83346   0.16700   0.00000  Uiso   1.00
C232   C     0.02344   0.83321   0.16618   0.00000  Uiso   1.00
C233   C     0.47601   0.74328   0.15736   0.00000  Uiso   1.00
C234   C     0.02399   0.92340   0.17576   0.00000  Uiso   1.00
C235   C     0.47805   0.92369   0.17637   0.00000  Uiso   1.00
C236   C     0.02195   0.74299   0.15674   0.00000  Uiso   1.00
C237   C     0.25014   0.68838   0.16666   0.00000  Uiso   1.00
C238   C     0.24986   0.97829   0.16668   0.00000  Uiso   1.00
C239   C     0.38252   0.92775   0.16637   0.00000  Uiso   1.00
H240   H     0.39385   0.95735   0.13950   0.00000  Uiso   1.00
O241   O     0.35041   0.93511   0.19566   0.00000  Uiso   1.00
C242   C     0.11747   0.73891   0.16689   0.00000  Uiso   1.00
H243   H     0.10607   0.70928   0.19368   0.00000  Uiso   1.00
O244   O     0.14966   0.73157   0.13772   0.00000  Uiso   1.00
C245   C     0.37989   0.74111   0.17324   0.00000  Uiso   1.00
H246   H     0.34926   0.73604   0.14994   0.00000  Uiso   1.00
O247   O     0.39110   0.70898   0.20590   0.00000  Uiso   1.00
C248   C     0.12012   0.92555   0.16019   0.00000  Uiso   1.00
H249   H     0.15059   0.93069   0.18378   0.00000  Uiso   1.00
O250   O     0.10911   0.95759   0.12734   0.00000  Uiso   1.00
O251   O     0.75000   0.76178   0.21228   0.00000  Uiso   1.00
O252   O     0.75000   0.90488   0.12105   0.00000  Uiso   1.00
O253   O     0.75000   0.90488   0.21228   0.00000  Uiso   1.00
O254   O     0.75000   0.76178   0.12105   0.00000  Uiso   1.00
H255   H     0.95901   0.70827   0.15071   0.00000  Uiso   1.00
H256   H     0.54099   0.95842   0.18235   0.00000  Uiso   1.00
H257   H     0.96196   0.95903   0.18289   0.00000  Uiso   1.00
H258   H     0.53804   0.70765   0.15017   0.00000  Uiso   1.00
C259   C     0.75034   0.73933   0.16666   0.00000  Uiso   1.00
C260   C     0.74966   0.92733   0.16667   0.00000  Uiso   1.00
O261   O     0.68393   0.83333   0.21230   0.00000  Uiso   1.00
O262   O     0.81608   0.83333   0.12104   0.00000  Uiso   1.00
O263   O     0.81608   0.83333   0.21230   0.00000  Uiso   1.00
O264   O     0.68393   0.83333   0.12104   0.00000  Uiso   1.00
C265   C     0.66346   0.83272   0.16644   0.00000  Uiso   1.00
C266   C     0.83654   0.83395   0.16689   0.00000  Uiso   1.00
Zn267  Zn    0.75000   0.83333   0.22759   0.00000  Uiso   1.00
Zn268  Zn    0.75000   0.83333   0.10574   0.00000  Uiso   1.00
N269   N     0.75000   0.83333   0.02455   0.00000  Uiso   1.00
N270   N     0.75000   0.83333   0.30879   0.00000  Uiso   1.00
C271   C     0.90708   0.87971   0.16847   0.00000  Uiso   1.00
C272   C     0.59292   0.78695   0.16477   0.00000  Uiso   1.00
C273   C     0.90619   0.78808   0.16801   0.00000  Uiso   1.00
C274   C     0.59381   0.87858   0.16529   0.00000  Uiso   1.00
C275   C     0.88414   0.83398   0.16765   0.00000  Uiso   1.00
C276   C     0.61586   0.83268   0.16567   0.00000  Uiso   1.00
C277   C     0.95275   0.78786   0.16472   0.00000  Uiso   1.00
C278   C     0.54725   0.87881   0.16848   0.00000  Uiso   1.00
C279   C     0.95370   0.87932   0.17015   0.00000  Uiso   1.00
C280   C     0.54630   0.78735   0.16303   0.00000  Uiso   1.00
C281   C     0.97656   0.83346   0.16700   0.00000  Uiso   1.00
C282   C     0.52344   0.83321   0.16618   0.00000  Uiso   1.00
C283   C     0.97601   0.74328   0.15736   0.00000  Uiso   1.00
C284   C     0.52399   0.92340   0.17576   0.00000  Uiso   1.00
C285   C     0.97805   0.92369   0.17637   0.00000  Uiso   1.00
C286   C     0.52195   0.74299   0.15674   0.00000  Uiso   1.00
C287   C     0.75014   0.68838   0.16666   0.00000  Uiso   1.00
C288   C     0.74986   0.97829   0.16668   0.00000  Uiso   1.00
C289   C     0.88252   0.92775   0.16637   0.00000  Uiso   1.00
H290   H     0.89385   0.95735   0.13950   0.00000  Uiso   1.00
O291   O     0.85041   0.93511   0.19566   0.00000  Uiso   1.00
C292   C     0.61747   0.73891   0.16689   0.00000  Uiso   1.00
H293   H     0.60607   0.70928   0.19368   0.00000  Uiso   1.00
O294   O     0.64966   0.73157   0.13772   0.00000  Uiso   1.00
C295   C     0.87989   0.74111   0.17324   0.00000  Uiso   1.00
H296   H     0.84926   0.73604   0.14994   0.00000  Uiso   1.00
O297   O     0.89110   0.70898   0.20590   0.00000  Uiso   1.00
C298   C     0.62012   0.92555   0.16019   0.00000  Uiso   1.00
H299   H     0.65059   0.93069   0.18378   0.00000  Uiso   1.00
O300   O     0.60911   0.95759   0.12734   0.00000  Uiso   1.00
O301   O     0.25000   0.09512   0.54562   0.00000  Uiso   1.00
O302   O     0.25000   0.23822   0.45438   0.00000  Uiso   1.00
O303   O     0.25000   0.23822   0.54562   0.00000  Uiso   1.00
O304   O     0.25000   0.09512   0.45438   0.00000  Uiso   1.00
H305   H     0.45901   0.04160   0.48405   0.00000  Uiso   1.00
H306   H     0.04099   0.29175   0.51568   0.00000  Uiso   1.00
H307   H     0.46196   0.29236   0.51622   0.00000  Uiso   1.00
H308   H     0.03804   0.04099   0.48350   0.00000  Uiso   1.00
C309   C     0.25034   0.07267   0.50000   0.00000  Uiso   1.00
C310   C     0.24966   0.26067   0.50000   0.00000  Uiso   1.00
O311   O     0.18393   0.16667   0.54563   0.00000  Uiso   1.00
O312   O     0.31608   0.16667   0.45437   0.00000  Uiso   1.00
O313   O     0.31608   0.16667   0.54563   0.00000  Uiso   1.00
O314   O     0.18393   0.16667   0.45437   0.00000  Uiso   1.00
C315   C     0.16346   0.16605   0.49977   0.00000  Uiso   1.00
C316   C     0.33654   0.16728   0.50023   0.00000  Uiso   1.00
Zn317  Zn    0.25000   0.16667   0.56093   0.00000  Uiso   1.00
Zn318  Zn    0.25000   0.16667   0.43907   0.00000  Uiso   1.00
N319   N     0.25000   0.16667   0.35788   0.00000  Uiso   1.00
N320   N     0.25000   0.16667   0.64212   0.00000  Uiso   1.00
C321   C     0.40708   0.21304   0.50181   0.00000  Uiso   1.00
C322   C     0.09292   0.12029   0.49810   0.00000  Uiso   1.00
C323   C     0.40619   0.12141   0.50135   0.00000  Uiso   1.00
C324   C     0.09381   0.21192   0.49863   0.00000  Uiso   1.00
C325   C     0.38414   0.16731   0.50098   0.00000  Uiso   1.00
C326   C     0.11586   0.16601   0.49901   0.00000  Uiso   1.00
C327   C     0.45275   0.12119   0.49806   0.00000  Uiso   1.00
C328   C     0.04725   0.21215   0.50181   0.00000  Uiso   1.00
C329   C     0.45370   0.21265   0.50349   0.00000  Uiso   1.00
C330   C     0.04630   0.12068   0.49636   0.00000  Uiso   1.00
C331   C     0.47656   0.16679   0.50033   0.00000  Uiso   1.00
C332   C     0.02344   0.16654   0.49952   0.00000  Uiso   1.00
C333   C     0.47601   0.07661   0.49069   0.00000  Uiso   1.00
C334   C     0.02399   0.25673   0.50909   0.00000  Uiso   1.00
C335   C     0.47805   0.25702   0.50970   0.00000  Uiso   1.00
C336   C     0.02195   0.07632   0.49007   0.00000  Uiso   1.00
C337   C     0.25014   0.02171   0.49999   0.00000  Uiso   1.00
C338   C     0.24986   0.31162   0.50001   0.00000  Uiso   1.00
C339   C     0.38252   0.26108   0.49970   0.00000  Uiso   1.00
H340   H     0.39385   0.29068   0.47283   0.00000  Uiso   1.00
O341   O     0.35041   0.26845   0.52899   0.00000  Uiso   1.00
C342   C     0.11747   0.07224   0.50023   0.00000  Uiso   1.00
H343   H     0.10607   0.04261   0.52701   0.00000  Uiso   1.00
O344   O     0.14966   0.06491   0.47105   0.00000  Uiso   1.00
C345   C     0.37989   0.07444   0.50657   0.00000  Uiso   1.00
H346   H     0.34926   0.06937   0.48327   0.00000  Uiso   1.00
O347   O     0.39110   0.04231   0.53923   0.00000  Uiso   1.00
C348   C     0.12012   0.25889   0.49353   0.00000  Uiso   1.00
H349   H     0.15059   0.26403   0.51711   0.00000  Uiso   1.00
O350   O     0.10911   0.29092   0.46068   0.00000  Uiso   1.00
O351   O     0.75000   0.09512   0.54562   0.00000  Uiso   1.00
O352   O     0.75000   0.23822   0.45438   0.00000  Uiso   1.00
O353   O     0.75000   0.23822   0.54562   0.00000  Uiso   1.00
O354   O     0.75000   0.09512   0.45438   0.00000  Uiso   1.00
H355   H     0.95901   0.04160   0.48405   0.00000  Uiso   1.00
H356   H     0.54099   0.29175   0.51568   0.00000  Uiso   1.00
H357   H     0.96196   0.29236   0.51622   0.00000  Uiso   1.00
H358   H     0.53804   0.04099   0.48350   0.00000  Uiso   1.00
C359   C     0.75034   0.07267   0.50000   0.00000  Uiso   1.00
C360   C     0.74966   0.26067   0.50000   0.00000  Uiso   1.00
O361   O     0.68393   0.16667   0.54563   0.00000  Uiso   1.00
O362   O     0.81608   0.16667   0.45437   0.00000  Uiso   1.00
O363   O     0.81608   0.16667   0.54563   0.00000  Uiso   1.00
O364   O     0.68393   0.16667   0.45437   0.00000  Uiso   1.00
C365   C     0.66346   0.16605   0.49977   0.00000  Uiso   1.00
C366   C     0.83654   0.16728   0.50023   0.00000  Uiso   1.00
Zn367  Zn    0.75000   0.16667   0.56093   0.00000  Uiso   1.00
Zn368  Zn    0.75000   0.16667   0.43907   0.00000  Uiso   1.00
N369   N     0.75000   0.16667   0.35788   0.00000  Uiso   1.00
N370   N     0.75000   0.16667   0.64212   0.00000  Uiso   1.00
C371   C     0.90708   0.21304   0.50181   0.00000  Uiso   1.00
C372   C     0.59292   0.12029   0.49810   0.00000  Uiso   1.00
C373   C     0.90619   0.12141   0.50135   0.00000  Uiso   1.00
C374   C     0.59381   0.21192   0.49863   0.00000  Uiso   1.00
C375   C     0.88414   0.16731   0.50098   0.00000  Uiso   1.00
C376   C     0.61586   0.16601   0.49901   0.00000  Uiso   1.00
C377   C     0.95275   0.12119   0.49806   0.00000  Uiso   1.00
C378   C     0.54725   0.21215   0.50181   0.00000  Uiso   1.00
C379   C     0.95370   0.21265   0.50349   0.00000  Uiso   1.00
C380   C     0.54630   0.12068   0.49636   0.00000  Uiso   1.00
C381   C     0.97656   0.16679   0.50033   0.00000  Uiso   1.00
C382   C     0.52344   0.16654   0.49952   0.00000  Uiso   1.00
C383   C     0.97601   0.07661   0.49069   0.00000  Uiso   1.00
C384   C     0.52399   0.25673   0.50909   0.00000  Uiso   1.00
C385   C     0.97805   0.25702   0.50970   0.00000  Uiso   1.00
C386   C     0.52195   0.07632   0.49007   0.00000  Uiso   1.00
C387   C     0.75014   0.02171   0.49999   0.00000  Uiso   1.00
C388   C     0.74986   0.31162   0.50001   0.00000  Uiso   1.00
C389   C     0.88252   0.26108   0.49970   0.00000  Uiso   1.00
H390   H     0.89385   0.29068   0.47283   0.00000  Uiso   1.00
O391   O     0.85041   0.26845   0.52899   0.00000  Uiso   1.00
C392   C     0.61747   0.07224   0.50023   0.00000  Uiso   1.00
H393   H     0.60607   0.04261   0.52701   0.00000  Uiso   1.00
O394   O     0.64966   0.06491   0.47105   0.00000  Uiso   1.00
C395   C     0.87989   0.07444   0.50657   0.00000  Uiso   1.00
H396   H     0.84926   0.06937   0.48327   0.00000  Uiso   1.00
O397   O     0.89110   0.04231   0.53923   0.00000  Uiso   1.00
C398   C     0.62012   0.25889   0.49353   0.00000  Uiso   1.00
H399   H     0.65059   0.26403   0.51711   0.00000  Uiso   1.00
O400   O     0.60911   0.29092   0.46068   0.00000  Uiso   1.00
O401   O     0.25000   0.42845   0.54562   0.00000  Uiso   1.00
O402   O     0.25000   0.57155   0.45438   0.00000  Uiso   1.00
O403   O     0.25000   0.57155   0.54562   0.00000  Uiso   1.00
O404   O     0.25000   0.42845   0.45438   0.00000  Uiso   1.00
H405   H     0.45901   0.37493   0.48405   0.00000  Uiso   1.00
H406   H     0.04099   0.62509   0.51568   0.00000  Uiso   1.00
H407   H     0.46196   0.62570   0.51622   0.00000  Uiso   1.00
H408   H     0.03804   0.37432   0.48350   0.00000  Uiso   1.00
C409   C     0.25034   0.40600   0.50000   0.00000  Uiso   1.00
C410   C     0.24966   0.59400   0.50000   0.00000  Uiso   1.00
O411   O     0.18393   0.50000   0.54563   0.00000  Uiso   1.00
O412   O     0.31608   0.50000   0.45437   0.00000  Uiso   1.00
O413   O     0.31608   0.50000   0.54563   0.00000  Uiso   1.00
O414   O     0.18393   0.50000   0.45437   0.00000  Uiso   1.00
C415   C     0.16346   0.49938   0.49977   0.00000  Uiso   1.00
C416   C     0.33654   0.50062   0.50023   0.00000  Uiso   1.00
Zn417  Zn    0.25000   0.50000   0.56093   0.00000  Uiso   1.00
Zn418  Zn    0.25000   0.50000   0.43907   0.00000  Uiso   1.00
N419   N     0.25000   0.50000   0.35788   0.00000  Uiso   1.00
N420   N     0.25000   0.50000   0.64212   0.00000  Uiso   1.00
C421   C     0.40708   0.54638   0.50181   0.00000  Uiso   1.00
C422   C     0.09292   0.45362   0.49810   0.00000  Uiso   1.00
C423   C     0.40619   0.45474   0.50135   0.00000  Uiso   1.00
C424   C     0.09381   0.54525   0.49863   0.00000  Uiso   1.00
C425   C     0.38414   0.50065   0.50098   0.00000  Uiso   1.00
C426   C     0.11586   0.49935   0.49901   0.00000  Uiso   1.00
C427   C     0.45275   0.45452   0.49806   0.00000  Uiso   1.00
C428   C     0.04725   0.54548   0.50181   0.00000  Uiso   1.00
C429   C     0.45370   0.54599   0.50349   0.00000  Uiso   1.00
C430   C     0.04630   0.45402   0.49636   0.00000  Uiso   1.00
C431   C     0.47656   0.50013   0.50033   0.00000  Uiso   1.00
C432   C     0.02344   0.49988   0.49952   0.00000  Uiso   1.00
C433   C     0.47601   0.40995   0.49069   0.00000  Uiso   1.00
C434   C     0.02399   0.59007   0.50909   0.00000  Uiso   1.00
C435   C     0.47805   0.59035   0.50970   0.00000  Uiso   1.00
C436   C     0.02195   0.40966   0.49007   0.00000  Uiso   1.00
C437   C     0.25014   0.35505   0.49999   0.00000  Uiso   1.00
C438   C     0.24986   0.64495   0.50001   0.00000  Uiso   1.00
C439   C     0.38252   0.59442   0.49970   0.00000  Uiso   1.00
H440   H     0.39385   0.62401   0.47283   0.00000  Uiso   1.00
O441   O     0.35041   0.60178   0.52899   0.00000  Uiso   1.00
C442   C     0.11747   0.40557   0.50023   0.00000  Uiso   1.00
H443   H     0.10607   0.37594   0.52701   0.00000  Uiso   1.00
O444   O     0.14966   0.39824   0.47105   0.00000  Uiso   1.00
C445   C     0.37989   0.40777   0.50657   0.00000  Uiso   1.00
H446   H     0.34926   0.40270   0.48327   0.00000  Uiso   1.00
O447   O     0.39110   0.37565   0.53923   0.00000  Uiso   1.00
C448   C     0.12012   0.59222   0.49353   0.00000  Uiso   1.00
H449   H     0.15059   0.59736   0.51711   0.00000  Uiso   1.00
O450   O     0.10911   0.62426   0.46068   0.00000  Uiso   1.00
O451   O     0.75000   0.42845   0.54562   0.00000  Uiso   1.00
O452   O     0.75000   0.57155   0.45438   0.00000  Uiso   1.00
O453   O     0.75000   0.57155   0.54562   0.00000  Uiso   1.00
O454   O     0.75000   0.42845   0.45438   0.00000  Uiso   1.00
H455   H     0.95901   0.37493   0.48405   0.00000  Uiso   1.00
H456   H     0.54099   0.62509   0.51568   0.00000  Uiso   1.00
H457   H     0.96196   0.62570   0.51622   0.00000  Uiso   1.00
H458   H     0.53804   0.37432   0.48350   0.00000  Uiso   1.00
C459   C     0.75034   0.40600   0.50000   0.00000  Uiso   1.00
C460   C     0.74966   0.59400   0.50000   0.00000  Uiso   1.00
O461   O     0.68393   0.50000   0.54563   0.00000  Uiso   1.00
O462   O     0.81608   0.50000   0.45437   0.00000  Uiso   1.00
O463   O     0.81608   0.50000   0.54563   0.00000  Uiso   1.00
O464   O     0.68393   0.50000   0.45437   0.00000  Uiso   1.00
C465   C     0.66346   0.49938   0.49977   0.00000  Uiso   1.00
C466   C     0.83654   0.50062   0.50023   0.00000  Uiso   1.00
Zn467  Zn    0.75000   0.50000   0.56093   0.00000  Uiso   1.00
Zn468  Zn    0.75000   0.50000   0.43907   0.00000  Uiso   1.00
N469   N     0.75000   0.50000   0.35788   0.00000  Uiso   1.00
N470   N     0.75000   0.50000   0.64212   0.00000  Uiso   1.00
C471   C     0.90708   0.54638   0.50181   0.00000  Uiso   1.00
C472   C     0.59292   0.45362   0.49810   0.00000  Uiso   1.00
C473   C     0.90619   0.45474   0.50135   0.00000  Uiso   1.00
C474   C     0.59381   0.54525   0.49863   0.00000  Uiso   1.00
C475   C     0.88414   0.50065   0.50098   0.00000  Uiso   1.00
C476   C     0.61586   0.49935   0.49901   0.00000  Uiso   1.00
C477   C     0.95275   0.45452   0.49806   0.00000  Uiso   1.00
C478   C     0.54725   0.54548   0.50181   0.00000  Uiso   1.00
C479   C     0.95370   0.54599   0.50349   0.00000  Uiso   1.00
C480   C     0.54630   0.45402   0.49636   0.00000  Uiso   1.00
C481   C     0.97656   0.50013   0.50033   0.00000  Uiso   1.00
C482   C     0.52344   0.49988   0.49952   0.00000  Uiso   1.00
C483   C     0.97601   0.40995   0.49069   0.00000  Uiso   1.00
C484   C     0.52399   0.59007   0.50909   0.00000  Uiso   1.00
C485   C     0.97805   0.59035   0.50970   0.00000  Uiso   1.00
C486   C     0.52195   0.40966   0.49007   0.00000  Uiso   1.00
C487   C     0.75014   0.35505   0.49999   0.00000  Uiso   1.00
C488   C     0.74986   0.64495   0.50001   0.00000  Uiso   1.00
C489   C     0.88252   0.59442   0.49970   0.00000  Uiso   1.00
H490   H     0.89385   0.62401   0.47283   0.00000  Uiso   1.00
O491   O     0.85041   0.60178   0.52899   0.00000  Uiso   1.00
C492   C     0.61747   0.40557   0.50023   0.00000  Uiso   1.00
H493   H     0.60607   0.37594   0.52701   0.00000  Uiso   1.00
O494   O     0.64966   0.39824   0.47105   0.00000  Uiso   1.00
C495   C     0.87989   0.40777   0.50657   0.00000  Uiso   1.00
H496   H     0.84926   0.40270   0.48327   0.00000  Uiso   1.00
O497   O     0.89110   0.37565   0.53923   0.00000  Uiso   1.00
C498   C     0.62012   0.59222   0.49353   0.00000  Uiso   1.00
H499   H     0.65059   0.59736   0.51711   0.00000  Uiso   1.00
O500   O     0.60911   0.62426   0.46068   0.00000  Uiso   1.00
O501   O     0.25000   0.76178   0.54562   0.00000  Uiso   1.00
O502   O     0.25000   0.90488   0.45438   0.00000  Uiso   1.00
O503   O     0.25000   0.90488   0.54562   0.00000  Uiso   1.00
O504   O     0.25000   0.76178   0.45438   0.00000  Uiso   1.00
H505   H     0.45901   0.70827   0.48405   0.00000  Uiso   1.00
H506   H     0.04099   0.95842   0.51568   0.00000  Uiso   1.00
H507   H     0.46196   0.95903   0.51622   0.00000  Uiso   1.00
H508   H     0.03804   0.70765   0.48350   0.00000  Uiso   1.00
C509   C     0.25034   0.73933   0.50000   0.00000  Uiso   1.00
C510   C     0.24966   0.92733   0.50000   0.00000  Uiso   1.00
O511   O     0.18393   0.83333   0.54563   0.00000  Uiso   1.00
O512   O     0.31608   0.83333   0.45437   0.00000  Uiso   1.00
O513   O     0.31608   0.83333   0.54563   0.00000  Uiso   1.00
O514   O     0.18393   0.83333   0.45437   0.00000  Uiso   1.00
C515   C     0.16346   0.83272   0.49977   0.00000  Uiso   1.00
C516   C     0.33654   0.83395   0.50023   0.00000  Uiso   1.00
Zn517  Zn    0.25000   0.83333   0.56093   0.00000  Uiso   1.00
Zn518  Zn    0.25000   0.83333   0.43907   0.00000  Uiso   1.00
N519   N     0.25000   0.83333   0.35788   0.00000  Uiso   1.00
N520   N     0.25000   0.83333   0.64212   0.00000  Uiso   1.00
C521   C     0.40708   0.87971   0.50181   0.00000  Uiso   1.00
C522   C     0.09292   0.78695   0.49810   0.00000  Uiso   1.00
C523   C     0.40619   0.78808   0.50135   0.00000  Uiso   1.00
C524   C     0.09381   0.87858   0.49863   0.00000  Uiso   1.00
C525   C     0.38414   0.83398   0.50098   0.00000  Uiso   1.00
C526   C     0.11586   0.83268   0.49901   0.00000  Uiso   1.00
C527   C     0.45275   0.78786   0.49806   0.00000  Uiso   1.00
C528   C     0.04725   0.87881   0.50181   0.00000  Uiso   1.00
C529   C     0.45370   0.87932   0.50349   0.00000  Uiso   1.00
C530   C     0.04630   0.78735   0.49636   0.00000  Uiso   1.00
C531   C     0.47656   0.83346   0.50033   0.00000  Uiso   1.00
C532   C     0.02344   0.83321   0.49952   0.00000  Uiso   1.00
C533   C     0.47601   0.74328   0.49069   0.00000  Uiso   1.00
C534   C     0.02399   0.92340   0.50909   0.00000  Uiso   1.00
C535   C     0.47805   0.92369   0.50970   0.00000  Uiso   1.00
C536   C     0.02195   0.74299   0.49007   0.00000  Uiso   1.00
C537   C     0.25014   0.68838   0.49999   0.00000  Uiso   1.00
C538   C     0.24986   0.97829   0.50001   0.00000  Uiso   1.00
C539   C     0.38252   0.92775   0.49970   0.00000  Uiso   1.00
H540   H     0.39385   0.95735   0.47283   0.00000  Uiso   1.00
O541   O     0.35041   0.93511   0.52899   0.00000  Uiso   1.00
C542   C     0.11747   0.73891   0.50023   0.00000  Uiso   1.00
H543   H     0.10607   0.70928   0.52701   0.00000  Uiso   1.00
O544   O     0.14966   0.73157   0.47105   0.00000  Uiso   1.00
C545   C     0.37989   0.74111   0.50657   0.00000  Uiso   1.00
H546   H     0.34926   0.73604   0.48327   0.00000  Uiso   1.00
O547   O     0.39110   0.70898   0.53923   0.00000  Uiso   1.00
C548   C     0.12012   0.92555   0.49353   0.00000  Uiso   1.00
H549   H     0.15059   0.93069   0.51711   0.00000  Uiso   1.00
O550   O     0.10911   0.95759   0.46068   0.00000  Uiso   1.00
O551   O     0.75000   0.76178   0.54562   0.00000  Uiso   1.00
O552   O     0.75000   0.90488   0.45438   0.00000  Uiso   1.00
O553   O     0.75000   0.90488   0.54562   0.00000  Uiso   1.00
O554   O     0.75000   0.76178   0.45438   0.00000  Uiso   1.00
H555   H     0.95901   0.70827   0.48405   0.00000  Uiso   1.00
H556   H     0.54099   0.95842   0.51568   0.00000  Uiso   1.00
H557   H     0.96196   0.95903   0.51622   0.00000  Uiso   1.00
H558   H     0.53804   0.70765   0.48350   0.00000  Uiso   1.00
C559   C     0.75034   0.73933   0.50000   0.00000  Uiso   1.00
C560   C     0.74966   0.92733   0.50000   0.00000  Uiso   1.00
O561   O     0.68393   0.83333   0.54563   0.00000  Uiso   1.00
O562   O     0.81608   0.83333   0.45437   0.00000  Uiso   1.00
O563   O     0.81608   0.83333   0.54563   0.00000  Uiso   1.00
O564   O     0.68393   0.83333   0.45437   0.00000  Uiso   1.00
C565   C     0.66346   0.83272   0.49977   0.00000  Uiso   1.00
C566   C     0.83654   0.83395   0.50023   0.00000  Uiso   1.00
Zn567  Zn    0.75000   0.83333   0.56093   0.00000  Uiso   1.00
Zn568  Zn    0.75000   0.83333   0.43907   0.00000  Uiso   1.00
N569   N     0.75000   0.83333   0.35788   0.00000  Uiso   1.00
N570   N     0.75000   0.83333   0.64212   0.00000  Uiso   1.00
C571   C     0.90708   0.87971   0.50181   0.00000  Uiso   1.00
C572   C     0.59292   0.78695   0.49810   0.00000  Uiso   1.00
C573   C     0.90619   0.78808   0.50135   0.00000  Uiso   1.00
C574   C     0.59381   0.87858   0.49863   0.00000  Uiso   1.00
C575   C     0.88414   0.83398   0.50098   0.00000  Uiso   1.00
C576   C     0.61586   0.83268   0.49901   0.00000  Uiso   1.00
C577   C     0.95275   0.78786   0.49806   0.00000  Uiso   1.00
C578   C     0.54725   0.87881   0.50181   0.00000  Uiso   1.00
C579   C     0.95370   0.87932   0.50349   0.00000  Uiso   1.00
C580   C     0.54630   0.78735   0.49636   0.00000  Uiso   1.00
C581   C     0.97656   0.83346   0.50033   0.00000  Uiso   1.00
C582   C     0.52344   0.83321   0.49952   0.00000  Uiso   1.00
C583   C     0.97601   0.74328   0.49069   0.00000  Uiso   1.00
C584   C     0.52399   0.92340   0.50909   0.00000  Uiso   1.00
C585   C     0.97805   0.92369   0.50970   0.00000  Uiso   1.00
C586   C     0.52195   0.74299   0.49007   0.00000  Uiso   1.00
C587   C     0.75014   0.68838   0.49999   0.00000  Uiso   1.00
C588   C     0.74986   0.97829   0.50001   0.00000  Uiso   1.00
C589   C     0.88252   0.92775   0.49970   0.00000  Uiso   1.00
H590   H     0.89385   0.95735   0.47283   0.00000  Uiso   1.00
O591   O     0.85041   0.93511   0.52899   0.00000  Uiso   1.00
C592   C     0.61747   0.73891   0.50023   0.00000  Uiso   1.00
H593   H     0.60607   0.70928   0.52701   0.00000  Uiso   1.00
O594   O     0.64966   0.73157   0.47105   0.00000  Uiso   1.00
C595   C     0.87989   0.74111   0.50657   0.00000  Uiso   1.00
H596   H     0.84926   0.73604   0.48327   0.00000  Uiso   1.00
O597   O     0.89110   0.70898   0.53923   0.00000  Uiso   1.00
C598   C     0.62012   0.92555   0.49353   0.00000  Uiso   1.00
H599   H     0.65059   0.93069   0.51711   0.00000  Uiso   1.00
O600   O     0.60911   0.95759   0.46068   0.00000  Uiso   1.00
O601   O     0.25000   0.09512   0.87895   0.00000  Uiso   1.00
O602   O     0.25000   0.23822   0.78772   0.00000  Uiso   1.00
O603   O     0.25000   0.23822   0.87895   0.00000  Uiso   1.00
O604   O     0.25000   0.09512   0.78772   0.00000  Uiso   1.00
H605   H     0.45901   0.04160   0.81738   0.00000  Uiso   1.00
H606   H     0.04099   0.29175   0.84901   0.00000  Uiso   1.00
H607   H     0.46196   0.29236   0.84956   0.00000  Uiso   1.00
H608   H     0.03804   0.04099   0.81684   0.00000  Uiso   1.00
C609   C     0.25034   0.07267   0.83333   0.00000  Uiso   1.00
C610   C     0.24966   0.26067   0.83334   0.00000  Uiso   1.00
O611   O     0.18393   0.16667   0.87896   0.00000  Uiso   1.00
O612   O     0.31608   0.16667   0.78770   0.00000  Uiso   1.00
O613   O     0.31608   0.16667   0.87896   0.00000  Uiso   1.00
O614   O     0.18393   0.16667   0.78770   0.00000  Uiso   1.00
C615   C     0.16346   0.16605   0.83310   0.00000  Uiso   1.00
C616   C     0.33654   0.16728   0.83356   0.00000  Uiso   1.00
Zn617  Zn    0.25000   0.16667   0.89426   0.00000  Uiso   1.00
Zn618  Zn    0.25000   0.16667   0.77241   0.00000  Uiso   1.00
N619   N     0.25000   0.16667   0.69121   0.00000  Uiso   1.00
N620   N     0.25000   0.16667   0.97545   0.00000  Uiso   1.00
C621   C     0.40708   0.21304   0.83514   0.00000  Uiso   1.00
C622   C     0.09292   0.12029   0.83143   0.00000  Uiso   1.00
C623   C     0.40619   0.12141   0.83468   0.00000  Uiso   1.00
C624   C     0.09381   0.21192   0.83196   0.00000  Uiso   1.00
C625   C     0.38414   0.16731   0.83431   0.00000  Uiso   1.00
C626   C     0.11586   0.16601   0.83234   0.00000  Uiso   1.00
C627   C     0.45275   0.12119   0.83139   0.00000  Uiso   1.00
C628   C     0.04725   0.21215   0.83515   0.00000  Uiso   1.00
C629   C     0.45370   0.21265   0.83682   0.00000  Uiso   1.00
C630   C     0.04630   0.12068   0.82969   0.00000  Uiso   1.00
C631   C     0.47656   0.16679   0.83367   0.00000  Uiso   1.00
C632   C     0.02344   0.16654   0.83285   0.00000  Uiso   1.00
C633   C     0.47601   0.07661   0.82403   0.00000  Uiso   1.00
C634   C     0.02399   0.25673   0.84243   0.00000  Uiso   1.00
C635   C     0.47805   0.25702   0.84304   0.00000  Uiso   1.00
C636   C     0.02195   0.07632   0.82341   0.00000  Uiso   1.00
C637   C     0.25014   0.02171   0.83332   0.00000  Uiso   1.00
C638   C     0.24986   0.31162   0.83334   0.00000  Uiso   1.00
C639   C     0.38252   0.26108   0.83303   0.00000  Uiso   1.00
H640   H     0.39385   0.29068   0.80617   0.00000  Uiso   1.00
O641   O     0.35041   0.26845   0.86233   0.00000  Uiso   1.00
C642   C     0.11747   0.07224   0.83356   0.00000  Uiso   1.00
H643   H     0.10607   0.04261   0.86035   0.00000  Uiso   1.00
O644   O     0.14966   0.06491   0.80438   0.00000  Uiso   1.00
C645   C     0.37989   0.07444   0.83991   0.00000  Uiso   1.00
H646   H     0.34926   0.06937   0.81660   0.00000  Uiso   1.00
O647   O     0.39110   0.04231   0.87256   0.00000  Uiso   1.00
C648   C     0.12012   0.25889   0.82686   0.00000  Uiso   1.00
H649   H     0.15059   0.26403   0.85045   0.00000  Uiso   1.00
O650   O     0.10911   0.29092   0.79401   0.00000  Uiso   1.00
O651   O     0.75000   0.09512   0.87895   0.00000  Uiso   1.00
O652   O     0.75000   0.23822   0.78772   0.00000  Uiso   1.00
O653   O     0.75000   0.23822   0.87895   0.00000  Uiso   1.00
O654   O     0.75000   0.09512   0.78772   0.00000  Uiso   1.00
H655   H     0.95901   0.04160   0.81738   0.00000  Uiso   1.00
H656   H     0.54099   0.29175   0.84901   0.00000  Uiso   1.00
H657   H     0.96196   0.29236   0.84956   0.00000  Uiso   1.00
H658   H     0.53804   0.04099   0.81684   0.00000  Uiso   1.00
C659   C     0.75034   0.07267   0.83333   0.00000  Uiso   1.00
C660   C     0.74966   0.26067   0.83334   0.00000  Uiso   1.00
O661   O     0.68393   0.16667   0.87896   0.00000  Uiso   1.00
O662   O     0.81608   0.16667   0.78770   0.00000  Uiso   1.00
O663   O     0.81608   0.16667   0.87896   0.00000  Uiso   1.00
O664   O     0.68393   0.16667   0.78770   0.00000  Uiso   1.00
C665   C     0.66346   0.16605   0.83310   0.00000  Uiso   1.00
C666   C     0.83654   0.16728   0.83356   0.00000  Uiso   1.00
Zn667  Zn    0.75000   0.16667   0.89426   0.00000  Uiso   1.00
Zn668  Zn    0.75000   0.16667   0.77241   0.00000  Uiso   1.00
N669   N     0.75000   0.16667   0.69121   0.00000  Uiso   1.00
N670   N     0.75000   0.16667   0.97545   0.00000  Uiso   1.00
C671   C     0.90708   0.21304   0.83514   0.00000  Uiso   1.00
C672   C     0.59292   0.12029   0.83143   0.00000  Uiso   1.00
C673   C     0.90619   0.12141   0.83468   0.00000  Uiso   1.00
C674   C     0.59381   0.21192   0.83196   0.00000  Uiso   1.00
C675   C     0.88414   0.16731   0.83431   0.00000  Uiso   1.00
C676   C     0.61586   0.16601   0.83234   0.00000  Uiso   1.00
C677   C     0.95275   0.12119   0.83139   0.00000  Uiso   1.00
C678   C     0.54725   0.21215   0.83515   0.00000  Uiso   1.00
C679   C     0.95370   0.21265   0.83682   0.00000  Uiso   1.00
C680   C     0.54630   0.12068   0.82969   0.00000  Uiso   1.00
C681   C     0.97656   0.16679   0.83367   0.00000  Uiso   1.00
C682   C     0.52344   0.16654   0.83285   0.00000  Uiso   1.00
C683   C     0.97601   0.07661   0.82403   0.00000  Uiso   1.00
C684   C     0.52399   0.25673   0.84243   0.00000  Uiso   1.00
C685   C     0.97805   0.25702   0.84304   0.00000  Uiso   1.00
C686   C     0.52195   0.07632   0.82341   0.00000  Uiso   1.00
C687   C     0.75014   0.02171   0.83332   0.00000  Uiso   1.00
C688   C     0.74986   0.31162   0.83334   0.00000  Uiso   1.00
C689   C     0.88252   0.26108   0.83303   0.00000  Uiso   1.00
H690   H     0.89385   0.29068   0.80617   0.00000  Uiso   1.00
O691   O     0.85041   0.26845   0.86233   0.00000  Uiso   1.00
C692   C     0.61747   0.07224   0.83356   0.00000  Uiso   1.00
H693   H     0.60607   0.04261   0.86035   0.00000  Uiso   1.00
O694   O     0.64966   0.06491   0.80438   0.00000  Uiso   1.00
C695   C     0.87989   0.07444   0.83991   0.00000  Uiso   1.00
H696   H     0.84926   0.06937   0.81660   0.00000  Uiso   1.00
O697   O     0.89110   0.04231   0.87256   0.00000  Uiso   1.00
C698   C     0.62012   0.25889   0.82686   0.00000  Uiso   1.00
H699   H     0.65059   0.26403   0.85045   0.00000  Uiso   1.00
O700   O     0.60911   0.29092   0.79401   0.00000  Uiso   1.00
O701   O     0.25000   0.42845   0.87895   0.00000  Uiso   1.00
O702   O     0.25000   0.57155   0.78772   0.00000  Uiso   1.00
O703   O     0.25000   0.57155   0.87895   0.00000  Uiso   1.00
O704   O     0.25000   0.42845   0.78772   0.00000  Uiso   1.00
H705   H     0.45901   0.37493   0.81738   0.00000  Uiso   1.00
H706   H     0.04099   0.62509   0.84901   0.00000  Uiso   1.00
H707   H     0.46196   0.62570   0.84956   0.00000  Uiso   1.00
H708   H     0.03804   0.37432   0.81684   0.00000  Uiso   1.00
C709   C     0.25034   0.40600   0.83333   0.00000  Uiso   1.00
C710   C     0.24966   0.59400   0.83334   0.00000  Uiso   1.00
O711   O     0.18393   0.50000   0.87896   0.00000  Uiso   1.00
O712   O     0.31608   0.50000   0.78770   0.00000  Uiso   1.00
O713   O     0.31608   0.50000   0.87896   0.00000  Uiso   1.00
O714   O     0.18393   0.50000   0.78770   0.00000  Uiso   1.00
C715   C     0.16346   0.49938   0.83310   0.00000  Uiso   1.00
C716   C     0.33654   0.50062   0.83356   0.00000  Uiso   1.00
Zn717  Zn    0.25000   0.50000   0.89426   0.00000  Uiso   1.00
Zn718  Zn    0.25000   0.50000   0.77241   0.00000  Uiso   1.00
N719   N     0.25000   0.50000   0.69121   0.00000  Uiso   1.00
N720   N     0.25000   0.50000   0.97545   0.00000  Uiso   1.00
C721   C     0.40708   0.54638   0.83514   0.00000  Uiso   1.00
C722   C     0.09292   0.45362   0.83143   0.00000  Uiso   1.00
C723   C     0.40619   0.45474   0.83468   0.00000  Uiso   1.00
C724   C     0.09381   0.54525   0.83196   0.00000  Uiso   1.00
C725   C     0.38414   0.50065   0.83431   0.00000  Uiso   1.00
C726   C     0.11586   0.49935   0.83234   0.00000  Uiso   1.00
C727   C     0.45275   0.45452   0.83139   0.00000  Uiso   1.00
C728   C     0.04725   0.54548   0.83515   0.00000  Uiso   1.00
C729   C     0.45370   0.54599   0.83682   0.00000  Uiso   1.00
C730   C     0.04630   0.45402   0.82969   0.00000  Uiso   1.00
C731   C     0.47656   0.50013   0.83367   0.00000  Uiso   1.00
C732   C     0.02344   0.49988   0.83285   0.00000  Uiso   1.00
C733   C     0.47601   0.40995   0.82403   0.00000  Uiso   1.00
C734   C     0.02399   0.59007   0.84243   0.00000  Uiso   1.00
C735   C     0.47805   0.59035   0.84304   0.00000  Uiso   1.00
C736   C     0.02195   0.40966   0.82341   0.00000  Uiso   1.00
C737   C     0.25014   0.35505   0.83332   0.00000  Uiso   1.00
C738   C     0.24986   0.64495   0.83334   0.00000  Uiso   1.00
C739   C     0.38252   0.59442   0.83303   0.00000  Uiso   1.00
H740   H     0.39385   0.62401   0.80617   0.00000  Uiso   1.00
O741   O     0.35041   0.60178   0.86233   0.00000  Uiso   1.00
C742   C     0.11747   0.40557   0.83356   0.00000  Uiso   1.00
H743   H     0.10607   0.37594   0.86035   0.00000  Uiso   1.00
O744   O     0.14966   0.39824   0.80438   0.00000  Uiso   1.00
C745   C     0.37989   0.40777   0.83991   0.00000  Uiso   1.00
H746   H     0.34926   0.40270   0.81660   0.00000  Uiso   1.00
O747   O     0.39110   0.37565   0.87256   0.00000  Uiso   1.00
C748   C     0.12012   0.59222   0.82686   0.00000  Uiso   1.00
H749   H     0.15059   0.59736   0.85045   0.00000  Uiso   1.00
O750   O     0.10911   0.62426   0.79401   0.00000  Uiso   1.00
O751   O     0.75000   0.42845   0.87895   0.00000  Uiso   1.00
O752   O     0.75000   0.57155   0.78772   0.00000  Uiso   1.00
O753   O     0.75000   0.57155   0.87895   0.00000  Uiso   1.00
O754   O     0.75000   0.42845   0.78772   0.00000  Uiso   1.00
H755   H     0.95901   0.37493   0.81738   0.00000  Uiso   1.00
H756   H     0.54099   0.62509   0.84901   0.00000  Uiso   1.00
H757   H     0.96196   0.62570   0.84956   0.00000  Uiso   1.00
H758   H     0.53804   0.37432   0.81684   0.00000  Uiso   1.00
C759   C     0.75034   0.40600   0.83333   0.00000  Uiso   1.00
C760   C     0.74966   0.59400   0.83334   0.00000  Uiso   1.00
O761   O     0.68393   0.50000   0.87896   0.00000  Uiso   1.00
O762   O     0.81608   0.50000   0.78770   0.00000  Uiso   1.00
O763   O     0.81608   0.50000   0.87896   0.00000  Uiso   1.00
O764   O     0.68393   0.50000   0.78770   0.00000  Uiso   1.00
C765   C     0.66346   0.49938   0.83310   0.00000  Uiso   1.00
C766   C     0.83654   0.50062   0.83356   0.00000  Uiso   1.00
Zn767  Zn    0.75000   0.50000   0.89426   0.00000  Uiso   1.00
Zn768  Zn    0.75000   0.50000   0.77241   0.00000  Uiso   1.00
N769   N     0.75000   0.50000   0.69121   0.00000  Uiso   1.00
N770   N     0.75000   0.50000   0.97545   0.00000  Uiso   1.00
C771   C     0.90708   0.54638   0.83514   0.00000  Uiso   1.00
C772   C     0.59292   0.45362   0.83143   0.00000  Uiso   1.00
C773   C     0.90619   0.45474   0.83468   0.00000  Uiso   1.00
C774   C     0.59381   0.54525   0.83196   0.00000  Uiso   1.00
C775   C     0.88414   0.50065   0.83431   0.00000  Uiso   1.00
C776   C     0.61586   0.49935   0.83234   0.00000  Uiso   1.00
C777   C     0.95275   0.45452   0.83139   0.00000  Uiso   1.00
C778   C     0.54725   0.54548   0.83515   0.00000  Uiso   1.00
C779   C     0.95370   0.54599   0.83682   0.00000  Uiso   1.00
C780   C     0.54630   0.45402   0.82969   0.00000  Uiso   1.00
C781   C     0.97656   0.50013   0.83367   0.00000  Uiso   1.00
C782   C     0.52344   0.49988   0.83285   0.00000  Uiso   1.00
C783   C     0.97601   0.40995   0.82403   0.00000  Uiso   1.00
C784   C     0.52399   0.59007   0.84243   0.00000  Uiso   1.00
C785   C     0.97805   0.59035   0.84304   0.00000  Uiso   1.00
C786   C     0.52195   0.40966   0.82341   0.00000  Uiso   1.00
C787   C     0.75014   0.35505   0.83332   0.00000  Uiso   1.00
C788   C     0.74986   0.64495   0.83334   0.00000  Uiso   1.00
C789   C     0.88252   0.59442   0.83303   0.00000  Uiso   1.00
H790   H     0.89385   0.62401   0.80617   0.00000  Uiso   1.00
O791   O     0.85041   0.60178   0.86233   0.00000  Uiso   1.00
C792   C     0.61747   0.40557   0.83356   0.00000  Uiso   1.00
H793   H     0.60607   0.37594   0.86035   0.00000  Uiso   1.00
O794   O     0.64966   0.39824   0.80438   0.00000  Uiso   1.00
C795   C     0.87989   0.40777   0.83991   0.00000  Uiso   1.00
H796   H     0.84926   0.40270   0.81660   0.00000  Uiso   1.00
O797   O     0.89110   0.37565   0.87256   0.00000  Uiso   1.00
C798   C     0.62012   0.59222   0.82686   0.00000  Uiso   1.00
H799   H     0.65059   0.59736   0.85045   0.00000  Uiso   1.00
O800   O     0.60911   0.62426   0.79401   0.00000  Uiso   1.00
O801   O     0.25000   0.76178   0.87895   0.00000  Uiso   1.00
O802   O     0.25000   0.90488   0.78772   0.00000  Uiso   1.00
O803   O     0.25000   0.90488   0.87895   0.00000  Uiso   1.00
O804   O     0.25000   0.76178   0.78772   0.00000  Uiso   1.00
H805   H     0.45901   0.70827   0.81738   0.00000  Uiso   1.00
H806   H     0.04099   0.95842   0.84901   0.00000  Uiso   1.00
H807   H     0.46196   0.95903   0.84956   0.00000  Uiso   1.00
H808   H     0.03804   0.70765   0.81684   0.00000  Uiso   1.00
C809   C     0.25034   0.73933   0.83333   0.00000  Uiso   1.00
C810   C     0.24966   0.92733   0.83334   0.00000  Uiso   1.00
O811   O     0.18393   0.83333   0.87896   0.00000  Uiso   1.00
O812   O     0.31608   0.83333   0.78770   0.00000  Uiso   1.00
O813   O     0.31608   0.83333   0.87896   0.00000  Uiso   1.00
O814   O     0.18393   0.83333   0.78770   0.00000  Uiso   1.00
C815   C     0.16346   0.83272   0.83310   0.00000  Uiso   1.00
C816   C     0.33654   0.83395   0.83356   0.00000  Uiso   1.00
Zn817  Zn    0.25000   0.83333   0.89426   0.00000  Uiso   1.00
Zn818  Zn    0.25000   0.83333   0.77241   0.00000  Uiso   1.00
N819   N     0.25000   0.83333   0.69121   0.00000  Uiso   1.00
N820   N     0.25000   0.83333   0.97545   0.00000  Uiso   1.00
C821   C     0.40708   0.87971   0.83514   0.00000  Uiso   1.00
C822   C     0.09292   0.78695   0.83143   0.00000  Uiso   1.00
C823   C     0.40619   0.78808   0.83468   0.00000  Uiso   1.00
C824   C     0.09381   0.87858   0.83196   0.00000  Uiso   1.00
C825   C     0.38414   0.83398   0.83431   0.00000  Uiso   1.00
C826   C     0.11586   0.83268   0.83234   0.00000  Uiso   1.00
C827   C     0.45275   0.78786   0.83139   0.00000  Uiso   1.00
C828   C     0.04725   0.87881   0.83515   0.00000  Uiso   1.00
C829   C     0.45370   0.87932   0.83682   0.00000  Uiso   1.00
C830   C     0.04630   0.78735   0.82969   0.00000  Uiso   1.00
C831   C     0.47656   0.83346   0.83367   0.00000  Uiso   1.00
C832   C     0.02344   0.83321   0.83285   0.00000  Uiso   1.00
C833   C     0.47601   0.74328   0.82403   0.00000  Uiso   1.00
C834   C     0.02399   0.92340   0.84243   0.00000  Uiso   1.00
C835   C     0.47805   0.92369   0.84304   0.00000  Uiso   1.00
C836   C     0.02195   0.74299   0.82341   0.00000  Uiso   1.00
C837   C     0.25014   0.68838   0.83332   0.00000  Uiso   1.00
C838   C     0.24986   0.97829   0.83334   0.00000  Uiso   1.00
C839   C     0.38252   0.92775   0.83303   0.00000  Uiso   1.00
H840   H     0.39385   0.95735   0.80617   0.00000  Uiso   1.00
O841   O     0.35041   0.93511   0.86233   0.00000  Uiso   1.00
C842   C     0.11747   0.73891   0.83356   0.00000  Uiso   1.00
H843   H     0.10607   0.70928   0.86035   0.00000  Uiso   1.00
O844   O     0.14966   0.73157   0.80438   0.00000  Uiso   1.00
C845   C     0.37989   0.74111   0.83991   0.00000  Uiso   1.00
H846   H     0.34926   0.73604   0.81660   0.00000  Uiso   1.00
O847   O     0.39110   0.70898   0.87256   0.00000  Uiso   1.00
C848   C     0.12012   0.92555   0.82686   0.00000  Uiso   1.00
H849   H     0.15059   0.93069   0.85045   0.00000  Uiso   1.00
O850   O     0.10911   0.95759   0.79401   0.00000  Uiso   1.00
O851   O     0.75000   0.76178   0.87895   0.00000  Uiso   1.00
O852   O     0.75000   0.90488   0.78772   0.00000  Uiso   1.00
O853   O     0.75000   0.90488   0.87895   0.00000  Uiso   1.00
O854   O     0.75000   0.76178   0.78772   0.00000  Uiso   1.00
H855   H     0.95901   0.70827   0.81738   0.00000  Uiso   1.00
H856   H     0.54099   0.95842   0.84901   0.00000  Uiso   1.00
H857   H     0.96196   0.95903   0.84956   0.00000  Uiso   1.00
H858   H     0.53804   0.70765   0.81684   0.00000  Uiso   1.00
C859   C     0.75034   0.73933   0.83333   0.00000  Uiso   1.00
C860   C     0.74966   0.92733   0.83334   0.00000  Uiso   1.00
O861   O     0.68393   0.83333   0.87896   0.00000  Uiso   1.00
O862   O     0.81608   0.83333   0.78770   0.00000  Uiso   1.00
O863   O     0.81608   0.83333   0.87896   0.00000  Uiso   1.00
O864   O     0.68393   0.83333   0.78770   0.00000  Uiso   1.00
C865   C     0.66346   0.83272   0.83310   0.00000  Uiso   1.00
C866   C     0.83654   0.83395   0.83356   0.00000  Uiso   1.00
Zn867  Zn    0.75000   0.83333   0.89426   0.00000  Uiso   1.00
Zn868  Zn    0.75000   0.83333   0.77241   0.00000  Uiso   1.00
N869   N     0.75000   0.83333   0.69121   0.00000  Uiso   1.00
N870   N     0.75000   0.83333   0.97545   0.00000  Uiso   1.00
C871   C     0.90708   0.87971   0.83514   0.00000  Uiso   1.00
C872   C     0.59292   0.78695   0.83143   0.00000  Uiso   1.00
C873   C     0.90619   0.78808   0.83468   0.00000  Uiso   1.00
C874   C     0.59381   0.87858   0.83196   0.00000  Uiso   1.00
C875   C     0.88414   0.83398   0.83431   0.00000  Uiso   1.00
C876   C     0.61586   0.83268   0.83234   0.00000  Uiso   1.00
C877   C     0.95275   0.78786   0.83139   0.00000  Uiso   1.00
C878   C     0.54725   0.87881   0.83515   0.00000  Uiso   1.00
C879   C     0.95370   0.87932   0.83682   0.00000  Uiso   1.00
C880   C     0.54630   0.78735   0.82969   0.00000  Uiso   1.00
C881   C     0.97656   0.83346   0.83367   0.00000  Uiso   1.00
C882   C     0.52344   0.83321   0.83285   0.00000  Uiso   1.00
C883   C     0.97601   0.74328   0.82403   0.00000  Uiso   1.00
C884   C     0.52399   0.92340   0.84243   0.00000  Uiso   1.00
C885   C     0.97805   0.92369   0.84304   0.00000  Uiso   1.00
C886   C     0.52195   0.74299   0.82341   0.00000  Uiso   1.00
C887   C     0.75014   0.68838   0.83332   0.00000  Uiso   1.00
C888   C     0.74986   0.97829   0.83334   0.00000  Uiso   1.00
C889   C     0.88252   0.92775   0.83303   0.00000  Uiso   1.00
H890   H     0.89385   0.95735   0.80617   0.00000  Uiso   1.00
O891   O     0.85041   0.93511   0.86233   0.00000  Uiso   1.00
C892   C     0.61747   0.73891   0.83356   0.00000  Uiso   1.00
H893   H     0.60607   0.70928   0.86035   0.00000  Uiso   1.00
O894   O     0.64966   0.73157   0.80438   0.00000  Uiso   1.00
C895   C     0.87989   0.74111   0.83991   0.00000  Uiso   1.00
H896   H     0.84926   0.73604   0.81660   0.00000  Uiso   1.00
O897   O     0.89110   0.70898   0.87256   0.00000  Uiso   1.00
C898   C     0.62012   0.92555   0.82686   0.00000  Uiso   1.00
H899   H     0.65059   0.93069   0.85045   0.00000  Uiso   1.00
O900   O     0.60911   0.95759   0.79401   0.00000  Uiso   1.00
loop_
_geom_bond_atom_site_label_1
_geom_bond_atom_site_label_2
_geom_bond_distance
_geom_bond_site_symmetry_2
_ccdc_geom_bond_type
O1     Zn17    1.958   .     S
O1     C9      1.264   .     A
O2     Zn18    1.958   .     S
O2     C10     1.264   .     A
O3     C10     1.264   .     A
O3     Zn17    1.959   .     S
O4     Zn18    1.959   .     S
O4     C9      1.264   .     A
H5     C33     1.080   .     S
H6     C34     1.080   .     S
H7     C35     1.080   .     S
H8     C36     1.080   .     S
C9     C37     1.369   .     S
C10    C38     1.369   .     S
O11    C15     1.271   .     A
O11    Zn17    2.016   .     S
O12    C16     1.271   .     A
O12    Zn18    2.016   .     S
O13    Zn17    2.021   .     S
O13    C16     1.269   .     A
O14    Zn18    2.021   .     S
O14    C15     1.269   .     A
C15    C26     1.429   .     S
C16    C25     1.429   .     S
Zn17   N20     1.977   .     S
Zn18   N19     1.977   .     S
N19    N620    1.195   1_554 S
N20    N319    1.195   .     S
C21    C39     1.491   .     S
C21    C25     1.406   .     A
C21    C29     1.400   .     A
C22    C42     1.491   .     S
C22    C26     1.406   .     A
C22    C30     1.400   .     A
C23    C45     1.491   .     S
C23    C27     1.401   .     A
C23    C25     1.403   .     A
C24    C28     1.401   .     A
C24    C26     1.403   .     A
C24    C48     1.491   .     S
C27    C33     1.401   .     A
C27    C31     1.416   .     A
C28    C34     1.401   .     A
C28    C32     1.416   .     A
C29    C31     1.416   .     A
C29    C35     1.403   .     A
C30    C36     1.403   .     A
C30    C32     1.416   .     A
C31    C82     1.408   .     S
C32    C81     1.408   1_455 S
C33    C86     1.380   .     S
C34    C85     1.380   1_455 S
C35    C84     1.380   .     S
C36    C83     1.380   1_455 S
C37    C238    1.167   1_545 S
C38    C137    1.167   .     S
C39    O41     1.220   .     D
C39    H40     1.085   .     S
C42    O44     1.220   .     D
C42    H43     1.085   .     S
C45    H46     1.085   .     S
C45    O47     1.221   .     D
C48    O50     1.221   .     D
C48    H49     1.085   .     S
O51    Zn67    1.958   .     S
O51    C59     1.264   .     A
O52    Zn68    1.958   .     S
O52    C60     1.264   .     A
O53    C60     1.264   .     A
O53    Zn67    1.959   .     S
O54    Zn68    1.959   .     S
O54    C59     1.264   .     A
H55    C83     1.080   .     S
H56    C84     1.080   .     S
H57    C85     1.080   .     S
H58    C86     1.080   .     S
C59    C87     1.369   .     S
C60    C88     1.369   .     S
O61    C65     1.271   .     A
O61    Zn67    2.016   .     S
O62    C66     1.271   .     A
O62    Zn68    2.016   .     S
O63    Zn67    2.021   .     S
O63    C66     1.269   .     A
O64    Zn68    2.021   .     S
O64    C65     1.269   .     A
C65    C76     1.429   .     S
C66    C75     1.429   .     S
Zn67   N70     1.977   .     S
Zn68   N69     1.977   .     S
N69    N670    1.195   1_554 S
N70    N369    1.195   .     S
C71    C89     1.491   .     S
C71    C75     1.406   .     A
C71    C79     1.400   .     A
C72    C92     1.491   .     S
C72    C76     1.406   .     A
C72    C80     1.400   .     A
C73    C95     1.491   .     S
C73    C77     1.401   .     A
C73    C75     1.403   .     A
C74    C78     1.401   .     A
C74    C76     1.403   .     A
C74    C98     1.491   .     S
C77    C83     1.401   .     A
C77    C81     1.416   .     A
C78    C84     1.401   .     A
C78    C82     1.416   .     A
C79    C81     1.416   .     A
C79    C85     1.403   .     A
C80    C86     1.403   .     A
C80    C82     1.416   .     A
C81    C32     1.408   1_655 S
C83    C36     1.380   1_655 S
C85    C34     1.380   1_655 S
C87    C288    1.167   1_545 S
C88    C187    1.167   .     S
C89    O91     1.220   .     D
C89    H90     1.085   .     S
C92    O94     1.220   .     D
C92    H93     1.085   .     S
C95    H96     1.085   .     S
C95    O97     1.221   .     D
C98    O100    1.221   .     D
C98    H99     1.085   .     S
O101   Zn117   1.958   .     S
O101   C109    1.264   .     A
O102   Zn118   1.958   .     S
O102   C110    1.264   .     A
O103   C110    1.264   .     A
O103   Zn117   1.959   .     S
O104   Zn118   1.959   .     S
O104   C109    1.264   .     A
H105   C133    1.080   .     S
H106   C134    1.080   .     S
H107   C135    1.080   .     S
H108   C136    1.080   .     S
C109   C137    1.369   .     S
C110   C138    1.369   .     S
O111   C115    1.271   .     A
O111   Zn117   2.016   .     S
O112   C116    1.271   .     A
O112   Zn118   2.016   .     S
O113   Zn117   2.021   .     S
O113   C116    1.269   .     A
O114   Zn118   2.021   .     S
O114   C115    1.269   .     A
C115   C126    1.429   .     S
C116   C125    1.429   .     S
Zn117  N120    1.977   .     S
Zn118  N119    1.977   .     S
N119   N720    1.195   1_554 S
N120   N419    1.195   .     S
C121   C139    1.491   .     S
C121   C125    1.406   .     A
C121   C129    1.400   .     A
C122   C142    1.491   .     S
C122   C126    1.406   .     A
C122   C130    1.400   .     A
C123   C145    1.491   .     S
C123   C127    1.401   .     A
C123   C125    1.403   .     A
C124   C128    1.401   .     A
C124   C126    1.403   .     A
C124   C148    1.491   .     S
C127   C133    1.401   .     A
C127   C131    1.416   .     A
C128   C134    1.401   .     A
C128   C132    1.416   .     A
C129   C131    1.416   .     A
C129   C135    1.403   .     A
C130   C136    1.403   .     A
C130   C132    1.416   .     A
C131   C182    1.408   .     S
C132   C181    1.408   1_455 S
C133   C186    1.380   .     S
C134   C185    1.380   1_455 S
C135   C184    1.380   .     S
C136   C183    1.380   1_455 S
C138   C237    1.167   .     S
C139   O141    1.220   .     D
C139   H140    1.085   .     S
C142   O144    1.220   .     D
C142   H143    1.085   .     S
C145   H146    1.085   .     S
C145   O147    1.221   .     D
C148   O150    1.221   .     D
C148   H149    1.085   .     S
O151   Zn167   1.958   .     S
O151   C159    1.264   .     A
O152   Zn168   1.958   .     S
O152   C160    1.264   .     A
O153   C160    1.264   .     A
O153   Zn167   1.959   .     S
O154   Zn168   1.959   .     S
O154   C159    1.264   .     A
H155   C183    1.080   .     S
H156   C184    1.080   .     S
H157   C185    1.080   .     S
H158   C186    1.080   .     S
C159   C187    1.369   .     S
C160   C188    1.369   .     S
O161   C165    1.271   .     A
O161   Zn167   2.016   .     S
O162   C166    1.271   .     A
O162   Zn168   2.016   .     S
O163   Zn167   2.021   .     S
O163   C166    1.269   .     A
O164   Zn168   2.021   .     S
O164   C165    1.269   .     A
C165   C176    1.429   .     S
C166   C175    1.429   .     S
Zn167  N170    1.977   .     S
Zn168  N169    1.977   .     S
N169   N770    1.195   1_554 S
N170   N469    1.195   .     S
C171   C189    1.491   .     S
C171   C175    1.406   .     A
C171   C179    1.400   .     A
C172   C192    1.491   .     S
C172   C176    1.406   .     A
C172   C180    1.400   .     A
C173   C195    1.491   .     S
C173   C177    1.401   .     A
C173   C175    1.403   .     A
C174   C178    1.401   .     A
C174   C176    1.403   .     A
C174   C198    1.491   .     S
C177   C183    1.401   .     A
C177   C181    1.416   .     A
C178   C184    1.401   .     A
C178   C182    1.416   .     A
C179   C181    1.416   .     A
C179   C185    1.403   .     A
C180   C186    1.403   .     A
C180   C182    1.416   .     A
C181   C132    1.408   1_655 S
C183   C136    1.380   1_655 S
C185   C134    1.380   1_655 S
C188   C287    1.167   .     S
C189   O191    1.220   .     D
C189   H190    1.085   .     S
C192   O194    1.220   .     D
C192   H193    1.085   .     S
C195   H196    1.085   .     S
C195   O197    1.221   .     D
C198   O200    1.221   .     D
C198   H199    1.085   .     S
O201   Zn217   1.958   .     S
O201   C209    1.264   .     A
O202   Zn218   1.958   .     S
O202   C210    1.264   .     A
O203   C210    1.264   .     A
O203   Zn217   1.959   .     S
O204   Zn218   1.959   .     S
O204   C209    1.264   .     A
H205   C233    1.080   .     S
H206   C234    1.080   .     S
H207   C235    1.080   .     S
H208   C236    1.080   .     S
C209   C237    1.369   .     S
C210   C238    1.369   .     S
O211   C215    1.271   .     A
O211   Zn217   2.016   .     S
O212   C216    1.271   .     A
O212   Zn218   2.016   .     S
O213   Zn217   2.021   .     S
O213   C216    1.269   .     A
O214   Zn218   2.021   .     S
O214   C215    1.269   .     A
C215   C226    1.429   .     S
C216   C225    1.429   .     S
Zn217  N220    1.977   .     S
Zn218  N219    1.977   .     S
N219   N820    1.195   1_554 S
N220   N519    1.195   .     S
C221   C239    1.491   .     S
C221   C225    1.406   .     A
C221   C229    1.400   .     A
C222   C242    1.491   .     S
C222   C226    1.406   .     A
C222   C230    1.400   .     A
C223   C245    1.491   .     S
C223   C227    1.401   .     A
C223   C225    1.403   .     A
C224   C228    1.401   .     A
C224   C226    1.403   .     A
C224   C248    1.491   .     S
C227   C233    1.401   .     A
C227   C231    1.416   .     A
C228   C234    1.401   .     A
C228   C232    1.416   .     A
C229   C231    1.416   .     A
C229   C235    1.403   .     A
C230   C236    1.403   .     A
C230   C232    1.416   .     A
C231   C282    1.408   .     S
C232   C281    1.408   1_455 S
C233   C286    1.380   .     S
C234   C285    1.380   1_455 S
C235   C284    1.380   .     S
C236   C283    1.380   1_455 S
C238   C37     1.167   1_565 S
C239   O241    1.220   .     D
C239   H240    1.085   .     S
C242   O244    1.220   .     D
C242   H243    1.085   .     S
C245   H246    1.085   .     S
C245   O247    1.221   .     D
C248   O250    1.221   .     D
C248   H249    1.085   .     S
O251   Zn267   1.958   .     S
O251   C259    1.264   .     A
O252   Zn268   1.958   .     S
O252   C260    1.264   .     A
O253   C260    1.264   .     A
O253   Zn267   1.959   .     S
O254   Zn268   1.959   .     S
O254   C259    1.264   .     A
H255   C283    1.080   .     S
H256   C284    1.080   .     S
H257   C285    1.080   .     S
H258   C286    1.080   .     S
C259   C287    1.369   .     S
C260   C288    1.369   .     S
O261   C265    1.271   .     A
O261   Zn267   2.016   .     S
O262   C266    1.271   .     A
O262   Zn268   2.016   .     S
O263   Zn267   2.021   .     S
O263   C266    1.269   .     A
O264   Zn268   2.021   .     S
O264   C265    1.269   .     A
C265   C276    1.429   .     S
C266   C275    1.429   .     S
Zn267  N270    1.977   .     S
Zn268  N269    1.977   .     S
N269   N870    1.195   1_554 S
N270   N569    1.195   .     S
C271   C289    1.491   .     S
C271   C275    1.406   .     A
C271   C279    1.400   .     A
C272   C292    1.491   .     S
C272   C276    1.406   .     A
C272   C280    1.400   .     A
C273   C295    1.491   .     S
C273   C277    1.401   .     A
C273   C275    1.403   .     A
C274   C278    1.401   .     A
C274   C276    1.403   .     A
C274   C298    1.491   .     S
C277   C283    1.401   .     A
C277   C281    1.416   .     A
C278   C284    1.401   .     A
C278   C282    1.416   .     A
C279   C281    1.416   .     A
C279   C285    1.403   .     A
C280   C286    1.403   .     A
C280   C282    1.416   .     A
C281   C232    1.408   1_655 S
C283   C236    1.380   1_655 S
C285   C234    1.380   1_655 S
C288   C87     1.167   1_565 S
C289   O291    1.220   .     D
C289   H290    1.085   .     S
C292   O294    1.220   .     D
C292   H293    1.085   .     S
C295   H296    1.085   .     S
C295   O297    1.221   .     D
C298   O300    1.221   .     D
C298   H299    1.085   .     S
O301   Zn317   1.958   .     S
O301   C309    1.264   .     A
O302   Zn318   1.958   .     S
O302   C310    1.264   .     A
O303   C310    1.264   .     A
O303   Zn317   1.959   .     S
O304   Zn318   1.959   .     S
O304   C309    1.264   .     A
H305   C333    1.080   .     S
H306   C334    1.080   .     S
H307   C335    1.080   .     S
H308   C336    1.080   .     S
C309   C337    1.369   .     S
C310   C338    1.369   .     S
O311   C315    1.271   .     A
O311   Zn317   2.016   .     S
O312   C316    1.271   .     A
O312   Zn318   2.016   .     S
O313   Zn317   2.021   .     S
O313   C316    1.269   .     A
O314   Zn318   2.021   .     S
O314   C315    1.269   .     A
C315   C326    1.429   .     S
C316   C325    1.429   .     S
Zn317  N320    1.977   .     S
Zn318  N319    1.977   .     S
N320   N619    1.195   .     S
C321   C339    1.491   .     S
C321   C325    1.406   .     A
C321   C329    1.400   .     A
C322   C342    1.491   .     S
C322   C326    1.406   .     A
C322   C330    1.400   .     A
C323   C345    1.491   .     S
C323   C327    1.401   .     A
C323   C325    1.403   .     A
C324   C328    1.401   .     A
C324   C326    1.403   .     A
C324   C348    1.491   .     S
C327   C333    1.401   .     A
C327   C331    1.416   .     A
C328   C334    1.401   .     A
C328   C332    1.416   .     A
C329   C331    1.416   .     A
C329   C335    1.403   .     A
C330   C336    1.403   .     A
C330   C332    1.416   .     A
C331   C382    1.408   .     S
C332   C381    1.408   1_455 S
C333   C386    1.380   .     S
C334   C385    1.380   1_455 S
C335   C384    1.380   .     S
C336   C383    1.380   1_455 S
C337   C538    1.167   1_545 S
C338   C437    1.167   .     S
C339   O341    1.220   .     D
C339   H340    1.085   .     S
C342   O344    1.220   .     D
C342   H343    1.085   .     S
C345   H346    1.085   .     S
C345   O347    1.221   .     D
C348   O350    1.221   .     D
C348   H349    1.085   .     S
O351   Zn367   1.958   .     S
O351   C359    1.264   .     A
O352   Zn368   1.958   .     S
O352   C360    1.264   .     A
O353   C360    1.264   .     A
O353   Zn367   1.959   .     S
O354   Zn368   1.959   .     S
O354   C359    1.264   .     A
H355   C383    1.080   .     S
H356   C384    1.080   .     S
H357   C385    1.080   .     S
H358   C386    1.080   .     S
C359   C387    1.369   .     S
C360   C388    1.369   .     S
O361   C365    1.271   .     A
O361   Zn367   2.016   .     S
O362   C366    1.271   .     A
O362   Zn368   2.016   .     S
O363   Zn367   2.021   .     S
O363   C366    1.269   .     A
O364   Zn368   2.021   .     S
O364   C365    1.269   .     A
C365   C376    1.429   .     S
C366   C375    1.429   .     S
Zn367  N370    1.977   .     S
Zn368  N369    1.977   .     S
N370   N669    1.195   .     S
C371   C389    1.491   .     S
C371   C375    1.406   .     A
C371   C379    1.400   .     A
C372   C392    1.491   .     S
C372   C376    1.406   .     A
C372   C380    1.400   .     A
C373   C395    1.491   .     S
C373   C377    1.401   .     A
C373   C375    1.403   .     A
C374   C378    1.401   .     A
C374   C376    1.403   .     A
C374   C398    1.491   .     S
C377   C383    1.401   .     A
C377   C381    1.416   .     A
C378   C384    1.401   .     A
C378   C382    1.416   .     A
C379   C381    1.416   .     A
C379   C385    1.403   .     A
C380   C386    1.403   .     A
C380   C382    1.416   .     A
C381   C332    1.408   1_655 S
C383   C336    1.380   1_655 S
C385   C334    1.380   1_655 S
C387   C588    1.167   1_545 S
C388   C487    1.167   .     S
C389   O391    1.220   .     D
C389   H390    1.085   .     S
C392   O394    1.220   .     D
C392   H393    1.085   .     S
C395   H396    1.085   .     S
C395   O397    1.221   .     D
C398   O400    1.221   .     D
C398   H399    1.085   .     S
O401   Zn417   1.958   .     S
O401   C409    1.264   .     A
O402   Zn418   1.958   .     S
O402   C410    1.264   .     A
O403   C410    1.264   .     A
O403   Zn417   1.959   .     S
O404   Zn418   1.959   .     S
O404   C409    1.264   .     A
H405   C433    1.080   .     S
H406   C434    1.080   .     S
H407   C435    1.080   .     S
H408   C436    1.080   .     S
C409   C437    1.369   .     S
C410   C438    1.369   .     S
O411   C415    1.271   .     A
O411   Zn417   2.016   .     S
O412   C416    1.271   .     A
O412   Zn418   2.016   .     S
O413   Zn417   2.021   .     S
O413   C416    1.269   .     A
O414   Zn418   2.021   .     S
O414   C415    1.269   .     A
C415   C426    1.429   .     S
C416   C425    1.429   .     S
Zn417  N420    1.977   .     S
Zn418  N419    1.977   .     S
N420   N719    1.195   .     S
C421   C439    1.491   .     S
C421   C425    1.406   .     A
C421   C429    1.400   .     A
C422   C442    1.491   .     S
C422   C426    1.406   .     A
C422   C430    1.400   .     A
C423   C445    1.491   .     S
C423   C427    1.401   .     A
C423   C425    1.403   .     A
C424   C428    1.401   .     A
C424   C426    1.403   .     A
C424   C448    1.491   .     S
C427   C433    1.401   .     A
C427   C431    1.416   .     A
C428   C434    1.401   .     A
C428   C432    1.416   .     A
C429   C431    1.416   .     A
C429   C435    1.403   .     A
C430   C436    1.403   .     A
C430   C432    1.416   .     A
C431   C482    1.408   .     S
C432   C481    1.408   1_455 S
C433   C486    1.380   .     S
C434   C485    1.380   1_455 S
C435   C484    1.380   .     S
C436   C483    1.380   1_455 S
C438   C537    1.167   .     S
C439   O441    1.220   .     D
C439   H440    1.085   .     S
C442   O444    1.220   .     D
C442   H443    1.085   .     S
C445   H446    1.085   .     S
C445   O447    1.221   .     D
C448   O450    1.221   .     D
C448   H449    1.085   .     S
O451   Zn467   1.958   .     S
O451   C459    1.264   .     A
O452   Zn468   1.958   .     S
O452   C460    1.264   .     A
O453   C460    1.264   .     A
O453   Zn467   1.959   .     S
O454   Zn468   1.959   .     S
O454   C459    1.264   .     A
H455   C483    1.080   .     S
H456   C484    1.080   .     S
H457   C485    1.080   .     S
H458   C486    1.080   .     S
C459   C487    1.369   .     S
C460   C488    1.369   .     S
O461   C465    1.271   .     A
O461   Zn467   2.016   .     S
O462   C466    1.271   .     A
O462   Zn468   2.016   .     S
O463   Zn467   2.021   .     S
O463   C466    1.269   .     A
O464   Zn468   2.021   .     S
O464   C465    1.269   .     A
C465   C476    1.429   .     S
C466   C475    1.429   .     S
Zn467  N470    1.977   .     S
Zn468  N469    1.977   .     S
N470   N769    1.195   .     S
C471   C489    1.491   .     S
C471   C475    1.406   .     A
C471   C479    1.400   .     A
C472   C492    1.491   .     S
C472   C476    1.406   .     A
C472   C480    1.400   .     A
C473   C495    1.491   .     S
C473   C477    1.401   .     A
C473   C475    1.403   .     A
C474   C478    1.401   .     A
C474   C476    1.403   .     A
C474   C498    1.491   .     S
C477   C483    1.401   .     A
C477   C481    1.416   .     A
C478   C484    1.401   .     A
C478   C482    1.416   .     A
C479   C481    1.416   .     A
C479   C485    1.403   .     A
C480   C486    1.403   .     A
C480   C482    1.416   .     A
C481   C432    1.408   1_655 S
C483   C436    1.380   1_655 S
C485   C434    1.380   1_655 S
C488   C587    1.167   .     S
C489   O491    1.220   .     D
C489   H490    1.085   .     S
C492   O494    1.220   .     D
C492   H493    1.085   .     S
C495   H496    1.085   .     S
C495   O497    1.221   .     D
C498   O500    1.221   .     D
C498   H499    1.085   .     S
O501   Zn517   1.958   .     S
O501   C509    1.264   .     A
O502   Zn518   1.958   .     S
O502   C510    1.264   .     A
O503   C510    1.264   .     A
O503   Zn517   1.959   .     S
O504   Zn518   1.959   .     S
O504   C509    1.264   .     A
H505   C533    1.080   .     S
H506   C534    1.080   .     S
H507   C535    1.080   .     S
H508   C536    1.080   .     S
C509   C537    1.369   .     S
C510   C538    1.369   .     S
O511   C515    1.271   .     A
O511   Zn517   2.016   .     S
O512   C516    1.271   .     A
O512   Zn518   2.016   .     S
O513   Zn517   2.021   .     S
O513   C516    1.269   .     A
O514   Zn518   2.021   .     S
O514   C515    1.269   .     A
C515   C526    1.429   .     S
C516   C525    1.429   .     S
Zn517  N520    1.977   .     S
Zn518  N519    1.977   .     S
N520   N819    1.195   .     S
C521   C539    1.491   .     S
C521   C525    1.406   .     A
C521   C529    1.400   .     A
C522   C542    1.491   .     S
C522   C526    1.406   .     A
C522   C530    1.400   .     A
C523   C545    1.491   .     S
C523   C527    1.401   .     A
C523   C525    1.403   .     A
C524   C528    1.401   .     A
C524   C526    1.403   .     A
C524   C548    1.491   .     S
C527   C533    1.401   .     A
C527   C531    1.416   .     A
C528   C534    1.401   .     A
C528   C532    1.416   .     A
C529   C531    1.416   .     A
C529   C535    1.403   .     A
C530   C536    1.403   .     A
C530   C532    1.416   .     A
C531   C582    1.408   .     S
C532   C581    1.408   1_455 S
C533   C586    1.380   .     S
C534   C585    1.380   1_455 S
C535   C584    1.380   .     S
C536   C583    1.380   1_455 S
C538   C337    1.167   1_565 S
C539   O541    1.220   .     D
C539   H540    1.085   .     S
C542   O544    1.220   .     D
C542   H543    1.085   .     S
C545   H546    1.085   .     S
C545   O547    1.221   .     D
C548   O550    1.221   .     D
C548   H549    1.085   .     S
O551   Zn567   1.958   .     S
O551   C559    1.264   .     A
O552   Zn568   1.958   .     S
O552   C560    1.264   .     A
O553   C560    1.264   .     A
O553   Zn567   1.959   .     S
O554   Zn568   1.959   .     S
O554   C559    1.264   .     A
H555   C583    1.080   .     S
H556   C584    1.080   .     S
H557   C585    1.080   .     S
H558   C586    1.080   .     S
C559   C587    1.369   .     S
C560   C588    1.369   .     S
O561   C565    1.271   .     A
O561   Zn567   2.016   .     S
O562   C566    1.271   .     A
O562   Zn568   2.016   .     S
O563   Zn567   2.021   .     S
O563   C566    1.269   .     A
O564   Zn568   2.021   .     S
O564   C565    1.269   .     A
C565   C576    1.429   .     S
C566   C575    1.429   .     S
Zn567  N570    1.977   .     S
Zn568  N569    1.977   .     S
N570   N869    1.195   .     S
C571   C589    1.491   .     S
C571   C575    1.406   .     A
C571   C579    1.400   .     A
C572   C592    1.491   .     S
C572   C576    1.406   .     A
C572   C580    1.400   .     A
C573   C595    1.491   .     S
C573   C577    1.401   .     A
C573   C575    1.403   .     A
C574   C578    1.401   .     A
C574   C576    1.403   .     A
C574   C598    1.491   .     S
C577   C583    1.401   .     A
C577   C581    1.416   .     A
C578   C584    1.401   .     A
C578   C582    1.416   .     A
C579   C581    1.416   .     A
C579   C585    1.403   .     A
C580   C586    1.403   .     A
C580   C582    1.416   .     A
C581   C532    1.408   1_655 S
C583   C536    1.380   1_655 S
C585   C534    1.380   1_655 S
C588   C387    1.167   1_565 S
C589   O591    1.220   .     D
C589   H590    1.085   .     S
C592   O594    1.220   .     D
C592   H593    1.085   .     S
C595   H596    1.085   .     S
C595   O597    1.221   .     D
C598   O600    1.221   .     D
C598   H599    1.085   .     S
O601   Zn617   1.958   .     S
O601   C609    1.264   .     A
O602   Zn618   1.958   .     S
O602   C610    1.264   .     A
O603   C610    1.264   .     A
O603   Zn617   1.959   .     S
O604   Zn618   1.959   .     S
O604   C609    1.264   .     A
H605   C633    1.080   .     S
H606   C634    1.080   .     S
H607   C635    1.080   .     S
H608   C636    1.080   .     S
C609   C637    1.369   .     S
C610   C638    1.369   .     S
O611   C615    1.271   .     A
O611   Zn617   2.016   .     S
O612   C616    1.271   .     A
O612   Zn618   2.016   .     S
O613   Zn617   2.021   .     S
O613   C616    1.269   .     A
O614   Zn618   2.021   .     S
O614   C615    1.269   .     A
C615   C626    1.429   .     S
C616   C625    1.429   .     S
Zn617  N620    1.977   .     S
Zn618  N619    1.977   .     S
N620   N19     1.195   1_556 S
C621   C639    1.491   .     S
C621   C625    1.406   .     A
C621   C629    1.400   .     A
C622   C642    1.491   .     S
C622   C626    1.406   .     A
C622   C630    1.400   .     A
C623   C645    1.491   .     S
C623   C627    1.401   .     A
C623   C625    1.403   .     A
C624   C628    1.401   .     A
C624   C626    1.403   .     A
C624   C648    1.491   .     S
C627   C633    1.401   .     A
C627   C631    1.416   .     A
C628   C634    1.401   .     A
C628   C632    1.416   .     A
C629   C631    1.416   .     A
C629   C635    1.403   .     A
C630   C636    1.403   .     A
C630   C632    1.416   .     A
C631   C682    1.408   .     S
C632   C681    1.408   1_455 S
C633   C686    1.380   .     S
C634   C685    1.380   1_455 S
C635   C684    1.380   .     S
C636   C683    1.380   1_455 S
C637   C838    1.167   1_545 S
C638   C737    1.167   .     S
C639   O641    1.220   .     D
C639   H640    1.085   .     S
C642   O644    1.220   .     D
C642   H643    1.085   .     S
C645   H646    1.085   .     S
C645   O647    1.221   .     D
C648   O650    1.221   .     D
C648   H649    1.085   .     S
O651   Zn667   1.958   .     S
O651   C659    1.264   .     A
O652   Zn668   1.958   .     S
O652   C660    1.264   .     A
O653   C660    1.264   .     A
O653   Zn667   1.959   .     S
O654   Zn668   1.959   .     S
O654   C659    1.264   .     A
H655   C683    1.080   .     S
H656   C684    1.080   .     S
H657   C685    1.080   .     S
H658   C686    1.080   .     S
C659   C687    1.369   .     S
C660   C688    1.369   .     S
O661   C665    1.271   .     A
O661   Zn667   2.016   .     S
O662   C666    1.271   .     A
O662   Zn668   2.016   .     S
O663   Zn667   2.021   .     S
O663   C666    1.269   .     A
O664   Zn668   2.021   .     S
O664   C665    1.269   .     A
C665   C676    1.429   .     S
C666   C675    1.429   .     S
Zn667  N670    1.977   .     S
Zn668  N669    1.977   .     S
N670   N69     1.195   1_556 S
C671   C689    1.491   .     S
C671   C675    1.406   .     A
C671   C679    1.400   .     A
C672   C692    1.491   .     S
C672   C676    1.406   .     A
C672   C680    1.400   .     A
C673   C695    1.491   .     S
C673   C677    1.401   .     A
C673   C675    1.403   .     A
C674   C678    1.401   .     A
C674   C676    1.403   .     A
C674   C698    1.491   .     S
C677   C683    1.401   .     A
C677   C681    1.416   .     A
C678   C684    1.401   .     A
C678   C682    1.416   .     A
C679   C681    1.416   .     A
C679   C685    1.403   .     A
C680   C686    1.403   .     A
C680   C682    1.416   .     A
C681   C632    1.408   1_655 S
C683   C636    1.380   1_655 S
C685   C634    1.380   1_655 S
C687   C888    1.167   1_545 S
C688   C787    1.167   .     S
C689   O691    1.220   .     D
C689   H690    1.085   .     S
C692   O694    1.220   .     D
C692   H693    1.085   .     S
C695   H696    1.085   .     S
C695   O697    1.221   .     D
C698   O700    1.221   .     D
C698   H699    1.085   .     S
O701   Zn717   1.958   .     S
O701   C709    1.264   .     A
O702   Zn718   1.958   .     S
O702   C710    1.264   .     A
O703   C710    1.264   .     A
O703   Zn717   1.959   .     S
O704   Zn718   1.959   .     S
O704   C709    1.264   .     A
H705   C733    1.080   .     S
H706   C734    1.080   .     S
H707   C735    1.080   .     S
H708   C736    1.080   .     S
C709   C737    1.369   .     S
C710   C738    1.369   .     S
O711   C715    1.271   .     A
O711   Zn717   2.016   .     S
O712   C716    1.271   .     A
O712   Zn718   2.016   .     S
O713   Zn717   2.021   .     S
O713   C716    1.269   .     A
O714   Zn718   2.021   .     S
O714   C715    1.269   .     A
C715   C726    1.429   .     S
C716   C725    1.429   .     S
Zn717  N720    1.977   .     S
Zn718  N719    1.977   .     S
N720   N119    1.195   1_556 S
C721   C739    1.491   .     S
C721   C725    1.406   .     A
C721   C729    1.400   .     A
C722   C742    1.491   .     S
C722   C726    1.406   .     A
C722   C730    1.400   .     A
C723   C745    1.491   .     S
C723   C727    1.401   .     A
C723   C725    1.403   .     A
C724   C728    1.401   .     A
C724   C726    1.403   .     A
C724   C748    1.491   .     S
C727   C733    1.401   .     A
C727   C731    1.416   .     A
C728   C734    1.401   .     A
C728   C732    1.416   .     A
C729   C731    1.416   .     A
C729   C735    1.403   .     A
C730   C736    1.403   .     A
C730   C732    1.416   .     A
C731   C782    1.408   .     S
C732   C781    1.408   1_455 S
C733   C786    1.380   .     S
C734   C785    1.380   1_455 S
C735   C784    1.380   .     S
C736   C783    1.380   1_455 S
C738   C837    1.167   .     S
C739   O741    1.220   .     D
C739   H740    1.085   .     S
C742   O744    1.220   .     D
C742   H743    1.085   .     S
C745   H746    1.085   .     S
C745   O747    1.221   .     D
C748   O750    1.221   .     D
C748   H749    1.085   .     S
O751   Zn767   1.958   .     S
O751   C759    1.264   .     A
O752   Zn768   1.958   .     S
O752   C760    1.264   .     A
O753   C760    1.264   .     A
O753   Zn767   1.959   .     S
O754   Zn768   1.959   .     S
O754   C759    1.264   .     A
H755   C783    1.080   .     S
H756   C784    1.080   .     S
H757   C785    1.080   .     S
H758   C786    1.080   .     S
C759   C787    1.369   .     S
C760   C788    1.369   .     S
O761   C765    1.271   .     A
O761   Zn767   2.016   .     S
O762   C766    1.271   .     A
O762   Zn768   2.016   .     S
O763   Zn767   2.021   .     S
O763   C766    1.269   .     A
O764   Zn768   2.021   .     S
O764   C765    1.269   .     A
C765   C776    1.429   .     S
C766   C775    1.429   .     S
Zn767  N770    1.977   .     S
Zn768  N769    1.977   .     S
N770   N169    1.195   1_556 S
C771   C789    1.491   .     S
C771   C775    1.406   .     A
C771   C779    1.400   .     A
C772   C792    1.491   .     S
C772   C776    1.406   .     A
C772   C780    1.400   .     A
C773   C795    1.491   .     S
C773   C777    1.401   .     A
C773   C775    1.403   .     A
C774   C778    1.401   .     A
C774   C776    1.403   .     A
C774   C798    1.491   .     S
C777   C783    1.401   .     A
C777   C781    1.416   .     A
C778   C784    1.401   .     A
C778   C782    1.416   .     A
C779   C781    1.416   .     A
C779   C785    1.403   .     A
C780   C786    1.403   .     A
C780   C782    1.416   .     A
C781   C732    1.408   1_655 S
C783   C736    1.380   1_655 S
C785   C734    1.380   1_655 S
C788   C887    1.167   .     S
C789   O791    1.220   .     D
C789   H790    1.085   .     S
C792   O794    1.220   .     D
C792   H793    1.085   .     S
C795   H796    1.085   .     S
C795   O797    1.221   .     D
C798   O800    1.221   .     D
C798   H799    1.085   .     S
O801   Zn817   1.958   .     S
O801   C809    1.264   .     A
O802   Zn818   1.958   .     S
O802   C810    1.264   .     A
O803   C810    1.264   .     A
O803   Zn817   1.959   .     S
O804   Zn818   1.959   .     S
O804   C809    1.264   .     A
H805   C833    1.080   .     S
H806   C834    1.080   .     S
H807   C835    1.080   .     S
H808   C836    1.080   .     S
C809   C837    1.369   .     S
C810   C838    1.369   .     S
O811   C815    1.271   .     A
O811   Zn817   2.016   .     S
O812   C816    1.271   .     A
O812   Zn818   2.016   .     S
O813   Zn817   2.021   .     S
O813   C816    1.269   .     A
O814   Zn818   2.021   .     S
O814   C815    1.269   .     A
C815   C826    1.429   .     S
C816   C825    1.429   .     S
Zn817  N820    1.977   .     S
Zn818  N819    1.977   .     S
N820   N219    1.195   1_556 S
C821   C839    1.491   .     S
C821   C825    1.406   .     A
C821   C829    1.400   .     A
C822   C842    1.491   .     S
C822   C826    1.406   .     A
C822   C830    1.400   .     A
C823   C845    1.491   .     S
C823   C827    1.401   .     A
C823   C825    1.403   .     A
C824   C828    1.401   .     A
C824   C826    1.403   .     A
C824   C848    1.491   .     S
C827   C833    1.401   .     A
C827   C831    1.416   .     A
C828   C834    1.401   .     A
C828   C832    1.416   .     A
C829   C831    1.416   .     A
C829   C835    1.403   .     A
C830   C836    1.403   .     A
C830   C832    1.416   .     A
C831   C882    1.408   .     S
C832   C881    1.408   1_455 S
C833   C886    1.380   .     S
C834   C885    1.380   1_455 S
C835   C884    1.380   .     S
C836   C883    1.380   1_455 S
C838   C637    1.167   1_565 S
C839   O841    1.220   .     D
C839   H840    1.085   .     S
C842   O844    1.220   .     D
C842   H843    1.085   .     S
C845   H846    1.085   .     S
C845   O847    1.221   .     D
C848   O850    1.221   .     D
C848   H849    1.085   .     S
O851   Zn867   1.958   .     S
O851   C859    1.264   .     A
O852   Zn868   1.958   .     S
O852   C860    1.264   .     A
O853   C860    1.264   .     A
O853   Zn867   1.959   .     S
O854   Zn868   1.959   .     S
O854   C859    1.264   .     A
H855   C883    1.080   .     S
H856   C884    1.080   .     S
H857   C885    1.080   .     S
H858   C886    1.080   .     S
C859   C887    1.369   .     S
C860   C888    1.369   .     S
O861   C865    1.271   .     A
O861   Zn867   2.016   .     S
O862   C866    1.271   .     A
O862   Zn868   2.016   .     S
O863   Zn867   2.021   .     S
O863   C866    1.269   .     A
O864   Zn868   2.021   .     S
O864   C865    1.269   .     A
C865   C876    1.429   .     S
C866   C875    1.429   .     S
Zn867  N870    1.977   .     S
Zn868  N869    1.977   .     S
N870   N269    1.195   1_556 S
C871   C889    1.491   .     S
C871   C875    1.406   .     A
C871   C879    1.400   .     A
C872   C892    1.491   .     S
C872   C876    1.406   .     A
C872   C880    1.400   .     A
C873   C895    1.491   .     S
C873   C877    1.401   .     A
C873   C875    1.403   .     A
C874   C878    1.401   .     A
C874   C876    1.403   .     A
C874   C898    1.491   .     S
C877   C883    1.401   .     A
C877   C881    1.416   .     A
C878   C884    1.401   .     A
C878   C882    1.416   .     A
C879   C881    1.416   .     A
C879   C885    1.403   .     A
C880   C886    1.403   .     A
C880   C882    1.416   .     A
C881   C832    1.408   1_655 S
C883   C836    1.380   1_655 S
C885   C834    1.380   1_655 S
C888   C687    1.167   1_565 S
C889   O891    1.220   .     D
C889   H890    1.085   .     S
C892   O894    1.220   .     D
C892   H893    1.085   .     S
C895   H896    1.085   .     S
C895   O897    1.221   .     D
C898   O900    1.221   .     D
C898   H899    1.085   .     S
