data_str_m3_o10_o18_pcu_sym.68
_audit_creation_date              2020-01-03
_audit_creation_method            'Materials Studio'
_symmetry_space_group_name_H-M    'P1'
_symmetry_Int_Tables_number       1
_symmetry_cell_setting            triclinic
loop_
_symmetry_equiv_pos_as_xyz
  x,y,z
_cell_length_a                    24.5426
_cell_length_b                    25.9217
_cell_length_c                    27.7348
_cell_angle_alpha                 103.0087
_cell_angle_beta                  93.2526
_cell_angle_gamma                 91.7442
loop_
_atom_site_label
_atom_site_type_symbol
_atom_site_fract_x
_atom_site_fract_y
_atom_site_fract_z
_atom_site_U_iso_or_equiv
_atom_site_adp_type
_atom_site_occupancy
C1     C     0.01397   0.26432   0.24919   0.00000  Uiso   1.00
C2     C     0.31221   0.16128   0.15868   0.00000  Uiso   1.00
C3     C     0.03384   0.18004   0.39542   0.00000  Uiso   1.00
C4     C     0.29950   0.15329   0.10458   0.00000  Uiso   1.00
C5     C     0.02036   0.21926   0.48181   0.00000  Uiso   1.00
C6     C     0.31297   0.11407   0.01819   0.00000  Uiso   1.00
C7     C     0.00288   0.21090   0.43176   0.00000  Uiso   1.00
C8     C     0.33045   0.12244   0.06824   0.00000  Uiso   1.00
C9     C     0.08334   0.16085   0.41049   0.00000  Uiso   1.00
C10    C     0.25000   0.17249   0.08951   0.00000  Uiso   1.00
C11    C     0.10467   0.17470   0.45991   0.00000  Uiso   1.00
C12    C     0.31936   0.06901   0.25081   0.00000  Uiso   1.00
C13    C     0.22866   0.15864   0.04009   0.00000  Uiso   1.00
C14    C     0.07078   0.20142   0.49610   0.00000  Uiso   1.00
C15    C     0.26256   0.13192   0.00390   0.00000  Uiso   1.00
C16    C     0.15836   0.16210   0.47437   0.00000  Uiso   1.00
C17    C     0.17497   0.17124   0.02563   0.00000  Uiso   1.00
C18    C     0.15335   0.10075   0.20083   0.00000  Uiso   1.00
C19    C     0.10632   0.07032   0.17744   0.00000  Uiso   1.00
C20    C     0.10601   0.01730   0.15165   0.00000  Uiso   1.00
C21    C     0.15466   0.32611   0.14332   0.00000  Uiso   1.00
C22    C     0.20253   0.02276   0.15722   0.00000  Uiso   1.00
C23    C     0.13692   0.19147   0.06071   0.00000  Uiso   1.00
C24    C     0.20118   0.07575   0.18293   0.00000  Uiso   1.00
C25    C     0.17999   0.23259   0.29917   0.00000  Uiso   1.00
C26    C     0.22701   0.26301   0.32256   0.00000  Uiso   1.00
C27    C     0.22733   0.31604   0.34835   0.00000  Uiso   1.00
C28    C     0.17868   0.00722   0.35668   0.00000  Uiso   1.00
C29    C     0.13080   0.31057   0.34278   0.00000  Uiso   1.00
C30    C     0.13216   0.25759   0.31707   0.00000  Uiso   1.00
C31    C     0.19642   0.14186   0.43929   0.00000  Uiso   1.00
C32    C     0.08701   0.20895   0.04620   0.00000  Uiso   1.00
C33    C     0.24633   0.12438   0.45380   0.00000  Uiso   1.00
C34    C     0.02151   0.31853   0.24908   0.00000  Uiso   1.00
C35    C     0.31182   0.01480   0.25092   0.00000  Uiso   1.00
C36    C     0.02112   0.17206   0.34132   0.00000  Uiso   1.00
H37    H     0.06016   0.22687   0.07441   0.00000  Uiso   1.00
H38    H     0.27043   0.33262   0.25243   0.00000  Uiso   1.00
H39    H     0.03020   0.07454   0.10135   0.00000  Uiso   1.00
H40    H     0.30313   0.25879   0.39865   0.00000  Uiso   1.00
H41    H     0.06821   0.08610   0.17625   0.00000  Uiso   1.00
H42    H     0.06784   0.32924   0.13700   0.00000  Uiso   1.00
H43    H     0.15543   0.28555   0.12323   0.00000  Uiso   1.00
H44    H     0.24101   0.00560   0.14655   0.00000  Uiso   1.00
H45    H     0.23881   0.09320   0.18325   0.00000  Uiso   1.00
H46    H     0.26513   0.24724   0.32375   0.00000  Uiso   1.00
H47    H     0.26549   0.00410   0.36300   0.00000  Uiso   1.00
H48    H     0.27318   0.10646   0.42559   0.00000  Uiso   1.00
H49    H     0.17790   0.04778   0.37677   0.00000  Uiso   1.00
H50    H     0.09232   0.32774   0.35345   0.00000  Uiso   1.00
H51    H     0.09453   0.24013   0.31675   0.00000  Uiso   1.00
H52    H     0.22837   0.19841   0.11728   0.00000  Uiso   1.00
H53    H     0.10497   0.13492   0.38272   0.00000  Uiso   1.00
H54    H     0.32853   0.24133   0.00951   0.00000  Uiso   1.00
H55    H     0.00481   0.09201   0.49049   0.00000  Uiso   1.00
H56    H     0.14447   0.19401   0.09986   0.00000  Uiso   1.00
H57    H     0.18886   0.13932   0.40014   0.00000  Uiso   1.00
H58    H     0.06291   0.00072   0.24757   0.00000  Uiso   1.00
N59    N     0.14695   0.15216   0.23739   0.00000  Uiso   1.00
N60    N     0.18638   0.18117   0.26260   0.00000  Uiso   1.00
O61    O     0.29719   0.24631   0.25309   0.00000  Uiso   1.00
O62    O     0.29040   0.23524   0.41961   0.00000  Uiso   1.00
O63    O     0.03614   0.08702   0.24690   0.00000  Uiso   1.00
O64    O     0.05822   0.23702   0.24501   0.00000  Uiso   1.00
O65    O     0.27512   0.09632   0.25499   0.00000  Uiso   1.00
O66    O     0.30328   0.17397   0.32247   0.00000  Uiso   1.00
O67    O     0.03005   0.15937   0.17753   0.00000  Uiso   1.00
O68    O     0.06431   0.16467   0.31439   0.00000  Uiso   1.00
O69    O     0.26902   0.16866   0.18561   0.00000  Uiso   1.00
O70    O     0.04293   0.09810   0.08039   0.00000  Uiso   1.00
Zn71   Zn    0.27033   0.17287   0.25539   0.00000  Uiso   1.00
Zn72   Zn    0.06300   0.16046   0.24460   0.00000  Uiso   1.00
C73    C     0.34731   0.26432   0.24919   0.00000  Uiso   1.00
C74    C     0.64554   0.16128   0.15868   0.00000  Uiso   1.00
C75    C     0.36717   0.18004   0.39542   0.00000  Uiso   1.00
C76    C     0.63283   0.15329   0.10458   0.00000  Uiso   1.00
C77    C     0.35369   0.21926   0.48181   0.00000  Uiso   1.00
C78    C     0.64631   0.11407   0.01819   0.00000  Uiso   1.00
C79    C     0.33622   0.21090   0.43176   0.00000  Uiso   1.00
C80    C     0.66378   0.12244   0.06824   0.00000  Uiso   1.00
C81    C     0.41667   0.16085   0.41049   0.00000  Uiso   1.00
C82    C     0.58333   0.17249   0.08951   0.00000  Uiso   1.00
C83    C     0.43801   0.17470   0.45991   0.00000  Uiso   1.00
C84    C     0.65269   0.06901   0.25081   0.00000  Uiso   1.00
C85    C     0.56199   0.15864   0.04009   0.00000  Uiso   1.00
C86    C     0.40411   0.20142   0.49610   0.00000  Uiso   1.00
C87    C     0.59589   0.13192   0.00390   0.00000  Uiso   1.00
C88    C     0.49170   0.16210   0.47437   0.00000  Uiso   1.00
C89    C     0.50830   0.17124   0.02563   0.00000  Uiso   1.00
C90    C     0.48668   0.10075   0.20083   0.00000  Uiso   1.00
C91    C     0.43965   0.07032   0.17744   0.00000  Uiso   1.00
C92    C     0.43934   0.01730   0.15165   0.00000  Uiso   1.00
C93    C     0.48799   0.32611   0.14332   0.00000  Uiso   1.00
C94    C     0.53586   0.02276   0.15722   0.00000  Uiso   1.00
C95    C     0.47025   0.19147   0.06071   0.00000  Uiso   1.00
C96    C     0.53451   0.07575   0.18293   0.00000  Uiso   1.00
C97    C     0.51332   0.23259   0.29917   0.00000  Uiso   1.00
C98    C     0.56035   0.26301   0.32256   0.00000  Uiso   1.00
C99    C     0.56066   0.31604   0.34835   0.00000  Uiso   1.00
C100   C     0.51201   0.00722   0.35668   0.00000  Uiso   1.00
C101   C     0.46414   0.31057   0.34278   0.00000  Uiso   1.00
C102   C     0.46549   0.25759   0.31707   0.00000  Uiso   1.00
C103   C     0.52975   0.14186   0.43929   0.00000  Uiso   1.00
C104   C     0.42034   0.20895   0.04620   0.00000  Uiso   1.00
C105   C     0.57966   0.12438   0.45380   0.00000  Uiso   1.00
C106   C     0.35484   0.31853   0.24908   0.00000  Uiso   1.00
C107   C     0.64516   0.01480   0.25092   0.00000  Uiso   1.00
C108   C     0.35446   0.17206   0.34132   0.00000  Uiso   1.00
H109   H     0.39349   0.22687   0.07441   0.00000  Uiso   1.00
H110   H     0.60376   0.33262   0.25243   0.00000  Uiso   1.00
H111   H     0.36353   0.07454   0.10135   0.00000  Uiso   1.00
H112   H     0.63647   0.25879   0.39865   0.00000  Uiso   1.00
H113   H     0.40154   0.08610   0.17625   0.00000  Uiso   1.00
H114   H     0.40118   0.32924   0.13700   0.00000  Uiso   1.00
H115   H     0.48877   0.28555   0.12323   0.00000  Uiso   1.00
H116   H     0.57435   0.00560   0.14655   0.00000  Uiso   1.00
H117   H     0.57214   0.09320   0.18325   0.00000  Uiso   1.00
H118   H     0.59846   0.24724   0.32375   0.00000  Uiso   1.00
H119   H     0.59882   0.00410   0.36300   0.00000  Uiso   1.00
H120   H     0.60651   0.10646   0.42559   0.00000  Uiso   1.00
H121   H     0.51123   0.04778   0.37677   0.00000  Uiso   1.00
H122   H     0.42565   0.32774   0.35345   0.00000  Uiso   1.00
H123   H     0.42786   0.24013   0.31675   0.00000  Uiso   1.00
H124   H     0.56170   0.19841   0.11728   0.00000  Uiso   1.00
H125   H     0.43830   0.13492   0.38272   0.00000  Uiso   1.00
H126   H     0.66186   0.24133   0.00951   0.00000  Uiso   1.00
H127   H     0.33814   0.09201   0.49049   0.00000  Uiso   1.00
H128   H     0.47781   0.19401   0.09986   0.00000  Uiso   1.00
H129   H     0.52219   0.13932   0.40014   0.00000  Uiso   1.00
H130   H     0.39624   0.00072   0.24757   0.00000  Uiso   1.00
N131   N     0.48029   0.15216   0.23739   0.00000  Uiso   1.00
N132   N     0.51971   0.18117   0.26260   0.00000  Uiso   1.00
O133   O     0.63052   0.24631   0.25309   0.00000  Uiso   1.00
O134   O     0.62373   0.23524   0.41961   0.00000  Uiso   1.00
O135   O     0.36948   0.08702   0.24690   0.00000  Uiso   1.00
O136   O     0.39155   0.23702   0.24501   0.00000  Uiso   1.00
O137   O     0.60845   0.09632   0.25499   0.00000  Uiso   1.00
O138   O     0.63662   0.17397   0.32247   0.00000  Uiso   1.00
O139   O     0.36338   0.15937   0.17753   0.00000  Uiso   1.00
O140   O     0.39764   0.16467   0.31439   0.00000  Uiso   1.00
O141   O     0.60236   0.16866   0.18561   0.00000  Uiso   1.00
O142   O     0.37627   0.09810   0.08039   0.00000  Uiso   1.00
Zn143  Zn    0.60366   0.17287   0.25539   0.00000  Uiso   1.00
Zn144  Zn    0.39634   0.16046   0.24460   0.00000  Uiso   1.00
C145   C     0.68064   0.26432   0.24919   0.00000  Uiso   1.00
C146   C     0.97888   0.16128   0.15868   0.00000  Uiso   1.00
C147   C     0.70050   0.18004   0.39542   0.00000  Uiso   1.00
C148   C     0.96616   0.15329   0.10458   0.00000  Uiso   1.00
C149   C     0.68703   0.21926   0.48181   0.00000  Uiso   1.00
C150   C     0.97964   0.11407   0.01819   0.00000  Uiso   1.00
C151   C     0.66955   0.21090   0.43176   0.00000  Uiso   1.00
C152   C     0.99712   0.12244   0.06824   0.00000  Uiso   1.00
C153   C     0.75000   0.16085   0.41049   0.00000  Uiso   1.00
C154   C     0.91666   0.17249   0.08951   0.00000  Uiso   1.00
C155   C     0.77134   0.17470   0.45991   0.00000  Uiso   1.00
C156   C     0.98603   0.06901   0.25081   0.00000  Uiso   1.00
C157   C     0.89533   0.15864   0.04009   0.00000  Uiso   1.00
C158   C     0.73744   0.20142   0.49610   0.00000  Uiso   1.00
C159   C     0.92922   0.13192   0.00390   0.00000  Uiso   1.00
C160   C     0.82503   0.16210   0.47437   0.00000  Uiso   1.00
C161   C     0.84164   0.17124   0.02563   0.00000  Uiso   1.00
C162   C     0.82001   0.10075   0.20083   0.00000  Uiso   1.00
C163   C     0.77299   0.07032   0.17744   0.00000  Uiso   1.00
C164   C     0.77267   0.01730   0.15165   0.00000  Uiso   1.00
C165   C     0.82132   0.32611   0.14332   0.00000  Uiso   1.00
C166   C     0.86920   0.02276   0.15722   0.00000  Uiso   1.00
C167   C     0.80358   0.19147   0.06071   0.00000  Uiso   1.00
C168   C     0.86784   0.07575   0.18293   0.00000  Uiso   1.00
C169   C     0.84665   0.23259   0.29917   0.00000  Uiso   1.00
C170   C     0.89368   0.26301   0.32256   0.00000  Uiso   1.00
C171   C     0.89399   0.31604   0.34835   0.00000  Uiso   1.00
C172   C     0.84534   0.00722   0.35668   0.00000  Uiso   1.00
C173   C     0.79747   0.31057   0.34278   0.00000  Uiso   1.00
C174   C     0.79882   0.25759   0.31707   0.00000  Uiso   1.00
C175   C     0.86308   0.14186   0.43929   0.00000  Uiso   1.00
C176   C     0.75367   0.20895   0.04620   0.00000  Uiso   1.00
C177   C     0.91299   0.12438   0.45380   0.00000  Uiso   1.00
C178   C     0.68818   0.31853   0.24908   0.00000  Uiso   1.00
C179   C     0.97849   0.01480   0.25092   0.00000  Uiso   1.00
C180   C     0.68779   0.17206   0.34132   0.00000  Uiso   1.00
H181   H     0.72682   0.22687   0.07441   0.00000  Uiso   1.00
H182   H     0.93709   0.33262   0.25243   0.00000  Uiso   1.00
H183   H     0.69687   0.07454   0.10135   0.00000  Uiso   1.00
H184   H     0.96980   0.25879   0.39865   0.00000  Uiso   1.00
H185   H     0.73488   0.08610   0.17625   0.00000  Uiso   1.00
H186   H     0.73451   0.32924   0.13700   0.00000  Uiso   1.00
H187   H     0.82210   0.28555   0.12323   0.00000  Uiso   1.00
H188   H     0.90768   0.00560   0.14655   0.00000  Uiso   1.00
H189   H     0.90547   0.09320   0.18325   0.00000  Uiso   1.00
H190   H     0.93179   0.24724   0.32375   0.00000  Uiso   1.00
H191   H     0.93216   0.00410   0.36300   0.00000  Uiso   1.00
H192   H     0.93984   0.10646   0.42559   0.00000  Uiso   1.00
H193   H     0.84457   0.04778   0.37677   0.00000  Uiso   1.00
H194   H     0.75899   0.32774   0.35345   0.00000  Uiso   1.00
H195   H     0.76119   0.24013   0.31675   0.00000  Uiso   1.00
H196   H     0.89503   0.19841   0.11728   0.00000  Uiso   1.00
H197   H     0.77163   0.13492   0.38272   0.00000  Uiso   1.00
H198   H     0.99519   0.24133   0.00951   0.00000  Uiso   1.00
H199   H     0.67148   0.09201   0.49049   0.00000  Uiso   1.00
H200   H     0.81114   0.19401   0.09986   0.00000  Uiso   1.00
H201   H     0.85553   0.13932   0.40014   0.00000  Uiso   1.00
H202   H     0.72957   0.00072   0.24757   0.00000  Uiso   1.00
N203   N     0.81362   0.15216   0.23739   0.00000  Uiso   1.00
N204   N     0.85305   0.18117   0.26260   0.00000  Uiso   1.00
O205   O     0.96386   0.24631   0.25309   0.00000  Uiso   1.00
O206   O     0.95707   0.23524   0.41961   0.00000  Uiso   1.00
O207   O     0.70281   0.08702   0.24690   0.00000  Uiso   1.00
O208   O     0.72488   0.23702   0.24501   0.00000  Uiso   1.00
O209   O     0.94178   0.09632   0.25499   0.00000  Uiso   1.00
O210   O     0.96995   0.17397   0.32247   0.00000  Uiso   1.00
O211   O     0.69672   0.15937   0.17753   0.00000  Uiso   1.00
O212   O     0.73098   0.16467   0.31439   0.00000  Uiso   1.00
O213   O     0.93569   0.16866   0.18561   0.00000  Uiso   1.00
O214   O     0.70960   0.09810   0.08039   0.00000  Uiso   1.00
Zn215  Zn    0.93700   0.17287   0.25539   0.00000  Uiso   1.00
Zn216  Zn    0.72967   0.16046   0.24460   0.00000  Uiso   1.00
C217   C     0.01397   0.59765   0.24919   0.00000  Uiso   1.00
C218   C     0.31221   0.49461   0.15868   0.00000  Uiso   1.00
C219   C     0.03384   0.51337   0.39542   0.00000  Uiso   1.00
C220   C     0.29950   0.48663   0.10458   0.00000  Uiso   1.00
C221   C     0.02036   0.55260   0.48181   0.00000  Uiso   1.00
C222   C     0.31297   0.44740   0.01819   0.00000  Uiso   1.00
C223   C     0.00288   0.54423   0.43176   0.00000  Uiso   1.00
C224   C     0.33045   0.45577   0.06824   0.00000  Uiso   1.00
C225   C     0.08334   0.49418   0.41049   0.00000  Uiso   1.00
C226   C     0.25000   0.50582   0.08951   0.00000  Uiso   1.00
C227   C     0.10467   0.50803   0.45991   0.00000  Uiso   1.00
C228   C     0.31936   0.40235   0.25081   0.00000  Uiso   1.00
C229   C     0.22866   0.49197   0.04009   0.00000  Uiso   1.00
C230   C     0.07078   0.53475   0.49610   0.00000  Uiso   1.00
C231   C     0.26256   0.46525   0.00390   0.00000  Uiso   1.00
C232   C     0.15836   0.49543   0.47437   0.00000  Uiso   1.00
C233   C     0.17497   0.50457   0.02563   0.00000  Uiso   1.00
C234   C     0.15335   0.43408   0.20083   0.00000  Uiso   1.00
C235   C     0.10632   0.40365   0.17744   0.00000  Uiso   1.00
C236   C     0.10601   0.35063   0.15165   0.00000  Uiso   1.00
C237   C     0.15466   0.65944   0.14332   0.00000  Uiso   1.00
C238   C     0.20253   0.35610   0.15722   0.00000  Uiso   1.00
C239   C     0.13692   0.52480   0.06071   0.00000  Uiso   1.00
C240   C     0.20118   0.40908   0.18293   0.00000  Uiso   1.00
C241   C     0.17999   0.56592   0.29917   0.00000  Uiso   1.00
C242   C     0.22701   0.59635   0.32256   0.00000  Uiso   1.00
C243   C     0.22733   0.64937   0.34835   0.00000  Uiso   1.00
C244   C     0.17868   0.34056   0.35668   0.00000  Uiso   1.00
C245   C     0.13080   0.64390   0.34278   0.00000  Uiso   1.00
C246   C     0.13216   0.59092   0.31707   0.00000  Uiso   1.00
C247   C     0.19642   0.47520   0.43929   0.00000  Uiso   1.00
C248   C     0.08701   0.54229   0.04620   0.00000  Uiso   1.00
C249   C     0.24633   0.45771   0.45380   0.00000  Uiso   1.00
C250   C     0.02151   0.65186   0.24908   0.00000  Uiso   1.00
C251   C     0.31182   0.34814   0.25092   0.00000  Uiso   1.00
C252   C     0.02112   0.50539   0.34132   0.00000  Uiso   1.00
H253   H     0.06016   0.56021   0.07441   0.00000  Uiso   1.00
H254   H     0.27043   0.66595   0.25243   0.00000  Uiso   1.00
H255   H     0.03020   0.40788   0.10135   0.00000  Uiso   1.00
H256   H     0.30313   0.59212   0.39865   0.00000  Uiso   1.00
H257   H     0.06821   0.41943   0.17625   0.00000  Uiso   1.00
H258   H     0.06784   0.66257   0.13700   0.00000  Uiso   1.00
H259   H     0.15543   0.61889   0.12323   0.00000  Uiso   1.00
H260   H     0.24101   0.33893   0.14655   0.00000  Uiso   1.00
H261   H     0.23881   0.42654   0.18325   0.00000  Uiso   1.00
H262   H     0.26513   0.58057   0.32375   0.00000  Uiso   1.00
H263   H     0.26549   0.33743   0.36300   0.00000  Uiso   1.00
H264   H     0.27318   0.43979   0.42559   0.00000  Uiso   1.00
H265   H     0.17790   0.38111   0.37677   0.00000  Uiso   1.00
H266   H     0.09232   0.66107   0.35345   0.00000  Uiso   1.00
H267   H     0.09453   0.57346   0.31675   0.00000  Uiso   1.00
H268   H     0.22837   0.53175   0.11728   0.00000  Uiso   1.00
H269   H     0.10497   0.46825   0.38272   0.00000  Uiso   1.00
H270   H     0.32853   0.57466   0.00951   0.00000  Uiso   1.00
H271   H     0.00481   0.42534   0.49049   0.00000  Uiso   1.00
H272   H     0.14447   0.52734   0.09986   0.00000  Uiso   1.00
H273   H     0.18886   0.47266   0.40014   0.00000  Uiso   1.00
H274   H     0.06291   0.33405   0.24757   0.00000  Uiso   1.00
N275   N     0.14695   0.48550   0.23739   0.00000  Uiso   1.00
N276   N     0.18638   0.51450   0.26260   0.00000  Uiso   1.00
O277   O     0.29719   0.57964   0.25309   0.00000  Uiso   1.00
O278   O     0.29040   0.56857   0.41961   0.00000  Uiso   1.00
O279   O     0.03614   0.42036   0.24690   0.00000  Uiso   1.00
O280   O     0.05822   0.57035   0.24501   0.00000  Uiso   1.00
O281   O     0.27512   0.42965   0.25499   0.00000  Uiso   1.00
O282   O     0.30328   0.50730   0.32247   0.00000  Uiso   1.00
O283   O     0.03005   0.49270   0.17753   0.00000  Uiso   1.00
O284   O     0.06431   0.49801   0.31439   0.00000  Uiso   1.00
O285   O     0.26902   0.50199   0.18561   0.00000  Uiso   1.00
O286   O     0.04293   0.43143   0.08039   0.00000  Uiso   1.00
Zn287  Zn    0.27033   0.50621   0.25539   0.00000  Uiso   1.00
Zn288  Zn    0.06300   0.49379   0.24460   0.00000  Uiso   1.00
C289   C     0.34731   0.59765   0.24919   0.00000  Uiso   1.00
C290   C     0.64554   0.49461   0.15868   0.00000  Uiso   1.00
C291   C     0.36717   0.51337   0.39542   0.00000  Uiso   1.00
C292   C     0.63283   0.48663   0.10458   0.00000  Uiso   1.00
C293   C     0.35369   0.55260   0.48181   0.00000  Uiso   1.00
C294   C     0.64631   0.44740   0.01819   0.00000  Uiso   1.00
C295   C     0.33622   0.54423   0.43176   0.00000  Uiso   1.00
C296   C     0.66378   0.45577   0.06824   0.00000  Uiso   1.00
C297   C     0.41667   0.49418   0.41049   0.00000  Uiso   1.00
C298   C     0.58333   0.50582   0.08951   0.00000  Uiso   1.00
C299   C     0.43801   0.50803   0.45991   0.00000  Uiso   1.00
C300   C     0.65269   0.40235   0.25081   0.00000  Uiso   1.00
C301   C     0.56199   0.49197   0.04009   0.00000  Uiso   1.00
C302   C     0.40411   0.53475   0.49610   0.00000  Uiso   1.00
C303   C     0.59589   0.46525   0.00390   0.00000  Uiso   1.00
C304   C     0.49170   0.49543   0.47437   0.00000  Uiso   1.00
C305   C     0.50830   0.50457   0.02563   0.00000  Uiso   1.00
C306   C     0.48668   0.43408   0.20083   0.00000  Uiso   1.00
C307   C     0.43965   0.40365   0.17744   0.00000  Uiso   1.00
C308   C     0.43934   0.35063   0.15165   0.00000  Uiso   1.00
C309   C     0.48799   0.65944   0.14332   0.00000  Uiso   1.00
C310   C     0.53586   0.35610   0.15722   0.00000  Uiso   1.00
C311   C     0.47025   0.52480   0.06071   0.00000  Uiso   1.00
C312   C     0.53451   0.40908   0.18293   0.00000  Uiso   1.00
C313   C     0.51332   0.56592   0.29917   0.00000  Uiso   1.00
C314   C     0.56035   0.59635   0.32256   0.00000  Uiso   1.00
C315   C     0.56066   0.64937   0.34835   0.00000  Uiso   1.00
C316   C     0.51201   0.34056   0.35668   0.00000  Uiso   1.00
C317   C     0.46414   0.64390   0.34278   0.00000  Uiso   1.00
C318   C     0.46549   0.59092   0.31707   0.00000  Uiso   1.00
C319   C     0.52975   0.47520   0.43929   0.00000  Uiso   1.00
C320   C     0.42034   0.54229   0.04620   0.00000  Uiso   1.00
C321   C     0.57966   0.45771   0.45380   0.00000  Uiso   1.00
C322   C     0.35484   0.65186   0.24908   0.00000  Uiso   1.00
C323   C     0.64516   0.34814   0.25092   0.00000  Uiso   1.00
C324   C     0.35446   0.50539   0.34132   0.00000  Uiso   1.00
H325   H     0.39349   0.56021   0.07441   0.00000  Uiso   1.00
H326   H     0.60376   0.66595   0.25243   0.00000  Uiso   1.00
H327   H     0.36353   0.40788   0.10135   0.00000  Uiso   1.00
H328   H     0.63647   0.59212   0.39865   0.00000  Uiso   1.00
H329   H     0.40154   0.41943   0.17625   0.00000  Uiso   1.00
H330   H     0.40118   0.66257   0.13700   0.00000  Uiso   1.00
H331   H     0.48877   0.61889   0.12323   0.00000  Uiso   1.00
H332   H     0.57435   0.33893   0.14655   0.00000  Uiso   1.00
H333   H     0.57214   0.42654   0.18325   0.00000  Uiso   1.00
H334   H     0.59846   0.58057   0.32375   0.00000  Uiso   1.00
H335   H     0.59882   0.33743   0.36300   0.00000  Uiso   1.00
H336   H     0.60651   0.43979   0.42559   0.00000  Uiso   1.00
H337   H     0.51123   0.38111   0.37677   0.00000  Uiso   1.00
H338   H     0.42565   0.66107   0.35345   0.00000  Uiso   1.00
H339   H     0.42786   0.57346   0.31675   0.00000  Uiso   1.00
H340   H     0.56170   0.53175   0.11728   0.00000  Uiso   1.00
H341   H     0.43830   0.46825   0.38272   0.00000  Uiso   1.00
H342   H     0.66186   0.57466   0.00951   0.00000  Uiso   1.00
H343   H     0.33814   0.42534   0.49049   0.00000  Uiso   1.00
H344   H     0.47781   0.52734   0.09986   0.00000  Uiso   1.00
H345   H     0.52219   0.47266   0.40014   0.00000  Uiso   1.00
H346   H     0.39624   0.33405   0.24757   0.00000  Uiso   1.00
N347   N     0.48029   0.48550   0.23739   0.00000  Uiso   1.00
N348   N     0.51971   0.51450   0.26260   0.00000  Uiso   1.00
O349   O     0.63052   0.57964   0.25309   0.00000  Uiso   1.00
O350   O     0.62373   0.56857   0.41961   0.00000  Uiso   1.00
O351   O     0.36948   0.42036   0.24690   0.00000  Uiso   1.00
O352   O     0.39155   0.57035   0.24501   0.00000  Uiso   1.00
O353   O     0.60845   0.42965   0.25499   0.00000  Uiso   1.00
O354   O     0.63662   0.50730   0.32247   0.00000  Uiso   1.00
O355   O     0.36338   0.49270   0.17753   0.00000  Uiso   1.00
O356   O     0.39764   0.49801   0.31439   0.00000  Uiso   1.00
O357   O     0.60236   0.50199   0.18561   0.00000  Uiso   1.00
O358   O     0.37627   0.43143   0.08039   0.00000  Uiso   1.00
Zn359  Zn    0.60366   0.50621   0.25539   0.00000  Uiso   1.00
Zn360  Zn    0.39634   0.49379   0.24460   0.00000  Uiso   1.00
C361   C     0.68064   0.59765   0.24919   0.00000  Uiso   1.00
C362   C     0.97888   0.49461   0.15868   0.00000  Uiso   1.00
C363   C     0.70050   0.51337   0.39542   0.00000  Uiso   1.00
C364   C     0.96616   0.48663   0.10458   0.00000  Uiso   1.00
C365   C     0.68703   0.55260   0.48181   0.00000  Uiso   1.00
C366   C     0.97964   0.44740   0.01819   0.00000  Uiso   1.00
C367   C     0.66955   0.54423   0.43176   0.00000  Uiso   1.00
C368   C     0.99712   0.45577   0.06824   0.00000  Uiso   1.00
C369   C     0.75000   0.49418   0.41049   0.00000  Uiso   1.00
C370   C     0.91666   0.50582   0.08951   0.00000  Uiso   1.00
C371   C     0.77134   0.50803   0.45991   0.00000  Uiso   1.00
C372   C     0.98603   0.40235   0.25081   0.00000  Uiso   1.00
C373   C     0.89533   0.49197   0.04009   0.00000  Uiso   1.00
C374   C     0.73744   0.53475   0.49610   0.00000  Uiso   1.00
C375   C     0.92922   0.46525   0.00390   0.00000  Uiso   1.00
C376   C     0.82503   0.49543   0.47437   0.00000  Uiso   1.00
C377   C     0.84164   0.50457   0.02563   0.00000  Uiso   1.00
C378   C     0.82001   0.43408   0.20083   0.00000  Uiso   1.00
C379   C     0.77299   0.40365   0.17744   0.00000  Uiso   1.00
C380   C     0.77267   0.35063   0.15165   0.00000  Uiso   1.00
C381   C     0.82132   0.65944   0.14332   0.00000  Uiso   1.00
C382   C     0.86920   0.35610   0.15722   0.00000  Uiso   1.00
C383   C     0.80358   0.52480   0.06071   0.00000  Uiso   1.00
C384   C     0.86784   0.40908   0.18293   0.00000  Uiso   1.00
C385   C     0.84665   0.56592   0.29917   0.00000  Uiso   1.00
C386   C     0.89368   0.59635   0.32256   0.00000  Uiso   1.00
C387   C     0.89399   0.64937   0.34835   0.00000  Uiso   1.00
C388   C     0.84534   0.34056   0.35668   0.00000  Uiso   1.00
C389   C     0.79747   0.64390   0.34278   0.00000  Uiso   1.00
C390   C     0.79882   0.59092   0.31707   0.00000  Uiso   1.00
C391   C     0.86308   0.47520   0.43929   0.00000  Uiso   1.00
C392   C     0.75367   0.54229   0.04620   0.00000  Uiso   1.00
C393   C     0.91299   0.45771   0.45380   0.00000  Uiso   1.00
C394   C     0.68818   0.65186   0.24908   0.00000  Uiso   1.00
C395   C     0.97849   0.34814   0.25092   0.00000  Uiso   1.00
C396   C     0.68779   0.50539   0.34132   0.00000  Uiso   1.00
H397   H     0.72682   0.56021   0.07441   0.00000  Uiso   1.00
H398   H     0.93709   0.66595   0.25243   0.00000  Uiso   1.00
H399   H     0.69687   0.40788   0.10135   0.00000  Uiso   1.00
H400   H     0.96980   0.59212   0.39865   0.00000  Uiso   1.00
H401   H     0.73488   0.41943   0.17625   0.00000  Uiso   1.00
H402   H     0.73451   0.66257   0.13700   0.00000  Uiso   1.00
H403   H     0.82210   0.61889   0.12323   0.00000  Uiso   1.00
H404   H     0.90768   0.33893   0.14655   0.00000  Uiso   1.00
H405   H     0.90547   0.42654   0.18325   0.00000  Uiso   1.00
H406   H     0.93179   0.58057   0.32375   0.00000  Uiso   1.00
H407   H     0.93216   0.33743   0.36300   0.00000  Uiso   1.00
H408   H     0.93984   0.43979   0.42559   0.00000  Uiso   1.00
H409   H     0.84457   0.38111   0.37677   0.00000  Uiso   1.00
H410   H     0.75899   0.66107   0.35345   0.00000  Uiso   1.00
H411   H     0.76119   0.57346   0.31675   0.00000  Uiso   1.00
H412   H     0.89503   0.53175   0.11728   0.00000  Uiso   1.00
H413   H     0.77163   0.46825   0.38272   0.00000  Uiso   1.00
H414   H     0.99519   0.57466   0.00951   0.00000  Uiso   1.00
H415   H     0.67148   0.42534   0.49049   0.00000  Uiso   1.00
H416   H     0.81114   0.52734   0.09986   0.00000  Uiso   1.00
H417   H     0.85553   0.47266   0.40014   0.00000  Uiso   1.00
H418   H     0.72957   0.33405   0.24757   0.00000  Uiso   1.00
N419   N     0.81362   0.48550   0.23739   0.00000  Uiso   1.00
N420   N     0.85305   0.51450   0.26260   0.00000  Uiso   1.00
O421   O     0.96386   0.57964   0.25309   0.00000  Uiso   1.00
O422   O     0.95707   0.56857   0.41961   0.00000  Uiso   1.00
O423   O     0.70281   0.42036   0.24690   0.00000  Uiso   1.00
O424   O     0.72488   0.57035   0.24501   0.00000  Uiso   1.00
O425   O     0.94178   0.42965   0.25499   0.00000  Uiso   1.00
O426   O     0.96995   0.50730   0.32247   0.00000  Uiso   1.00
O427   O     0.69672   0.49270   0.17753   0.00000  Uiso   1.00
O428   O     0.73098   0.49801   0.31439   0.00000  Uiso   1.00
O429   O     0.93569   0.50199   0.18561   0.00000  Uiso   1.00
O430   O     0.70960   0.43143   0.08039   0.00000  Uiso   1.00
Zn431  Zn    0.93700   0.50621   0.25539   0.00000  Uiso   1.00
Zn432  Zn    0.72967   0.49379   0.24460   0.00000  Uiso   1.00
C433   C     0.01397   0.93099   0.24919   0.00000  Uiso   1.00
C434   C     0.31221   0.82794   0.15868   0.00000  Uiso   1.00
C435   C     0.03384   0.84671   0.39542   0.00000  Uiso   1.00
C436   C     0.29950   0.81996   0.10458   0.00000  Uiso   1.00
C437   C     0.02036   0.88593   0.48181   0.00000  Uiso   1.00
C438   C     0.31297   0.78074   0.01819   0.00000  Uiso   1.00
C439   C     0.00288   0.87756   0.43176   0.00000  Uiso   1.00
C440   C     0.33045   0.78910   0.06824   0.00000  Uiso   1.00
C441   C     0.08334   0.82751   0.41049   0.00000  Uiso   1.00
C442   C     0.25000   0.83915   0.08951   0.00000  Uiso   1.00
C443   C     0.10467   0.84136   0.45991   0.00000  Uiso   1.00
C444   C     0.31936   0.73568   0.25081   0.00000  Uiso   1.00
C445   C     0.22866   0.82530   0.04009   0.00000  Uiso   1.00
C446   C     0.07078   0.86808   0.49610   0.00000  Uiso   1.00
C447   C     0.26256   0.79858   0.00390   0.00000  Uiso   1.00
C448   C     0.15836   0.82876   0.47437   0.00000  Uiso   1.00
C449   C     0.17497   0.83790   0.02563   0.00000  Uiso   1.00
C450   C     0.15335   0.76741   0.20083   0.00000  Uiso   1.00
C451   C     0.10632   0.73699   0.17744   0.00000  Uiso   1.00
C452   C     0.10601   0.68396   0.15165   0.00000  Uiso   1.00
C453   C     0.15466   0.99278   0.14332   0.00000  Uiso   1.00
C454   C     0.20253   0.68943   0.15722   0.00000  Uiso   1.00
C455   C     0.13692   0.85814   0.06071   0.00000  Uiso   1.00
C456   C     0.20118   0.74241   0.18293   0.00000  Uiso   1.00
C457   C     0.17999   0.89925   0.29917   0.00000  Uiso   1.00
C458   C     0.22701   0.92968   0.32256   0.00000  Uiso   1.00
C459   C     0.22733   0.98270   0.34835   0.00000  Uiso   1.00
C460   C     0.17868   0.67389   0.35668   0.00000  Uiso   1.00
C461   C     0.13080   0.97724   0.34278   0.00000  Uiso   1.00
C462   C     0.13216   0.92425   0.31707   0.00000  Uiso   1.00
C463   C     0.19642   0.80853   0.43929   0.00000  Uiso   1.00
C464   C     0.08701   0.87562   0.04620   0.00000  Uiso   1.00
C465   C     0.24633   0.79105   0.45380   0.00000  Uiso   1.00
C466   C     0.02151   0.98520   0.24908   0.00000  Uiso   1.00
C467   C     0.31182   0.68147   0.25092   0.00000  Uiso   1.00
C468   C     0.02112   0.83872   0.34132   0.00000  Uiso   1.00
H469   H     0.06016   0.89354   0.07441   0.00000  Uiso   1.00
H470   H     0.27043   0.99928   0.25243   0.00000  Uiso   1.00
H471   H     0.03020   0.74121   0.10135   0.00000  Uiso   1.00
H472   H     0.30313   0.92546   0.39865   0.00000  Uiso   1.00
H473   H     0.06821   0.75276   0.17625   0.00000  Uiso   1.00
H474   H     0.06784   0.99590   0.13700   0.00000  Uiso   1.00
H475   H     0.15543   0.95222   0.12323   0.00000  Uiso   1.00
H476   H     0.24101   0.67226   0.14655   0.00000  Uiso   1.00
H477   H     0.23881   0.75987   0.18325   0.00000  Uiso   1.00
H478   H     0.26513   0.91390   0.32375   0.00000  Uiso   1.00
H479   H     0.26549   0.67076   0.36300   0.00000  Uiso   1.00
H480   H     0.27318   0.77313   0.42559   0.00000  Uiso   1.00
H481   H     0.17790   0.71445   0.37677   0.00000  Uiso   1.00
H482   H     0.09232   0.99440   0.35345   0.00000  Uiso   1.00
H483   H     0.09453   0.90680   0.31675   0.00000  Uiso   1.00
H484   H     0.22837   0.86508   0.11728   0.00000  Uiso   1.00
H485   H     0.10497   0.80159   0.38272   0.00000  Uiso   1.00
H486   H     0.32853   0.90800   0.00951   0.00000  Uiso   1.00
H487   H     0.00481   0.75867   0.49049   0.00000  Uiso   1.00
H488   H     0.14447   0.86068   0.09986   0.00000  Uiso   1.00
H489   H     0.18886   0.80599   0.40014   0.00000  Uiso   1.00
H490   H     0.06291   0.66738   0.24757   0.00000  Uiso   1.00
N491   N     0.14695   0.81883   0.23739   0.00000  Uiso   1.00
N492   N     0.18638   0.84784   0.26260   0.00000  Uiso   1.00
O493   O     0.29719   0.91298   0.25309   0.00000  Uiso   1.00
O494   O     0.29040   0.90190   0.41961   0.00000  Uiso   1.00
O495   O     0.03614   0.75369   0.24690   0.00000  Uiso   1.00
O496   O     0.05822   0.90368   0.24501   0.00000  Uiso   1.00
O497   O     0.27512   0.76298   0.25499   0.00000  Uiso   1.00
O498   O     0.30328   0.84063   0.32247   0.00000  Uiso   1.00
O499   O     0.03005   0.82603   0.17753   0.00000  Uiso   1.00
O500   O     0.06431   0.83134   0.31439   0.00000  Uiso   1.00
O501   O     0.26902   0.83533   0.18561   0.00000  Uiso   1.00
O502   O     0.04293   0.76477   0.08039   0.00000  Uiso   1.00
Zn503  Zn    0.27033   0.83954   0.25539   0.00000  Uiso   1.00
Zn504  Zn    0.06300   0.82713   0.24460   0.00000  Uiso   1.00
C505   C     0.34731   0.93099   0.24919   0.00000  Uiso   1.00
C506   C     0.64554   0.82794   0.15868   0.00000  Uiso   1.00
C507   C     0.36717   0.84671   0.39542   0.00000  Uiso   1.00
C508   C     0.63283   0.81996   0.10458   0.00000  Uiso   1.00
C509   C     0.35369   0.88593   0.48181   0.00000  Uiso   1.00
C510   C     0.64631   0.78074   0.01819   0.00000  Uiso   1.00
C511   C     0.33622   0.87756   0.43176   0.00000  Uiso   1.00
C512   C     0.66378   0.78910   0.06824   0.00000  Uiso   1.00
C513   C     0.41667   0.82751   0.41049   0.00000  Uiso   1.00
C514   C     0.58333   0.83915   0.08951   0.00000  Uiso   1.00
C515   C     0.43801   0.84136   0.45991   0.00000  Uiso   1.00
C516   C     0.65269   0.73568   0.25081   0.00000  Uiso   1.00
C517   C     0.56199   0.82530   0.04009   0.00000  Uiso   1.00
C518   C     0.40411   0.86808   0.49610   0.00000  Uiso   1.00
C519   C     0.59589   0.79858   0.00390   0.00000  Uiso   1.00
C520   C     0.49170   0.82876   0.47437   0.00000  Uiso   1.00
C521   C     0.50830   0.83790   0.02563   0.00000  Uiso   1.00
C522   C     0.48668   0.76741   0.20083   0.00000  Uiso   1.00
C523   C     0.43965   0.73699   0.17744   0.00000  Uiso   1.00
C524   C     0.43934   0.68396   0.15165   0.00000  Uiso   1.00
C525   C     0.48799   0.99278   0.14332   0.00000  Uiso   1.00
C526   C     0.53586   0.68943   0.15722   0.00000  Uiso   1.00
C527   C     0.47025   0.85814   0.06071   0.00000  Uiso   1.00
C528   C     0.53451   0.74241   0.18293   0.00000  Uiso   1.00
C529   C     0.51332   0.89925   0.29917   0.00000  Uiso   1.00
C530   C     0.56035   0.92968   0.32256   0.00000  Uiso   1.00
C531   C     0.56066   0.98270   0.34835   0.00000  Uiso   1.00
C532   C     0.51201   0.67389   0.35668   0.00000  Uiso   1.00
C533   C     0.46414   0.97724   0.34278   0.00000  Uiso   1.00
C534   C     0.46549   0.92425   0.31707   0.00000  Uiso   1.00
C535   C     0.52975   0.80853   0.43929   0.00000  Uiso   1.00
C536   C     0.42034   0.87562   0.04620   0.00000  Uiso   1.00
C537   C     0.57966   0.79105   0.45380   0.00000  Uiso   1.00
C538   C     0.35484   0.98520   0.24908   0.00000  Uiso   1.00
C539   C     0.64516   0.68147   0.25092   0.00000  Uiso   1.00
C540   C     0.35446   0.83872   0.34132   0.00000  Uiso   1.00
H541   H     0.39349   0.89354   0.07441   0.00000  Uiso   1.00
H542   H     0.60376   0.99928   0.25243   0.00000  Uiso   1.00
H543   H     0.36353   0.74121   0.10135   0.00000  Uiso   1.00
H544   H     0.63647   0.92546   0.39865   0.00000  Uiso   1.00
H545   H     0.40154   0.75276   0.17625   0.00000  Uiso   1.00
H546   H     0.40118   0.99590   0.13700   0.00000  Uiso   1.00
H547   H     0.48877   0.95222   0.12323   0.00000  Uiso   1.00
H548   H     0.57435   0.67226   0.14655   0.00000  Uiso   1.00
H549   H     0.57214   0.75987   0.18325   0.00000  Uiso   1.00
H550   H     0.59846   0.91390   0.32375   0.00000  Uiso   1.00
H551   H     0.59882   0.67076   0.36300   0.00000  Uiso   1.00
H552   H     0.60651   0.77313   0.42559   0.00000  Uiso   1.00
H553   H     0.51123   0.71445   0.37677   0.00000  Uiso   1.00
H554   H     0.42565   0.99440   0.35345   0.00000  Uiso   1.00
H555   H     0.42786   0.90680   0.31675   0.00000  Uiso   1.00
H556   H     0.56170   0.86508   0.11728   0.00000  Uiso   1.00
H557   H     0.43830   0.80159   0.38272   0.00000  Uiso   1.00
H558   H     0.66186   0.90800   0.00951   0.00000  Uiso   1.00
H559   H     0.33814   0.75867   0.49049   0.00000  Uiso   1.00
H560   H     0.47781   0.86068   0.09986   0.00000  Uiso   1.00
H561   H     0.52219   0.80599   0.40014   0.00000  Uiso   1.00
H562   H     0.39624   0.66738   0.24757   0.00000  Uiso   1.00
N563   N     0.48029   0.81883   0.23739   0.00000  Uiso   1.00
N564   N     0.51971   0.84784   0.26260   0.00000  Uiso   1.00
O565   O     0.63052   0.91298   0.25309   0.00000  Uiso   1.00
O566   O     0.62373   0.90190   0.41961   0.00000  Uiso   1.00
O567   O     0.36948   0.75369   0.24690   0.00000  Uiso   1.00
O568   O     0.39155   0.90368   0.24501   0.00000  Uiso   1.00
O569   O     0.60845   0.76298   0.25499   0.00000  Uiso   1.00
O570   O     0.63662   0.84063   0.32247   0.00000  Uiso   1.00
O571   O     0.36338   0.82603   0.17753   0.00000  Uiso   1.00
O572   O     0.39764   0.83134   0.31439   0.00000  Uiso   1.00
O573   O     0.60236   0.83533   0.18561   0.00000  Uiso   1.00
O574   O     0.37627   0.76477   0.08039   0.00000  Uiso   1.00
Zn575  Zn    0.60366   0.83954   0.25539   0.00000  Uiso   1.00
Zn576  Zn    0.39634   0.82713   0.24460   0.00000  Uiso   1.00
C577   C     0.68064   0.93099   0.24919   0.00000  Uiso   1.00
C578   C     0.97888   0.82794   0.15868   0.00000  Uiso   1.00
C579   C     0.70050   0.84671   0.39542   0.00000  Uiso   1.00
C580   C     0.96616   0.81996   0.10458   0.00000  Uiso   1.00
C581   C     0.68703   0.88593   0.48181   0.00000  Uiso   1.00
C582   C     0.97964   0.78074   0.01819   0.00000  Uiso   1.00
C583   C     0.66955   0.87756   0.43176   0.00000  Uiso   1.00
C584   C     0.99712   0.78910   0.06824   0.00000  Uiso   1.00
C585   C     0.75000   0.82751   0.41049   0.00000  Uiso   1.00
C586   C     0.91666   0.83915   0.08951   0.00000  Uiso   1.00
C587   C     0.77134   0.84136   0.45991   0.00000  Uiso   1.00
C588   C     0.98603   0.73568   0.25081   0.00000  Uiso   1.00
C589   C     0.89533   0.82530   0.04009   0.00000  Uiso   1.00
C590   C     0.73744   0.86808   0.49610   0.00000  Uiso   1.00
C591   C     0.92922   0.79858   0.00390   0.00000  Uiso   1.00
C592   C     0.82503   0.82876   0.47437   0.00000  Uiso   1.00
C593   C     0.84164   0.83790   0.02563   0.00000  Uiso   1.00
C594   C     0.82001   0.76741   0.20083   0.00000  Uiso   1.00
C595   C     0.77299   0.73699   0.17744   0.00000  Uiso   1.00
C596   C     0.77267   0.68396   0.15165   0.00000  Uiso   1.00
C597   C     0.82132   0.99278   0.14332   0.00000  Uiso   1.00
C598   C     0.86920   0.68943   0.15722   0.00000  Uiso   1.00
C599   C     0.80358   0.85814   0.06071   0.00000  Uiso   1.00
C600   C     0.86784   0.74241   0.18293   0.00000  Uiso   1.00
C601   C     0.84665   0.89925   0.29917   0.00000  Uiso   1.00
C602   C     0.89368   0.92968   0.32256   0.00000  Uiso   1.00
C603   C     0.89399   0.98270   0.34835   0.00000  Uiso   1.00
C604   C     0.84534   0.67389   0.35668   0.00000  Uiso   1.00
C605   C     0.79747   0.97724   0.34278   0.00000  Uiso   1.00
C606   C     0.79882   0.92425   0.31707   0.00000  Uiso   1.00
C607   C     0.86308   0.80853   0.43929   0.00000  Uiso   1.00
C608   C     0.75367   0.87562   0.04620   0.00000  Uiso   1.00
C609   C     0.91299   0.79105   0.45380   0.00000  Uiso   1.00
C610   C     0.68818   0.98520   0.24908   0.00000  Uiso   1.00
C611   C     0.97849   0.68147   0.25092   0.00000  Uiso   1.00
C612   C     0.68779   0.83872   0.34132   0.00000  Uiso   1.00
H613   H     0.72682   0.89354   0.07441   0.00000  Uiso   1.00
H614   H     0.93709   0.99928   0.25243   0.00000  Uiso   1.00
H615   H     0.69687   0.74121   0.10135   0.00000  Uiso   1.00
H616   H     0.96980   0.92546   0.39865   0.00000  Uiso   1.00
H617   H     0.73488   0.75276   0.17625   0.00000  Uiso   1.00
H618   H     0.73451   0.99590   0.13700   0.00000  Uiso   1.00
H619   H     0.82210   0.95222   0.12323   0.00000  Uiso   1.00
H620   H     0.90768   0.67226   0.14655   0.00000  Uiso   1.00
H621   H     0.90547   0.75987   0.18325   0.00000  Uiso   1.00
H622   H     0.93179   0.91390   0.32375   0.00000  Uiso   1.00
H623   H     0.93216   0.67076   0.36300   0.00000  Uiso   1.00
H624   H     0.93984   0.77313   0.42559   0.00000  Uiso   1.00
H625   H     0.84457   0.71445   0.37677   0.00000  Uiso   1.00
H626   H     0.75899   0.99440   0.35345   0.00000  Uiso   1.00
H627   H     0.76119   0.90680   0.31675   0.00000  Uiso   1.00
H628   H     0.89503   0.86508   0.11728   0.00000  Uiso   1.00
H629   H     0.77163   0.80159   0.38272   0.00000  Uiso   1.00
H630   H     0.99519   0.90800   0.00951   0.00000  Uiso   1.00
H631   H     0.67148   0.75867   0.49049   0.00000  Uiso   1.00
H632   H     0.81114   0.86068   0.09986   0.00000  Uiso   1.00
H633   H     0.85553   0.80599   0.40014   0.00000  Uiso   1.00
H634   H     0.72957   0.66738   0.24757   0.00000  Uiso   1.00
N635   N     0.81362   0.81883   0.23739   0.00000  Uiso   1.00
N636   N     0.85305   0.84784   0.26260   0.00000  Uiso   1.00
O637   O     0.96386   0.91298   0.25309   0.00000  Uiso   1.00
O638   O     0.95707   0.90190   0.41961   0.00000  Uiso   1.00
O639   O     0.70281   0.75369   0.24690   0.00000  Uiso   1.00
O640   O     0.72488   0.90368   0.24501   0.00000  Uiso   1.00
O641   O     0.94178   0.76298   0.25499   0.00000  Uiso   1.00
O642   O     0.96995   0.84063   0.32247   0.00000  Uiso   1.00
O643   O     0.69672   0.82603   0.17753   0.00000  Uiso   1.00
O644   O     0.73098   0.83134   0.31439   0.00000  Uiso   1.00
O645   O     0.93569   0.83533   0.18561   0.00000  Uiso   1.00
O646   O     0.70960   0.76477   0.08039   0.00000  Uiso   1.00
Zn647  Zn    0.93700   0.83954   0.25539   0.00000  Uiso   1.00
Zn648  Zn    0.72967   0.82713   0.24460   0.00000  Uiso   1.00
C649   C     0.01397   0.26432   0.74919   0.00000  Uiso   1.00
C650   C     0.31221   0.16128   0.65868   0.00000  Uiso   1.00
C651   C     0.03384   0.18004   0.89542   0.00000  Uiso   1.00
C652   C     0.29950   0.15329   0.60458   0.00000  Uiso   1.00
C653   C     0.02036   0.21926   0.98181   0.00000  Uiso   1.00
C654   C     0.31297   0.11407   0.51819   0.00000  Uiso   1.00
C655   C     0.00288   0.21090   0.93176   0.00000  Uiso   1.00
C656   C     0.33045   0.12244   0.56824   0.00000  Uiso   1.00
C657   C     0.08334   0.16085   0.91049   0.00000  Uiso   1.00
C658   C     0.25000   0.17249   0.58951   0.00000  Uiso   1.00
C659   C     0.10467   0.17470   0.95991   0.00000  Uiso   1.00
C660   C     0.31936   0.06901   0.75081   0.00000  Uiso   1.00
C661   C     0.22866   0.15864   0.54009   0.00000  Uiso   1.00
C662   C     0.07078   0.20142   0.99610   0.00000  Uiso   1.00
C663   C     0.26256   0.13192   0.50390   0.00000  Uiso   1.00
C664   C     0.15836   0.16210   0.97437   0.00000  Uiso   1.00
C665   C     0.17497   0.17124   0.52563   0.00000  Uiso   1.00
C666   C     0.15335   0.10075   0.70083   0.00000  Uiso   1.00
C667   C     0.10632   0.07032   0.67744   0.00000  Uiso   1.00
C668   C     0.10601   0.01730   0.65165   0.00000  Uiso   1.00
C669   C     0.15466   0.32611   0.64332   0.00000  Uiso   1.00
C670   C     0.20253   0.02276   0.65722   0.00000  Uiso   1.00
C671   C     0.13692   0.19147   0.56071   0.00000  Uiso   1.00
C672   C     0.20118   0.07575   0.68293   0.00000  Uiso   1.00
C673   C     0.17999   0.23259   0.79917   0.00000  Uiso   1.00
C674   C     0.22701   0.26301   0.82256   0.00000  Uiso   1.00
C675   C     0.22733   0.31604   0.84835   0.00000  Uiso   1.00
C676   C     0.17868   0.00722   0.85668   0.00000  Uiso   1.00
C677   C     0.13080   0.31057   0.84278   0.00000  Uiso   1.00
C678   C     0.13216   0.25759   0.81707   0.00000  Uiso   1.00
C679   C     0.19642   0.14186   0.93929   0.00000  Uiso   1.00
C680   C     0.08701   0.20895   0.54620   0.00000  Uiso   1.00
C681   C     0.24633   0.12438   0.95380   0.00000  Uiso   1.00
C682   C     0.02151   0.31853   0.74908   0.00000  Uiso   1.00
C683   C     0.31182   0.01480   0.75092   0.00000  Uiso   1.00
C684   C     0.02112   0.17206   0.84132   0.00000  Uiso   1.00
H685   H     0.06016   0.22687   0.57441   0.00000  Uiso   1.00
H686   H     0.27043   0.33262   0.75243   0.00000  Uiso   1.00
H687   H     0.03020   0.07454   0.60135   0.00000  Uiso   1.00
H688   H     0.30313   0.25879   0.89865   0.00000  Uiso   1.00
H689   H     0.06821   0.08610   0.67625   0.00000  Uiso   1.00
H690   H     0.06784   0.32924   0.63700   0.00000  Uiso   1.00
H691   H     0.15543   0.28555   0.62323   0.00000  Uiso   1.00
H692   H     0.24101   0.00560   0.64655   0.00000  Uiso   1.00
H693   H     0.23881   0.09320   0.68325   0.00000  Uiso   1.00
H694   H     0.26513   0.24724   0.82375   0.00000  Uiso   1.00
H695   H     0.26549   0.00410   0.86300   0.00000  Uiso   1.00
H696   H     0.27318   0.10646   0.92559   0.00000  Uiso   1.00
H697   H     0.17790   0.04778   0.87677   0.00000  Uiso   1.00
H698   H     0.09232   0.32774   0.85345   0.00000  Uiso   1.00
H699   H     0.09453   0.24013   0.81675   0.00000  Uiso   1.00
H700   H     0.22837   0.19841   0.61728   0.00000  Uiso   1.00
H701   H     0.10497   0.13492   0.88272   0.00000  Uiso   1.00
H702   H     0.32853   0.24133   0.50951   0.00000  Uiso   1.00
H703   H     0.00481   0.09201   0.99049   0.00000  Uiso   1.00
H704   H     0.14447   0.19401   0.59986   0.00000  Uiso   1.00
H705   H     0.18886   0.13932   0.90014   0.00000  Uiso   1.00
H706   H     0.06291   0.00072   0.74757   0.00000  Uiso   1.00
N707   N     0.14695   0.15216   0.73739   0.00000  Uiso   1.00
N708   N     0.18638   0.18117   0.76260   0.00000  Uiso   1.00
O709   O     0.29719   0.24631   0.75309   0.00000  Uiso   1.00
O710   O     0.29040   0.23524   0.91961   0.00000  Uiso   1.00
O711   O     0.03614   0.08702   0.74690   0.00000  Uiso   1.00
O712   O     0.05822   0.23702   0.74501   0.00000  Uiso   1.00
O713   O     0.27512   0.09632   0.75499   0.00000  Uiso   1.00
O714   O     0.30328   0.17397   0.82247   0.00000  Uiso   1.00
O715   O     0.03005   0.15937   0.67753   0.00000  Uiso   1.00
O716   O     0.06431   0.16467   0.81439   0.00000  Uiso   1.00
O717   O     0.26902   0.16866   0.68561   0.00000  Uiso   1.00
O718   O     0.04293   0.09810   0.58039   0.00000  Uiso   1.00
Zn719  Zn    0.27033   0.17287   0.75539   0.00000  Uiso   1.00
Zn720  Zn    0.06300   0.16046   0.74460   0.00000  Uiso   1.00
C721   C     0.34731   0.26432   0.74919   0.00000  Uiso   1.00
C722   C     0.64554   0.16128   0.65868   0.00000  Uiso   1.00
C723   C     0.36717   0.18004   0.89542   0.00000  Uiso   1.00
C724   C     0.63283   0.15329   0.60458   0.00000  Uiso   1.00
C725   C     0.35369   0.21926   0.98181   0.00000  Uiso   1.00
C726   C     0.64631   0.11407   0.51819   0.00000  Uiso   1.00
C727   C     0.33622   0.21090   0.93176   0.00000  Uiso   1.00
C728   C     0.66378   0.12244   0.56824   0.00000  Uiso   1.00
C729   C     0.41667   0.16085   0.91049   0.00000  Uiso   1.00
C730   C     0.58333   0.17249   0.58951   0.00000  Uiso   1.00
C731   C     0.43801   0.17470   0.95991   0.00000  Uiso   1.00
C732   C     0.65269   0.06901   0.75081   0.00000  Uiso   1.00
C733   C     0.56199   0.15864   0.54009   0.00000  Uiso   1.00
C734   C     0.40411   0.20142   0.99610   0.00000  Uiso   1.00
C735   C     0.59589   0.13192   0.50390   0.00000  Uiso   1.00
C736   C     0.49170   0.16210   0.97437   0.00000  Uiso   1.00
C737   C     0.50830   0.17124   0.52563   0.00000  Uiso   1.00
C738   C     0.48668   0.10075   0.70083   0.00000  Uiso   1.00
C739   C     0.43965   0.07032   0.67744   0.00000  Uiso   1.00
C740   C     0.43934   0.01730   0.65165   0.00000  Uiso   1.00
C741   C     0.48799   0.32611   0.64332   0.00000  Uiso   1.00
C742   C     0.53586   0.02276   0.65722   0.00000  Uiso   1.00
C743   C     0.47025   0.19147   0.56071   0.00000  Uiso   1.00
C744   C     0.53451   0.07575   0.68293   0.00000  Uiso   1.00
C745   C     0.51332   0.23259   0.79917   0.00000  Uiso   1.00
C746   C     0.56035   0.26301   0.82256   0.00000  Uiso   1.00
C747   C     0.56066   0.31604   0.84835   0.00000  Uiso   1.00
C748   C     0.51201   0.00722   0.85668   0.00000  Uiso   1.00
C749   C     0.46414   0.31057   0.84278   0.00000  Uiso   1.00
C750   C     0.46549   0.25759   0.81707   0.00000  Uiso   1.00
C751   C     0.52975   0.14186   0.93929   0.00000  Uiso   1.00
C752   C     0.42034   0.20895   0.54620   0.00000  Uiso   1.00
C753   C     0.57966   0.12438   0.95380   0.00000  Uiso   1.00
C754   C     0.35484   0.31853   0.74908   0.00000  Uiso   1.00
C755   C     0.64516   0.01480   0.75092   0.00000  Uiso   1.00
C756   C     0.35446   0.17206   0.84132   0.00000  Uiso   1.00
H757   H     0.39349   0.22687   0.57441   0.00000  Uiso   1.00
H758   H     0.60376   0.33262   0.75243   0.00000  Uiso   1.00
H759   H     0.36353   0.07454   0.60135   0.00000  Uiso   1.00
H760   H     0.63647   0.25879   0.89865   0.00000  Uiso   1.00
H761   H     0.40154   0.08610   0.67625   0.00000  Uiso   1.00
H762   H     0.40118   0.32924   0.63700   0.00000  Uiso   1.00
H763   H     0.48877   0.28555   0.62323   0.00000  Uiso   1.00
H764   H     0.57435   0.00560   0.64655   0.00000  Uiso   1.00
H765   H     0.57214   0.09320   0.68325   0.00000  Uiso   1.00
H766   H     0.59846   0.24724   0.82375   0.00000  Uiso   1.00
H767   H     0.59882   0.00410   0.86300   0.00000  Uiso   1.00
H768   H     0.60651   0.10646   0.92559   0.00000  Uiso   1.00
H769   H     0.51123   0.04778   0.87677   0.00000  Uiso   1.00
H770   H     0.42565   0.32774   0.85345   0.00000  Uiso   1.00
H771   H     0.42786   0.24013   0.81675   0.00000  Uiso   1.00
H772   H     0.56170   0.19841   0.61728   0.00000  Uiso   1.00
H773   H     0.43830   0.13492   0.88272   0.00000  Uiso   1.00
H774   H     0.66186   0.24133   0.50951   0.00000  Uiso   1.00
H775   H     0.33814   0.09201   0.99049   0.00000  Uiso   1.00
H776   H     0.47781   0.19401   0.59986   0.00000  Uiso   1.00
H777   H     0.52219   0.13932   0.90014   0.00000  Uiso   1.00
H778   H     0.39624   0.00072   0.74757   0.00000  Uiso   1.00
N779   N     0.48029   0.15216   0.73739   0.00000  Uiso   1.00
N780   N     0.51971   0.18117   0.76260   0.00000  Uiso   1.00
O781   O     0.63052   0.24631   0.75309   0.00000  Uiso   1.00
O782   O     0.62373   0.23524   0.91961   0.00000  Uiso   1.00
O783   O     0.36948   0.08702   0.74690   0.00000  Uiso   1.00
O784   O     0.39155   0.23702   0.74501   0.00000  Uiso   1.00
O785   O     0.60845   0.09632   0.75499   0.00000  Uiso   1.00
O786   O     0.63662   0.17397   0.82247   0.00000  Uiso   1.00
O787   O     0.36338   0.15937   0.67753   0.00000  Uiso   1.00
O788   O     0.39764   0.16467   0.81439   0.00000  Uiso   1.00
O789   O     0.60236   0.16866   0.68561   0.00000  Uiso   1.00
O790   O     0.37627   0.09810   0.58039   0.00000  Uiso   1.00
Zn791  Zn    0.60366   0.17287   0.75539   0.00000  Uiso   1.00
Zn792  Zn    0.39634   0.16046   0.74460   0.00000  Uiso   1.00
C793   C     0.68064   0.26432   0.74919   0.00000  Uiso   1.00
C794   C     0.97888   0.16128   0.65868   0.00000  Uiso   1.00
C795   C     0.70050   0.18004   0.89542   0.00000  Uiso   1.00
C796   C     0.96616   0.15329   0.60458   0.00000  Uiso   1.00
C797   C     0.68703   0.21926   0.98181   0.00000  Uiso   1.00
C798   C     0.97964   0.11407   0.51819   0.00000  Uiso   1.00
C799   C     0.66955   0.21090   0.93176   0.00000  Uiso   1.00
C800   C     0.99712   0.12244   0.56824   0.00000  Uiso   1.00
C801   C     0.75000   0.16085   0.91049   0.00000  Uiso   1.00
C802   C     0.91666   0.17249   0.58951   0.00000  Uiso   1.00
C803   C     0.77134   0.17470   0.95991   0.00000  Uiso   1.00
C804   C     0.98603   0.06901   0.75081   0.00000  Uiso   1.00
C805   C     0.89533   0.15864   0.54009   0.00000  Uiso   1.00
C806   C     0.73744   0.20142   0.99610   0.00000  Uiso   1.00
C807   C     0.92922   0.13192   0.50390   0.00000  Uiso   1.00
C808   C     0.82503   0.16210   0.97437   0.00000  Uiso   1.00
C809   C     0.84164   0.17124   0.52563   0.00000  Uiso   1.00
C810   C     0.82001   0.10075   0.70083   0.00000  Uiso   1.00
C811   C     0.77299   0.07032   0.67744   0.00000  Uiso   1.00
C812   C     0.77267   0.01730   0.65165   0.00000  Uiso   1.00
C813   C     0.82132   0.32611   0.64332   0.00000  Uiso   1.00
C814   C     0.86920   0.02276   0.65722   0.00000  Uiso   1.00
C815   C     0.80358   0.19147   0.56071   0.00000  Uiso   1.00
C816   C     0.86784   0.07575   0.68293   0.00000  Uiso   1.00
C817   C     0.84665   0.23259   0.79917   0.00000  Uiso   1.00
C818   C     0.89368   0.26301   0.82256   0.00000  Uiso   1.00
C819   C     0.89399   0.31604   0.84835   0.00000  Uiso   1.00
C820   C     0.84534   0.00722   0.85668   0.00000  Uiso   1.00
C821   C     0.79747   0.31057   0.84278   0.00000  Uiso   1.00
C822   C     0.79882   0.25759   0.81707   0.00000  Uiso   1.00
C823   C     0.86308   0.14186   0.93929   0.00000  Uiso   1.00
C824   C     0.75367   0.20895   0.54620   0.00000  Uiso   1.00
C825   C     0.91299   0.12438   0.95380   0.00000  Uiso   1.00
C826   C     0.68818   0.31853   0.74908   0.00000  Uiso   1.00
C827   C     0.97849   0.01480   0.75092   0.00000  Uiso   1.00
C828   C     0.68779   0.17206   0.84132   0.00000  Uiso   1.00
H829   H     0.72682   0.22687   0.57441   0.00000  Uiso   1.00
H830   H     0.93709   0.33262   0.75243   0.00000  Uiso   1.00
H831   H     0.69687   0.07454   0.60135   0.00000  Uiso   1.00
H832   H     0.96980   0.25879   0.89865   0.00000  Uiso   1.00
H833   H     0.73488   0.08610   0.67625   0.00000  Uiso   1.00
H834   H     0.73451   0.32924   0.63700   0.00000  Uiso   1.00
H835   H     0.82210   0.28555   0.62323   0.00000  Uiso   1.00
H836   H     0.90768   0.00560   0.64655   0.00000  Uiso   1.00
H837   H     0.90547   0.09320   0.68325   0.00000  Uiso   1.00
H838   H     0.93179   0.24724   0.82375   0.00000  Uiso   1.00
H839   H     0.93216   0.00410   0.86300   0.00000  Uiso   1.00
H840   H     0.93984   0.10646   0.92559   0.00000  Uiso   1.00
H841   H     0.84457   0.04778   0.87677   0.00000  Uiso   1.00
H842   H     0.75899   0.32774   0.85345   0.00000  Uiso   1.00
H843   H     0.76119   0.24013   0.81675   0.00000  Uiso   1.00
H844   H     0.89503   0.19841   0.61728   0.00000  Uiso   1.00
H845   H     0.77163   0.13492   0.88272   0.00000  Uiso   1.00
H846   H     0.99519   0.24133   0.50951   0.00000  Uiso   1.00
H847   H     0.67148   0.09201   0.99049   0.00000  Uiso   1.00
H848   H     0.81114   0.19401   0.59986   0.00000  Uiso   1.00
H849   H     0.85553   0.13932   0.90014   0.00000  Uiso   1.00
H850   H     0.72957   0.00072   0.74757   0.00000  Uiso   1.00
N851   N     0.81362   0.15216   0.73739   0.00000  Uiso   1.00
N852   N     0.85305   0.18117   0.76260   0.00000  Uiso   1.00
O853   O     0.96386   0.24631   0.75309   0.00000  Uiso   1.00
O854   O     0.95707   0.23524   0.91961   0.00000  Uiso   1.00
O855   O     0.70281   0.08702   0.74690   0.00000  Uiso   1.00
O856   O     0.72488   0.23702   0.74501   0.00000  Uiso   1.00
O857   O     0.94178   0.09632   0.75499   0.00000  Uiso   1.00
O858   O     0.96995   0.17397   0.82247   0.00000  Uiso   1.00
O859   O     0.69672   0.15937   0.67753   0.00000  Uiso   1.00
O860   O     0.73098   0.16467   0.81439   0.00000  Uiso   1.00
O861   O     0.93569   0.16866   0.68561   0.00000  Uiso   1.00
O862   O     0.70960   0.09810   0.58039   0.00000  Uiso   1.00
Zn863  Zn    0.93700   0.17287   0.75539   0.00000  Uiso   1.00
Zn864  Zn    0.72967   0.16046   0.74460   0.00000  Uiso   1.00
C865   C     0.01397   0.59765   0.74919   0.00000  Uiso   1.00
C866   C     0.31221   0.49461   0.65868   0.00000  Uiso   1.00
C867   C     0.03384   0.51337   0.89542   0.00000  Uiso   1.00
C868   C     0.29950   0.48663   0.60458   0.00000  Uiso   1.00
C869   C     0.02036   0.55260   0.98181   0.00000  Uiso   1.00
C870   C     0.31297   0.44740   0.51819   0.00000  Uiso   1.00
C871   C     0.00288   0.54423   0.93176   0.00000  Uiso   1.00
C872   C     0.33045   0.45577   0.56824   0.00000  Uiso   1.00
C873   C     0.08334   0.49418   0.91049   0.00000  Uiso   1.00
C874   C     0.25000   0.50582   0.58951   0.00000  Uiso   1.00
C875   C     0.10467   0.50803   0.95991   0.00000  Uiso   1.00
C876   C     0.31936   0.40235   0.75081   0.00000  Uiso   1.00
C877   C     0.22866   0.49197   0.54009   0.00000  Uiso   1.00
C878   C     0.07078   0.53475   0.99610   0.00000  Uiso   1.00
C879   C     0.26256   0.46525   0.50390   0.00000  Uiso   1.00
C880   C     0.15836   0.49543   0.97437   0.00000  Uiso   1.00
C881   C     0.17497   0.50457   0.52563   0.00000  Uiso   1.00
C882   C     0.15335   0.43408   0.70083   0.00000  Uiso   1.00
C883   C     0.10632   0.40365   0.67744   0.00000  Uiso   1.00
C884   C     0.10601   0.35063   0.65165   0.00000  Uiso   1.00
C885   C     0.15466   0.65944   0.64332   0.00000  Uiso   1.00
C886   C     0.20253   0.35610   0.65722   0.00000  Uiso   1.00
C887   C     0.13692   0.52480   0.56071   0.00000  Uiso   1.00
C888   C     0.20118   0.40908   0.68293   0.00000  Uiso   1.00
C889   C     0.17999   0.56592   0.79917   0.00000  Uiso   1.00
C890   C     0.22701   0.59635   0.82256   0.00000  Uiso   1.00
C891   C     0.22733   0.64937   0.84835   0.00000  Uiso   1.00
C892   C     0.17868   0.34056   0.85668   0.00000  Uiso   1.00
C893   C     0.13080   0.64390   0.84278   0.00000  Uiso   1.00
C894   C     0.13216   0.59092   0.81707   0.00000  Uiso   1.00
C895   C     0.19642   0.47520   0.93929   0.00000  Uiso   1.00
C896   C     0.08701   0.54229   0.54620   0.00000  Uiso   1.00
C897   C     0.24633   0.45771   0.95380   0.00000  Uiso   1.00
C898   C     0.02151   0.65186   0.74908   0.00000  Uiso   1.00
C899   C     0.31182   0.34814   0.75092   0.00000  Uiso   1.00
C900   C     0.02112   0.50539   0.84132   0.00000  Uiso   1.00
H901   H     0.06016   0.56021   0.57441   0.00000  Uiso   1.00
H902   H     0.27043   0.66595   0.75243   0.00000  Uiso   1.00
H903   H     0.03020   0.40788   0.60135   0.00000  Uiso   1.00
H904   H     0.30313   0.59212   0.89865   0.00000  Uiso   1.00
H905   H     0.06821   0.41943   0.67625   0.00000  Uiso   1.00
H906   H     0.06784   0.66257   0.63700   0.00000  Uiso   1.00
H907   H     0.15543   0.61889   0.62323   0.00000  Uiso   1.00
H908   H     0.24101   0.33893   0.64655   0.00000  Uiso   1.00
H909   H     0.23881   0.42654   0.68325   0.00000  Uiso   1.00
H910   H     0.26513   0.58057   0.82375   0.00000  Uiso   1.00
H911   H     0.26549   0.33743   0.86300   0.00000  Uiso   1.00
H912   H     0.27318   0.43979   0.92559   0.00000  Uiso   1.00
H913   H     0.17790   0.38111   0.87677   0.00000  Uiso   1.00
H914   H     0.09232   0.66107   0.85345   0.00000  Uiso   1.00
H915   H     0.09453   0.57346   0.81675   0.00000  Uiso   1.00
H916   H     0.22837   0.53175   0.61728   0.00000  Uiso   1.00
H917   H     0.10497   0.46825   0.88272   0.00000  Uiso   1.00
H918   H     0.32853   0.57466   0.50951   0.00000  Uiso   1.00
H919   H     0.00481   0.42534   0.99049   0.00000  Uiso   1.00
H920   H     0.14447   0.52734   0.59986   0.00000  Uiso   1.00
H921   H     0.18886   0.47266   0.90014   0.00000  Uiso   1.00
H922   H     0.06291   0.33405   0.74757   0.00000  Uiso   1.00
N923   N     0.14695   0.48550   0.73739   0.00000  Uiso   1.00
N924   N     0.18638   0.51450   0.76260   0.00000  Uiso   1.00
O925   O     0.29719   0.57964   0.75309   0.00000  Uiso   1.00
O926   O     0.29040   0.56857   0.91961   0.00000  Uiso   1.00
O927   O     0.03614   0.42036   0.74690   0.00000  Uiso   1.00
O928   O     0.05822   0.57035   0.74501   0.00000  Uiso   1.00
O929   O     0.27512   0.42965   0.75499   0.00000  Uiso   1.00
O930   O     0.30328   0.50730   0.82247   0.00000  Uiso   1.00
O931   O     0.03005   0.49270   0.67753   0.00000  Uiso   1.00
O932   O     0.06431   0.49801   0.81439   0.00000  Uiso   1.00
O933   O     0.26902   0.50199   0.68561   0.00000  Uiso   1.00
O934   O     0.04293   0.43143   0.58039   0.00000  Uiso   1.00
Zn935  Zn    0.27033   0.50621   0.75539   0.00000  Uiso   1.00
Zn936  Zn    0.06300   0.49379   0.74460   0.00000  Uiso   1.00
C937   C     0.34731   0.59765   0.74919   0.00000  Uiso   1.00
C938   C     0.64554   0.49461   0.65868   0.00000  Uiso   1.00
C939   C     0.36717   0.51337   0.89542   0.00000  Uiso   1.00
C940   C     0.63283   0.48663   0.60458   0.00000  Uiso   1.00
C941   C     0.35369   0.55260   0.98181   0.00000  Uiso   1.00
C942   C     0.64631   0.44740   0.51819   0.00000  Uiso   1.00
C943   C     0.33622   0.54423   0.93176   0.00000  Uiso   1.00
C944   C     0.66378   0.45577   0.56824   0.00000  Uiso   1.00
C945   C     0.41667   0.49418   0.91049   0.00000  Uiso   1.00
C946   C     0.58333   0.50582   0.58951   0.00000  Uiso   1.00
C947   C     0.43801   0.50803   0.95991   0.00000  Uiso   1.00
C948   C     0.65269   0.40235   0.75081   0.00000  Uiso   1.00
C949   C     0.56199   0.49197   0.54009   0.00000  Uiso   1.00
C950   C     0.40411   0.53475   0.99610   0.00000  Uiso   1.00
C951   C     0.59589   0.46525   0.50390   0.00000  Uiso   1.00
C952   C     0.49170   0.49543   0.97437   0.00000  Uiso   1.00
C953   C     0.50830   0.50457   0.52563   0.00000  Uiso   1.00
C954   C     0.48668   0.43408   0.70083   0.00000  Uiso   1.00
C955   C     0.43965   0.40365   0.67744   0.00000  Uiso   1.00
C956   C     0.43934   0.35063   0.65165   0.00000  Uiso   1.00
C957   C     0.48799   0.65944   0.64332   0.00000  Uiso   1.00
C958   C     0.53586   0.35610   0.65722   0.00000  Uiso   1.00
C959   C     0.47025   0.52480   0.56071   0.00000  Uiso   1.00
C960   C     0.53451   0.40908   0.68293   0.00000  Uiso   1.00
C961   C     0.51332   0.56592   0.79917   0.00000  Uiso   1.00
C962   C     0.56035   0.59635   0.82256   0.00000  Uiso   1.00
C963   C     0.56066   0.64937   0.84835   0.00000  Uiso   1.00
C964   C     0.51201   0.34056   0.85668   0.00000  Uiso   1.00
C965   C     0.46414   0.64390   0.84278   0.00000  Uiso   1.00
C966   C     0.46549   0.59092   0.81707   0.00000  Uiso   1.00
C967   C     0.52975   0.47520   0.93929   0.00000  Uiso   1.00
C968   C     0.42034   0.54229   0.54620   0.00000  Uiso   1.00
C969   C     0.57966   0.45771   0.95380   0.00000  Uiso   1.00
C970   C     0.35484   0.65186   0.74908   0.00000  Uiso   1.00
C971   C     0.64516   0.34814   0.75092   0.00000  Uiso   1.00
C972   C     0.35446   0.50539   0.84132   0.00000  Uiso   1.00
H973   H     0.39349   0.56021   0.57441   0.00000  Uiso   1.00
H974   H     0.60376   0.66595   0.75243   0.00000  Uiso   1.00
H975   H     0.36353   0.40788   0.60135   0.00000  Uiso   1.00
H976   H     0.63647   0.59212   0.89865   0.00000  Uiso   1.00
H977   H     0.40154   0.41943   0.67625   0.00000  Uiso   1.00
H978   H     0.40118   0.66257   0.63700   0.00000  Uiso   1.00
H979   H     0.48877   0.61889   0.62323   0.00000  Uiso   1.00
H980   H     0.57435   0.33893   0.64655   0.00000  Uiso   1.00
H981   H     0.57214   0.42654   0.68325   0.00000  Uiso   1.00
H982   H     0.59846   0.58057   0.82375   0.00000  Uiso   1.00
H983   H     0.59882   0.33743   0.86300   0.00000  Uiso   1.00
H984   H     0.60651   0.43979   0.92559   0.00000  Uiso   1.00
H985   H     0.51123   0.38111   0.87677   0.00000  Uiso   1.00
H986   H     0.42565   0.66107   0.85345   0.00000  Uiso   1.00
H987   H     0.42786   0.57346   0.81675   0.00000  Uiso   1.00
H988   H     0.56170   0.53175   0.61728   0.00000  Uiso   1.00
H989   H     0.43830   0.46825   0.88272   0.00000  Uiso   1.00
H990   H     0.66186   0.57466   0.50951   0.00000  Uiso   1.00
H991   H     0.33814   0.42534   0.99049   0.00000  Uiso   1.00
H992   H     0.47781   0.52734   0.59986   0.00000  Uiso   1.00
H993   H     0.52219   0.47266   0.90014   0.00000  Uiso   1.00
H994   H     0.39624   0.33405   0.74757   0.00000  Uiso   1.00
N995   N     0.48029   0.48550   0.73739   0.00000  Uiso   1.00
N996   N     0.51971   0.51450   0.76260   0.00000  Uiso   1.00
O997   O     0.63052   0.57964   0.75309   0.00000  Uiso   1.00
O998   O     0.62373   0.56857   0.91961   0.00000  Uiso   1.00
O999   O     0.36948   0.42036   0.74690   0.00000  Uiso   1.00
O1000  O     0.39155   0.57035   0.74501   0.00000  Uiso   1.00
O1001  O     0.60845   0.42965   0.75499   0.00000  Uiso   1.00
O1002  O     0.63662   0.50730   0.82247   0.00000  Uiso   1.00
O1003  O     0.36338   0.49270   0.67753   0.00000  Uiso   1.00
O1004  O     0.39764   0.49801   0.81439   0.00000  Uiso   1.00
O1005  O     0.60236   0.50199   0.68561   0.00000  Uiso   1.00
O1006  O     0.37627   0.43143   0.58039   0.00000  Uiso   1.00
Zn1007 Zn    0.60366   0.50621   0.75539   0.00000  Uiso   1.00
Zn1008 Zn    0.39634   0.49379   0.74460   0.00000  Uiso   1.00
C1009  C     0.68064   0.59765   0.74919   0.00000  Uiso   1.00
C1010  C     0.97888   0.49461   0.65868   0.00000  Uiso   1.00
C1011  C     0.70050   0.51337   0.89542   0.00000  Uiso   1.00
C1012  C     0.96616   0.48663   0.60458   0.00000  Uiso   1.00
C1013  C     0.68703   0.55260   0.98181   0.00000  Uiso   1.00
C1014  C     0.97964   0.44740   0.51819   0.00000  Uiso   1.00
C1015  C     0.66955   0.54423   0.93176   0.00000  Uiso   1.00
C1016  C     0.99712   0.45577   0.56824   0.00000  Uiso   1.00
C1017  C     0.75000   0.49418   0.91049   0.00000  Uiso   1.00
C1018  C     0.91666   0.50582   0.58951   0.00000  Uiso   1.00
C1019  C     0.77134   0.50803   0.95991   0.00000  Uiso   1.00
C1020  C     0.98603   0.40235   0.75081   0.00000  Uiso   1.00
C1021  C     0.89533   0.49197   0.54009   0.00000  Uiso   1.00
C1022  C     0.73744   0.53475   0.99610   0.00000  Uiso   1.00
C1023  C     0.92922   0.46525   0.50390   0.00000  Uiso   1.00
C1024  C     0.82503   0.49543   0.97437   0.00000  Uiso   1.00
C1025  C     0.84164   0.50457   0.52563   0.00000  Uiso   1.00
C1026  C     0.82001   0.43408   0.70083   0.00000  Uiso   1.00
C1027  C     0.77299   0.40365   0.67744   0.00000  Uiso   1.00
C1028  C     0.77267   0.35063   0.65165   0.00000  Uiso   1.00
C1029  C     0.82132   0.65944   0.64332   0.00000  Uiso   1.00
C1030  C     0.86920   0.35610   0.65722   0.00000  Uiso   1.00
C1031  C     0.80358   0.52480   0.56071   0.00000  Uiso   1.00
C1032  C     0.86784   0.40908   0.68293   0.00000  Uiso   1.00
C1033  C     0.84665   0.56592   0.79917   0.00000  Uiso   1.00
C1034  C     0.89368   0.59635   0.82256   0.00000  Uiso   1.00
C1035  C     0.89399   0.64937   0.84835   0.00000  Uiso   1.00
C1036  C     0.84534   0.34056   0.85668   0.00000  Uiso   1.00
C1037  C     0.79747   0.64390   0.84278   0.00000  Uiso   1.00
C1038  C     0.79882   0.59092   0.81707   0.00000  Uiso   1.00
C1039  C     0.86308   0.47520   0.93929   0.00000  Uiso   1.00
C1040  C     0.75367   0.54229   0.54620   0.00000  Uiso   1.00
C1041  C     0.91299   0.45771   0.95380   0.00000  Uiso   1.00
C1042  C     0.68818   0.65186   0.74908   0.00000  Uiso   1.00
C1043  C     0.97849   0.34814   0.75092   0.00000  Uiso   1.00
C1044  C     0.68779   0.50539   0.84132   0.00000  Uiso   1.00
H1045  H     0.72682   0.56021   0.57441   0.00000  Uiso   1.00
H1046  H     0.93709   0.66595   0.75243   0.00000  Uiso   1.00
H1047  H     0.69687   0.40788   0.60135   0.00000  Uiso   1.00
H1048  H     0.96980   0.59212   0.89865   0.00000  Uiso   1.00
H1049  H     0.73488   0.41943   0.67625   0.00000  Uiso   1.00
H1050  H     0.73451   0.66257   0.63700   0.00000  Uiso   1.00
H1051  H     0.82210   0.61889   0.62323   0.00000  Uiso   1.00
H1052  H     0.90768   0.33893   0.64655   0.00000  Uiso   1.00
H1053  H     0.90547   0.42654   0.68325   0.00000  Uiso   1.00
H1054  H     0.93179   0.58057   0.82375   0.00000  Uiso   1.00
H1055  H     0.93216   0.33743   0.86300   0.00000  Uiso   1.00
H1056  H     0.93984   0.43979   0.92559   0.00000  Uiso   1.00
H1057  H     0.84457   0.38111   0.87677   0.00000  Uiso   1.00
H1058  H     0.75899   0.66107   0.85345   0.00000  Uiso   1.00
H1059  H     0.76119   0.57346   0.81675   0.00000  Uiso   1.00
H1060  H     0.89503   0.53175   0.61728   0.00000  Uiso   1.00
H1061  H     0.77163   0.46825   0.88272   0.00000  Uiso   1.00
H1062  H     0.99519   0.57466   0.50951   0.00000  Uiso   1.00
H1063  H     0.67148   0.42534   0.99049   0.00000  Uiso   1.00
H1064  H     0.81114   0.52734   0.59986   0.00000  Uiso   1.00
H1065  H     0.85553   0.47266   0.90014   0.00000  Uiso   1.00
H1066  H     0.72957   0.33405   0.74757   0.00000  Uiso   1.00
N1067  N     0.81362   0.48550   0.73739   0.00000  Uiso   1.00
N1068  N     0.85305   0.51450   0.76260   0.00000  Uiso   1.00
O1069  O     0.96386   0.57964   0.75309   0.00000  Uiso   1.00
O1070  O     0.95707   0.56857   0.91961   0.00000  Uiso   1.00
O1071  O     0.70281   0.42036   0.74690   0.00000  Uiso   1.00
O1072  O     0.72488   0.57035   0.74501   0.00000  Uiso   1.00
O1073  O     0.94178   0.42965   0.75499   0.00000  Uiso   1.00
O1074  O     0.96995   0.50730   0.82247   0.00000  Uiso   1.00
O1075  O     0.69672   0.49270   0.67753   0.00000  Uiso   1.00
O1076  O     0.73098   0.49801   0.81439   0.00000  Uiso   1.00
O1077  O     0.93569   0.50199   0.68561   0.00000  Uiso   1.00
O1078  O     0.70960   0.43143   0.58039   0.00000  Uiso   1.00
Zn1079 Zn    0.93700   0.50621   0.75539   0.00000  Uiso   1.00
Zn1080 Zn    0.72967   0.49379   0.74460   0.00000  Uiso   1.00
C1081  C     0.01397   0.93099   0.74919   0.00000  Uiso   1.00
C1082  C     0.31221   0.82794   0.65868   0.00000  Uiso   1.00
C1083  C     0.03384   0.84671   0.89542   0.00000  Uiso   1.00
C1084  C     0.29950   0.81996   0.60458   0.00000  Uiso   1.00
C1085  C     0.02036   0.88593   0.98181   0.00000  Uiso   1.00
C1086  C     0.31297   0.78074   0.51819   0.00000  Uiso   1.00
C1087  C     0.00288   0.87756   0.93176   0.00000  Uiso   1.00
C1088  C     0.33045   0.78910   0.56824   0.00000  Uiso   1.00
C1089  C     0.08334   0.82751   0.91049   0.00000  Uiso   1.00
C1090  C     0.25000   0.83915   0.58951   0.00000  Uiso   1.00
C1091  C     0.10467   0.84136   0.95991   0.00000  Uiso   1.00
C1092  C     0.31936   0.73568   0.75081   0.00000  Uiso   1.00
C1093  C     0.22866   0.82530   0.54009   0.00000  Uiso   1.00
C1094  C     0.07078   0.86808   0.99610   0.00000  Uiso   1.00
C1095  C     0.26256   0.79858   0.50390   0.00000  Uiso   1.00
C1096  C     0.15836   0.82876   0.97437   0.00000  Uiso   1.00
C1097  C     0.17497   0.83790   0.52563   0.00000  Uiso   1.00
C1098  C     0.15335   0.76741   0.70083   0.00000  Uiso   1.00
C1099  C     0.10632   0.73699   0.67744   0.00000  Uiso   1.00
C1100  C     0.10601   0.68396   0.65165   0.00000  Uiso   1.00
C1101  C     0.15466   0.99278   0.64332   0.00000  Uiso   1.00
C1102  C     0.20253   0.68943   0.65722   0.00000  Uiso   1.00
C1103  C     0.13692   0.85814   0.56071   0.00000  Uiso   1.00
C1104  C     0.20118   0.74241   0.68293   0.00000  Uiso   1.00
C1105  C     0.17999   0.89925   0.79917   0.00000  Uiso   1.00
C1106  C     0.22701   0.92968   0.82256   0.00000  Uiso   1.00
C1107  C     0.22733   0.98270   0.84835   0.00000  Uiso   1.00
C1108  C     0.17868   0.67389   0.85668   0.00000  Uiso   1.00
C1109  C     0.13080   0.97724   0.84278   0.00000  Uiso   1.00
C1110  C     0.13216   0.92425   0.81707   0.00000  Uiso   1.00
C1111  C     0.19642   0.80853   0.93929   0.00000  Uiso   1.00
C1112  C     0.08701   0.87562   0.54620   0.00000  Uiso   1.00
C1113  C     0.24633   0.79105   0.95380   0.00000  Uiso   1.00
C1114  C     0.02151   0.98520   0.74908   0.00000  Uiso   1.00
C1115  C     0.31182   0.68147   0.75092   0.00000  Uiso   1.00
C1116  C     0.02112   0.83872   0.84132   0.00000  Uiso   1.00
H1117  H     0.06016   0.89354   0.57441   0.00000  Uiso   1.00
H1118  H     0.27043   0.99928   0.75243   0.00000  Uiso   1.00
H1119  H     0.03020   0.74121   0.60135   0.00000  Uiso   1.00
H1120  H     0.30313   0.92546   0.89865   0.00000  Uiso   1.00
H1121  H     0.06821   0.75276   0.67625   0.00000  Uiso   1.00
H1122  H     0.06784   0.99590   0.63700   0.00000  Uiso   1.00
H1123  H     0.15543   0.95222   0.62323   0.00000  Uiso   1.00
H1124  H     0.24101   0.67226   0.64655   0.00000  Uiso   1.00
H1125  H     0.23881   0.75987   0.68325   0.00000  Uiso   1.00
H1126  H     0.26513   0.91390   0.82375   0.00000  Uiso   1.00
H1127  H     0.26549   0.67076   0.86300   0.00000  Uiso   1.00
H1128  H     0.27318   0.77313   0.92559   0.00000  Uiso   1.00
H1129  H     0.17790   0.71445   0.87677   0.00000  Uiso   1.00
H1130  H     0.09232   0.99440   0.85345   0.00000  Uiso   1.00
H1131  H     0.09453   0.90680   0.81675   0.00000  Uiso   1.00
H1132  H     0.22837   0.86508   0.61728   0.00000  Uiso   1.00
H1133  H     0.10497   0.80159   0.88272   0.00000  Uiso   1.00
H1134  H     0.32853   0.90800   0.50951   0.00000  Uiso   1.00
H1135  H     0.00481   0.75867   0.99049   0.00000  Uiso   1.00
H1136  H     0.14447   0.86068   0.59986   0.00000  Uiso   1.00
H1137  H     0.18886   0.80599   0.90014   0.00000  Uiso   1.00
H1138  H     0.06291   0.66738   0.74757   0.00000  Uiso   1.00
N1139  N     0.14695   0.81883   0.73739   0.00000  Uiso   1.00
N1140  N     0.18638   0.84784   0.76260   0.00000  Uiso   1.00
O1141  O     0.29719   0.91298   0.75309   0.00000  Uiso   1.00
O1142  O     0.29040   0.90190   0.91961   0.00000  Uiso   1.00
O1143  O     0.03614   0.75369   0.74690   0.00000  Uiso   1.00
O1144  O     0.05822   0.90368   0.74501   0.00000  Uiso   1.00
O1145  O     0.27512   0.76298   0.75499   0.00000  Uiso   1.00
O1146  O     0.30328   0.84063   0.82247   0.00000  Uiso   1.00
O1147  O     0.03005   0.82603   0.67753   0.00000  Uiso   1.00
O1148  O     0.06431   0.83134   0.81439   0.00000  Uiso   1.00
O1149  O     0.26902   0.83533   0.68561   0.00000  Uiso   1.00
O1150  O     0.04293   0.76477   0.58039   0.00000  Uiso   1.00
Zn1151 Zn    0.27033   0.83954   0.75539   0.00000  Uiso   1.00
Zn1152 Zn    0.06300   0.82713   0.74460   0.00000  Uiso   1.00
C1153  C     0.34731   0.93099   0.74919   0.00000  Uiso   1.00
C1154  C     0.64554   0.82794   0.65868   0.00000  Uiso   1.00
C1155  C     0.36717   0.84671   0.89542   0.00000  Uiso   1.00
C1156  C     0.63283   0.81996   0.60458   0.00000  Uiso   1.00
C1157  C     0.35369   0.88593   0.98181   0.00000  Uiso   1.00
C1158  C     0.64631   0.78074   0.51819   0.00000  Uiso   1.00
C1159  C     0.33622   0.87756   0.93176   0.00000  Uiso   1.00
C1160  C     0.66378   0.78910   0.56824   0.00000  Uiso   1.00
C1161  C     0.41667   0.82751   0.91049   0.00000  Uiso   1.00
C1162  C     0.58333   0.83915   0.58951   0.00000  Uiso   1.00
C1163  C     0.43801   0.84136   0.95991   0.00000  Uiso   1.00
C1164  C     0.65269   0.73568   0.75081   0.00000  Uiso   1.00
C1165  C     0.56199   0.82530   0.54009   0.00000  Uiso   1.00
C1166  C     0.40411   0.86808   0.99610   0.00000  Uiso   1.00
C1167  C     0.59589   0.79858   0.50390   0.00000  Uiso   1.00
C1168  C     0.49170   0.82876   0.97437   0.00000  Uiso   1.00
C1169  C     0.50830   0.83790   0.52563   0.00000  Uiso   1.00
C1170  C     0.48668   0.76741   0.70083   0.00000  Uiso   1.00
C1171  C     0.43965   0.73699   0.67744   0.00000  Uiso   1.00
C1172  C     0.43934   0.68396   0.65165   0.00000  Uiso   1.00
C1173  C     0.48799   0.99278   0.64332   0.00000  Uiso   1.00
C1174  C     0.53586   0.68943   0.65722   0.00000  Uiso   1.00
C1175  C     0.47025   0.85814   0.56071   0.00000  Uiso   1.00
C1176  C     0.53451   0.74241   0.68293   0.00000  Uiso   1.00
C1177  C     0.51332   0.89925   0.79917   0.00000  Uiso   1.00
C1178  C     0.56035   0.92968   0.82256   0.00000  Uiso   1.00
C1179  C     0.56066   0.98270   0.84835   0.00000  Uiso   1.00
C1180  C     0.51201   0.67389   0.85668   0.00000  Uiso   1.00
C1181  C     0.46414   0.97724   0.84278   0.00000  Uiso   1.00
C1182  C     0.46549   0.92425   0.81707   0.00000  Uiso   1.00
C1183  C     0.52975   0.80853   0.93929   0.00000  Uiso   1.00
C1184  C     0.42034   0.87562   0.54620   0.00000  Uiso   1.00
C1185  C     0.57966   0.79105   0.95380   0.00000  Uiso   1.00
C1186  C     0.35484   0.98520   0.74908   0.00000  Uiso   1.00
C1187  C     0.64516   0.68147   0.75092   0.00000  Uiso   1.00
C1188  C     0.35446   0.83872   0.84132   0.00000  Uiso   1.00
H1189  H     0.39349   0.89354   0.57441   0.00000  Uiso   1.00
H1190  H     0.60376   0.99928   0.75243   0.00000  Uiso   1.00
H1191  H     0.36353   0.74121   0.60135   0.00000  Uiso   1.00
H1192  H     0.63647   0.92546   0.89865   0.00000  Uiso   1.00
H1193  H     0.40154   0.75276   0.67625   0.00000  Uiso   1.00
H1194  H     0.40118   0.99590   0.63700   0.00000  Uiso   1.00
H1195  H     0.48877   0.95222   0.62323   0.00000  Uiso   1.00
H1196  H     0.57435   0.67226   0.64655   0.00000  Uiso   1.00
H1197  H     0.57214   0.75987   0.68325   0.00000  Uiso   1.00
H1198  H     0.59846   0.91390   0.82375   0.00000  Uiso   1.00
H1199  H     0.59882   0.67076   0.86300   0.00000  Uiso   1.00
H1200  H     0.60651   0.77313   0.92559   0.00000  Uiso   1.00
H1201  H     0.51123   0.71445   0.87677   0.00000  Uiso   1.00
H1202  H     0.42565   0.99440   0.85345   0.00000  Uiso   1.00
H1203  H     0.42786   0.90680   0.81675   0.00000  Uiso   1.00
H1204  H     0.56170   0.86508   0.61728   0.00000  Uiso   1.00
H1205  H     0.43830   0.80159   0.88272   0.00000  Uiso   1.00
H1206  H     0.66186   0.90800   0.50951   0.00000  Uiso   1.00
H1207  H     0.33814   0.75867   0.99049   0.00000  Uiso   1.00
H1208  H     0.47781   0.86068   0.59986   0.00000  Uiso   1.00
H1209  H     0.52219   0.80599   0.90014   0.00000  Uiso   1.00
H1210  H     0.39624   0.66738   0.74757   0.00000  Uiso   1.00
N1211  N     0.48029   0.81883   0.73739   0.00000  Uiso   1.00
N1212  N     0.51971   0.84784   0.76260   0.00000  Uiso   1.00
O1213  O     0.63052   0.91298   0.75309   0.00000  Uiso   1.00
O1214  O     0.62373   0.90190   0.91961   0.00000  Uiso   1.00
O1215  O     0.36948   0.75369   0.74690   0.00000  Uiso   1.00
O1216  O     0.39155   0.90368   0.74501   0.00000  Uiso   1.00
O1217  O     0.60845   0.76298   0.75499   0.00000  Uiso   1.00
O1218  O     0.63662   0.84063   0.82247   0.00000  Uiso   1.00
O1219  O     0.36338   0.82603   0.67753   0.00000  Uiso   1.00
O1220  O     0.39764   0.83134   0.81439   0.00000  Uiso   1.00
O1221  O     0.60236   0.83533   0.68561   0.00000  Uiso   1.00
O1222  O     0.37627   0.76477   0.58039   0.00000  Uiso   1.00
Zn1223 Zn    0.60366   0.83954   0.75539   0.00000  Uiso   1.00
Zn1224 Zn    0.39634   0.82713   0.74460   0.00000  Uiso   1.00
C1225  C     0.68064   0.93099   0.74919   0.00000  Uiso   1.00
C1226  C     0.97888   0.82794   0.65868   0.00000  Uiso   1.00
C1227  C     0.70050   0.84671   0.89542   0.00000  Uiso   1.00
C1228  C     0.96616   0.81996   0.60458   0.00000  Uiso   1.00
C1229  C     0.68703   0.88593   0.98181   0.00000  Uiso   1.00
C1230  C     0.97964   0.78074   0.51819   0.00000  Uiso   1.00
C1231  C     0.66955   0.87756   0.93176   0.00000  Uiso   1.00
C1232  C     0.99712   0.78910   0.56824   0.00000  Uiso   1.00
C1233  C     0.75000   0.82751   0.91049   0.00000  Uiso   1.00
C1234  C     0.91666   0.83915   0.58951   0.00000  Uiso   1.00
C1235  C     0.77134   0.84136   0.95991   0.00000  Uiso   1.00
C1236  C     0.98603   0.73568   0.75081   0.00000  Uiso   1.00
C1237  C     0.89533   0.82530   0.54009   0.00000  Uiso   1.00
C1238  C     0.73744   0.86808   0.99610   0.00000  Uiso   1.00
C1239  C     0.92922   0.79858   0.50390   0.00000  Uiso   1.00
C1240  C     0.82503   0.82876   0.97437   0.00000  Uiso   1.00
C1241  C     0.84164   0.83790   0.52563   0.00000  Uiso   1.00
C1242  C     0.82001   0.76741   0.70083   0.00000  Uiso   1.00
C1243  C     0.77299   0.73699   0.67744   0.00000  Uiso   1.00
C1244  C     0.77267   0.68396   0.65165   0.00000  Uiso   1.00
C1245  C     0.82132   0.99278   0.64332   0.00000  Uiso   1.00
C1246  C     0.86920   0.68943   0.65722   0.00000  Uiso   1.00
C1247  C     0.80358   0.85814   0.56071   0.00000  Uiso   1.00
C1248  C     0.86784   0.74241   0.68293   0.00000  Uiso   1.00
C1249  C     0.84665   0.89925   0.79917   0.00000  Uiso   1.00
C1250  C     0.89368   0.92968   0.82256   0.00000  Uiso   1.00
C1251  C     0.89399   0.98270   0.84835   0.00000  Uiso   1.00
C1252  C     0.84534   0.67389   0.85668   0.00000  Uiso   1.00
C1253  C     0.79747   0.97724   0.84278   0.00000  Uiso   1.00
C1254  C     0.79882   0.92425   0.81707   0.00000  Uiso   1.00
C1255  C     0.86308   0.80853   0.93929   0.00000  Uiso   1.00
C1256  C     0.75367   0.87562   0.54620   0.00000  Uiso   1.00
C1257  C     0.91299   0.79105   0.95380   0.00000  Uiso   1.00
C1258  C     0.68818   0.98520   0.74908   0.00000  Uiso   1.00
C1259  C     0.97849   0.68147   0.75092   0.00000  Uiso   1.00
C1260  C     0.68779   0.83872   0.84132   0.00000  Uiso   1.00
H1261  H     0.72682   0.89354   0.57441   0.00000  Uiso   1.00
H1262  H     0.93709   0.99928   0.75243   0.00000  Uiso   1.00
H1263  H     0.69687   0.74121   0.60135   0.00000  Uiso   1.00
H1264  H     0.96980   0.92546   0.89865   0.00000  Uiso   1.00
H1265  H     0.73488   0.75276   0.67625   0.00000  Uiso   1.00
H1266  H     0.73451   0.99590   0.63700   0.00000  Uiso   1.00
H1267  H     0.82210   0.95222   0.62323   0.00000  Uiso   1.00
H1268  H     0.90768   0.67226   0.64655   0.00000  Uiso   1.00
H1269  H     0.90547   0.75987   0.68325   0.00000  Uiso   1.00
H1270  H     0.93179   0.91390   0.82375   0.00000  Uiso   1.00
H1271  H     0.93216   0.67076   0.86300   0.00000  Uiso   1.00
H1272  H     0.93984   0.77313   0.92559   0.00000  Uiso   1.00
H1273  H     0.84457   0.71445   0.87677   0.00000  Uiso   1.00
H1274  H     0.75899   0.99440   0.85345   0.00000  Uiso   1.00
H1275  H     0.76119   0.90680   0.81675   0.00000  Uiso   1.00
H1276  H     0.89503   0.86508   0.61728   0.00000  Uiso   1.00
H1277  H     0.77163   0.80159   0.88272   0.00000  Uiso   1.00
H1278  H     0.99519   0.90800   0.50951   0.00000  Uiso   1.00
H1279  H     0.67148   0.75867   0.99049   0.00000  Uiso   1.00
H1280  H     0.81114   0.86068   0.59986   0.00000  Uiso   1.00
H1281  H     0.85553   0.80599   0.90014   0.00000  Uiso   1.00
H1282  H     0.72957   0.66738   0.74757   0.00000  Uiso   1.00
N1283  N     0.81362   0.81883   0.73739   0.00000  Uiso   1.00
N1284  N     0.85305   0.84784   0.76260   0.00000  Uiso   1.00
O1285  O     0.96386   0.91298   0.75309   0.00000  Uiso   1.00
O1286  O     0.95707   0.90190   0.91961   0.00000  Uiso   1.00
O1287  O     0.70281   0.75369   0.74690   0.00000  Uiso   1.00
O1288  O     0.72488   0.90368   0.74501   0.00000  Uiso   1.00
O1289  O     0.94178   0.76298   0.75499   0.00000  Uiso   1.00
O1290  O     0.96995   0.84063   0.82247   0.00000  Uiso   1.00
O1291  O     0.69672   0.82603   0.67753   0.00000  Uiso   1.00
O1292  O     0.73098   0.83134   0.81439   0.00000  Uiso   1.00
O1293  O     0.93569   0.83533   0.68561   0.00000  Uiso   1.00
O1294  O     0.70960   0.76477   0.58039   0.00000  Uiso   1.00
Zn1295 Zn    0.93700   0.83954   0.75539   0.00000  Uiso   1.00
Zn1296 Zn    0.72967   0.82713   0.74460   0.00000  Uiso   1.00
loop_
_geom_bond_atom_site_label_1
_geom_bond_atom_site_label_2
_geom_bond_distance
_geom_bond_site_symmetry_2
_ccdc_geom_bond_type
C1     C34     1.413   .     S
C1     O64     1.311   .     A
C1     O205    1.321   1_455 S
C2     O69     1.325   .     A
C2     C4      1.482   .     S
C2     O139    1.339   .     S
C3     C9      1.404   .     A
C3     C36     1.482   .     S
C3     C7      1.412   .     A
C4     C10     1.404   .     A
C4     C8      1.412   .     A
C5     C7      1.396   .     A
C5     C14     1.401   .     A
C5     H846    1.084   1_455 S
C6     C8      1.396   .     A
C6     C15     1.401   .     A
C6     H775    1.084   1_554 S
C7     O206    1.368   1_455 S
C8     O142    1.368   .     S
C9     C11     1.403   .     A
C9     H53     1.078   .     S
C10    H52     1.078   .     S
C10    C13     1.403   .     A
C11    C14     1.413   .     A
C11    C16     1.424   .     A
C12    C35     1.413   .     S
C12    O65     1.311   .     A
C12    O135    1.321   .     S
C13    C17     1.424   .     A
C13    C15     1.413   .     A
C14    C680    1.392   .     S
C15    C681    1.392   1_554 S
C16    C31     1.413   .     A
C16    C665    1.421   .     S
C17    C23     1.413   .     A
C17    C664    1.421   1_554 S
C18    N59     1.501   .     S
C18    C24     1.418   .     A
C18    C19     1.416   .     A
C19    C20     1.399   .     A
C19    H41     1.034   .     S
C20    C453    1.376   1_545 S
C20    H474    1.083   1_545 S
C21    H43     1.075   .     S
C21    C236    1.376   .     S
C21    C238    1.375   .     S
C22    C24     1.400   .     A
C22    H44     1.084   .     S
C22    C453    1.375   1_545 S
C23    C32     1.388   .     A
C23    H56     1.078   .     S
C24    H45     1.015   .     S
C25    N60     1.501   .     S
C25    C30     1.418   .     A
C25    C26     1.416   .     A
C26    C27     1.399   .     A
C26    H46     1.034   .     S
C27    C244    1.376   .     S
C27    H263    1.083   .     S
C28    H49     1.075   .     S
C28    C459    1.376   1_545 S
C28    C461    1.375   1_545 S
C29    C30     1.400   .     A
C29    H50     1.084   .     S
C29    C244    1.375   .     S
C30    H51     1.015   .     S
C31    C33     1.388   .     A
C31    H57     1.078   .     S
C32    H37     1.084   .     S
C32    C662    1.392   1_554 S
C33    H48     1.084   .     S
C33    C663    1.392   .     S
C34    C395    1.321   1_455 S
C34    H274    1.088   .     S
C35    C538    1.321   1_545 S
C35    H470    1.088   1_545 S
C36    O68     1.325   .     A
C36    O210    1.339   1_455 S
H38    C251    1.088   .     S
H39    O70     0.989   .     S
H40    O62     0.989   .     S
H42    C236    1.083   .     S
H47    C459    1.083   1_545 S
H54    C725    1.084   1_554 S
H55    C798    1.084   1_455 S
H58    C466    1.088   1_545 S
N59    Zn72    2.094   .     S
N59    N60     1.278   .     D
N60    Zn71    2.094   .     S
O61    Zn71    2.011   .     S
O61    C73     1.321   .     S
O62    C79     1.368   .     S
O63    Zn72    2.011   .     S
O63    C156    1.321   1_455 S
O64    Zn72    1.989   .     S
O65    Zn71    1.989   .     S
O66    Zn71    1.980   .     S
O66    C108    1.339   .     S
O67    Zn72    1.980   .     S
O67    C146    1.339   1_455 S
O68    Zn72    1.912   .     S
O69    Zn71    1.912   .     S
O70    C152    1.368   1_455 S
C73    C106    1.413   .     S
C73    O136    1.311   .     A
C74    O141    1.325   .     A
C74    C76     1.482   .     S
C74    O211    1.339   .     S
C75    C81     1.404   .     A
C75    C108    1.482   .     S
C75    C79     1.412   .     A
C76    C82     1.404   .     A
C76    C80     1.412   .     A
C77    C79     1.396   .     A
C77    C86     1.401   .     A
C77    H702    1.084   .     S
C78    C80     1.396   .     A
C78    C87     1.401   .     A
C78    H847    1.084   1_554 S
C80    O214    1.368   .     S
C81    C83     1.403   .     A
C81    H125    1.078   .     S
C82    H124    1.078   .     S
C82    C85     1.403   .     A
C83    C86     1.413   .     A
C83    C88     1.424   .     A
C84    C107    1.413   .     S
C84    O137    1.311   .     A
C84    O207    1.321   .     S
C85    C89     1.424   .     A
C85    C87     1.413   .     A
C86    C752    1.392   .     S
C87    C753    1.392   1_554 S
C88    C103    1.413   .     A
C88    C737    1.421   .     S
C89    C95     1.413   .     A
C89    C736    1.421   1_554 S
C90    N131    1.501   .     S
C90    C96     1.418   .     A
C90    C91     1.416   .     A
C91    C92     1.399   .     A
C91    H113    1.034   .     S
C92    C525    1.376   1_545 S
C92    H546    1.083   1_545 S
C93    H115    1.075   .     S
C93    C308    1.376   .     S
C93    C310    1.375   .     S
C94    C96     1.400   .     A
C94    H116    1.084   .     S
C94    C525    1.375   1_545 S
C95    C104    1.388   .     A
C95    H128    1.078   .     S
C96    H117    1.015   .     S
C97    N132    1.501   .     S
C97    C102    1.418   .     A
C97    C98     1.416   .     A
C98    C99     1.399   .     A
C98    H118    1.034   .     S
C99    C316    1.376   .     S
C99    H335    1.083   .     S
C100   H121    1.075   .     S
C100   C531    1.376   1_545 S
C100   C533    1.375   1_545 S
C101   C102    1.400   .     A
C101   H122    1.084   .     S
C101   C316    1.375   .     S
C102   H123    1.015   .     S
C103   C105    1.388   .     A
C103   H129    1.078   .     S
C104   H109    1.084   .     S
C104   C734    1.392   1_554 S
C105   H120    1.084   .     S
C105   C735    1.392   .     S
C106   C251    1.321   .     S
C106   H346    1.088   .     S
C107   C610    1.321   1_545 S
C107   H542    1.088   1_545 S
C108   O140    1.325   .     A
H110   C323    1.088   .     S
H111   O142    0.989   .     S
H112   O134    0.989   .     S
H114   C308    1.083   .     S
H119   C531    1.083   1_545 S
H126   C797    1.084   1_554 S
H127   C654    1.084   .     S
H130   C538    1.088   1_545 S
N131   Zn144   2.094   .     S
N131   N132    1.278   .     D
N132   Zn143   2.094   .     S
O133   Zn143   2.011   .     S
O133   C145    1.321   .     S
O134   C151    1.368   .     S
O135   Zn144   2.011   .     S
O136   Zn144   1.989   .     S
O137   Zn143   1.989   .     S
O138   Zn143   1.980   .     S
O138   C180    1.339   .     S
O139   Zn144   1.980   .     S
O140   Zn144   1.912   .     S
O141   Zn143   1.912   .     S
C145   C178    1.413   .     S
C145   O208    1.311   .     A
C146   O213    1.325   .     A
C146   C148    1.482   .     S
C146   O67     1.339   1_655 S
C147   C153    1.404   .     A
C147   C180    1.482   .     S
C147   C151    1.412   .     A
C148   C154    1.404   .     A
C148   C152    1.412   .     A
C149   C151    1.396   .     A
C149   C158    1.401   .     A
C149   H774    1.084   .     S
C150   C152    1.396   .     A
C150   C159    1.401   .     A
C150   H703    1.084   1_654 S
C152   O70     1.368   1_655 S
C153   C155    1.403   .     A
C153   H197    1.078   .     S
C154   H196    1.078   .     S
C154   C157    1.403   .     A
C155   C158    1.413   .     A
C155   C160    1.424   .     A
C156   C179    1.413   .     S
C156   O209    1.311   .     A
C156   O63     1.321   1_655 S
C157   C161    1.424   .     A
C157   C159    1.413   .     A
C158   C824    1.392   .     S
C159   C825    1.392   1_554 S
C160   C175    1.413   .     A
C160   C809    1.421   .     S
C161   C167    1.413   .     A
C161   C808    1.421   1_554 S
C162   N203    1.501   .     S
C162   C168    1.418   .     A
C162   C163    1.416   .     A
C163   C164    1.399   .     A
C163   H185    1.034   .     S
C164   C597    1.376   1_545 S
C164   H618    1.083   1_545 S
C165   H187    1.075   .     S
C165   C380    1.376   .     S
C165   C382    1.375   .     S
C166   C168    1.400   .     A
C166   H188    1.084   .     S
C166   C597    1.375   1_545 S
C167   C176    1.388   .     A
C167   H200    1.078   .     S
C168   H189    1.015   .     S
C169   N204    1.501   .     S
C169   C174    1.418   .     A
C169   C170    1.416   .     A
C170   C171    1.399   .     A
C170   H190    1.034   .     S
C171   C388    1.376   .     S
C171   H407    1.083   .     S
C172   H193    1.075   .     S
C172   C603    1.376   1_545 S
C172   C605    1.375   1_545 S
C173   C174    1.400   .     A
C173   H194    1.084   .     S
C173   C388    1.375   .     S
C174   H195    1.015   .     S
C175   C177    1.388   .     A
C175   H201    1.078   .     S
C176   H181    1.084   .     S
C176   C806    1.392   1_554 S
C177   H192    1.084   .     S
C177   C807    1.392   .     S
C178   C323    1.321   .     S
C178   H418    1.088   .     S
C179   C466    1.321   1_645 S
C179   H614    1.088   1_545 S
C180   O212    1.325   .     A
H182   C395    1.088   .     S
H183   O214    0.989   .     S
H184   O206    0.989   .     S
H186   C380    1.083   .     S
H191   C603    1.083   1_545 S
H198   C653    1.084   1_654 S
H199   C726    1.084   .     S
H202   C610    1.088   1_545 S
N203   Zn216   2.094   .     S
N203   N204    1.278   .     D
N204   Zn215   2.094   .     S
O205   Zn215   2.011   .     S
O205   C1      1.321   1_655 S
O206   C7      1.368   1_655 S
O207   Zn216   2.011   .     S
O208   Zn216   1.989   .     S
O209   Zn215   1.989   .     S
O210   Zn215   1.980   .     S
O210   C36     1.339   1_655 S
O211   Zn216   1.980   .     S
O212   Zn216   1.912   .     S
O213   Zn215   1.912   .     S
C217   C250    1.413   .     S
C217   O280    1.311   .     A
C217   O421    1.321   1_455 S
C218   O285    1.325   .     A
C218   C220    1.482   .     S
C218   O355    1.339   .     S
C219   C225    1.404   .     A
C219   C252    1.482   .     S
C219   C223    1.412   .     A
C220   C226    1.404   .     A
C220   C224    1.412   .     A
C221   C223    1.396   .     A
C221   C230    1.401   .     A
C221   H1062   1.084   1_455 S
C222   C224    1.396   .     A
C222   C231    1.401   .     A
C222   H991    1.084   1_554 S
C223   O422    1.368   1_455 S
C224   O358    1.368   .     S
C225   C227    1.403   .     A
C225   H269    1.078   .     S
C226   H268    1.078   .     S
C226   C229    1.403   .     A
C227   C230    1.413   .     A
C227   C232    1.424   .     A
C228   C251    1.413   .     S
C228   O281    1.311   .     A
C228   O351    1.321   .     S
C229   C233    1.424   .     A
C229   C231    1.413   .     A
C230   C896    1.392   .     S
C231   C897    1.392   1_554 S
C232   C247    1.413   .     A
C232   C881    1.421   .     S
C233   C239    1.413   .     A
C233   C880    1.421   1_554 S
C234   N275    1.501   .     S
C234   C240    1.418   .     A
C234   C235    1.416   .     A
C235   C236    1.399   .     A
C235   H257    1.034   .     S
C237   H259    1.075   .     S
C237   C452    1.376   .     S
C237   C454    1.375   .     S
C238   C240    1.400   .     A
C238   H260    1.084   .     S
C239   C248    1.388   .     A
C239   H272    1.078   .     S
C240   H261    1.015   .     S
C241   N276    1.501   .     S
C241   C246    1.418   .     A
C241   C242    1.416   .     A
C242   C243    1.399   .     A
C242   H262    1.034   .     S
C243   C460    1.376   .     S
C243   H479    1.083   .     S
C244   H265    1.075   .     S
C245   C246    1.400   .     A
C245   H266    1.084   .     S
C245   C460    1.375   .     S
C246   H267    1.015   .     S
C247   C249    1.388   .     A
C247   H273    1.078   .     S
C248   H253    1.084   .     S
C248   C878    1.392   1_554 S
C249   H264    1.084   .     S
C249   C879    1.392   .     S
C250   C611    1.321   1_455 S
C250   H490    1.088   .     S
C252   O284    1.325   .     A
C252   O426    1.339   1_455 S
H254   C467    1.088   .     S
H255   O286    0.989   .     S
H256   O278    0.989   .     S
H258   C452    1.083   .     S
H270   C941    1.084   1_554 S
H271   C1014   1.084   1_455 S
N275   Zn288   2.094   .     S
N275   N276    1.278   .     D
N276   Zn287   2.094   .     S
O277   Zn287   2.011   .     S
O277   C289    1.321   .     S
O278   C295    1.368   .     S
O279   Zn288   2.011   .     S
O279   C372    1.321   1_455 S
O280   Zn288   1.989   .     S
O281   Zn287   1.989   .     S
O282   Zn287   1.980   .     S
O282   C324    1.339   .     S
O283   Zn288   1.980   .     S
O283   C362    1.339   1_455 S
O284   Zn288   1.912   .     S
O285   Zn287   1.912   .     S
O286   C368    1.368   1_455 S
C289   C322    1.413   .     S
C289   O352    1.311   .     A
C290   O357    1.325   .     A
C290   C292    1.482   .     S
C290   O427    1.339   .     S
C291   C297    1.404   .     A
C291   C324    1.482   .     S
C291   C295    1.412   .     A
C292   C298    1.404   .     A
C292   C296    1.412   .     A
C293   C295    1.396   .     A
C293   C302    1.401   .     A
C293   H918    1.084   .     S
C294   C296    1.396   .     A
C294   C303    1.401   .     A
C294   H1063   1.084   1_554 S
C296   O430    1.368   .     S
C297   C299    1.403   .     A
C297   H341    1.078   .     S
C298   H340    1.078   .     S
C298   C301    1.403   .     A
C299   C302    1.413   .     A
C299   C304    1.424   .     A
C300   C323    1.413   .     S
C300   O353    1.311   .     A
C300   O423    1.321   .     S
C301   C305    1.424   .     A
C301   C303    1.413   .     A
C302   C968    1.392   .     S
C303   C969    1.392   1_554 S
C304   C319    1.413   .     A
C304   C953    1.421   .     S
C305   C311    1.413   .     A
C305   C952    1.421   1_554 S
C306   N347    1.501   .     S
C306   C312    1.418   .     A
C306   C307    1.416   .     A
C307   C308    1.399   .     A
C307   H329    1.034   .     S
C309   H331    1.075   .     S
C309   C524    1.376   .     S
C309   C526    1.375   .     S
C310   C312    1.400   .     A
C310   H332    1.084   .     S
C311   C320    1.388   .     A
C311   H344    1.078   .     S
C312   H333    1.015   .     S
C313   N348    1.501   .     S
C313   C318    1.418   .     A
C313   C314    1.416   .     A
C314   C315    1.399   .     A
C314   H334    1.034   .     S
C315   C532    1.376   .     S
C315   H551    1.083   .     S
C316   H337    1.075   .     S
C317   C318    1.400   .     A
C317   H338    1.084   .     S
C317   C532    1.375   .     S
C318   H339    1.015   .     S
C319   C321    1.388   .     A
C319   H345    1.078   .     S
C320   H325    1.084   .     S
C320   C950    1.392   1_554 S
C321   H336    1.084   .     S
C321   C951    1.392   .     S
C322   C467    1.321   .     S
C322   H562    1.088   .     S
C324   O356    1.325   .     A
H326   C539    1.088   .     S
H327   O358    0.989   .     S
H328   O350    0.989   .     S
H330   C524    1.083   .     S
H342   C1013   1.084   1_554 S
H343   C870    1.084   .     S
N347   Zn360   2.094   .     S
N347   N348    1.278   .     D
N348   Zn359   2.094   .     S
O349   Zn359   2.011   .     S
O349   C361    1.321   .     S
O350   C367    1.368   .     S
O351   Zn360   2.011   .     S
O352   Zn360   1.989   .     S
O353   Zn359   1.989   .     S
O354   Zn359   1.980   .     S
O354   C396    1.339   .     S
O355   Zn360   1.980   .     S
O356   Zn360   1.912   .     S
O357   Zn359   1.912   .     S
C361   C394    1.413   .     S
C361   O424    1.311   .     A
C362   O429    1.325   .     A
C362   C364    1.482   .     S
C362   O283    1.339   1_655 S
C363   C369    1.404   .     A
C363   C396    1.482   .     S
C363   C367    1.412   .     A
C364   C370    1.404   .     A
C364   C368    1.412   .     A
C365   C367    1.396   .     A
C365   C374    1.401   .     A
C365   H990    1.084   .     S
C366   C368    1.396   .     A
C366   C375    1.401   .     A
C366   H919    1.084   1_654 S
C368   O286    1.368   1_655 S
C369   C371    1.403   .     A
C369   H413    1.078   .     S
C370   H412    1.078   .     S
C370   C373    1.403   .     A
C371   C374    1.413   .     A
C371   C376    1.424   .     A
C372   C395    1.413   .     S
C372   O425    1.311   .     A
C372   O279    1.321   1_655 S
C373   C377    1.424   .     A
C373   C375    1.413   .     A
C374   C1040   1.392   .     S
C375   C1041   1.392   1_554 S
C376   C391    1.413   .     A
C376   C1025   1.421   .     S
C377   C383    1.413   .     A
C377   C1024   1.421   1_554 S
C378   N419    1.501   .     S
C378   C384    1.418   .     A
C378   C379    1.416   .     A
C379   C380    1.399   .     A
C379   H401    1.034   .     S
C381   H403    1.075   .     S
C381   C596    1.376   .     S
C381   C598    1.375   .     S
C382   C384    1.400   .     A
C382   H404    1.084   .     S
C383   C392    1.388   .     A
C383   H416    1.078   .     S
C384   H405    1.015   .     S
C385   N420    1.501   .     S
C385   C390    1.418   .     A
C385   C386    1.416   .     A
C386   C387    1.399   .     A
C386   H406    1.034   .     S
C387   C604    1.376   .     S
C387   H623    1.083   .     S
C388   H409    1.075   .     S
C389   C390    1.400   .     A
C389   H410    1.084   .     S
C389   C604    1.375   .     S
C390   H411    1.015   .     S
C391   C393    1.388   .     A
C391   H417    1.078   .     S
C392   H397    1.084   .     S
C392   C1022   1.392   1_554 S
C393   H408    1.084   .     S
C393   C1023   1.392   .     S
C394   C539    1.321   .     S
C394   H634    1.088   .     S
C395   C34     1.321   1_655 S
C396   O428    1.325   .     A
H398   C611    1.088   .     S
H399   O430    0.989   .     S
H400   O422    0.989   .     S
H402   C596    1.083   .     S
H414   C869    1.084   1_654 S
H415   C942    1.084   .     S
N419   Zn432   2.094   .     S
N419   N420    1.278   .     D
N420   Zn431   2.094   .     S
O421   Zn431   2.011   .     S
O421   C217    1.321   1_655 S
O422   C223    1.368   1_655 S
O423   Zn432   2.011   .     S
O424   Zn432   1.989   .     S
O425   Zn431   1.989   .     S
O426   Zn431   1.980   .     S
O426   C252    1.339   1_655 S
O427   Zn432   1.980   .     S
O428   Zn432   1.912   .     S
O429   Zn431   1.912   .     S
C433   C466    1.413   .     S
C433   O496    1.311   .     A
C433   O637    1.321   1_455 S
C434   O501    1.325   .     A
C434   C436    1.482   .     S
C434   O571    1.339   .     S
C435   C441    1.404   .     A
C435   C468    1.482   .     S
C435   C439    1.412   .     A
C436   C442    1.404   .     A
C436   C440    1.412   .     A
C437   C439    1.396   .     A
C437   C446    1.401   .     A
C437   H1278   1.084   1_455 S
C438   C440    1.396   .     A
C438   C447    1.401   .     A
C438   H1207   1.084   1_554 S
C439   O638    1.368   1_455 S
C440   O574    1.368   .     S
C441   C443    1.403   .     A
C441   H485    1.078   .     S
C442   H484    1.078   .     S
C442   C445    1.403   .     A
C443   C446    1.413   .     A
C443   C448    1.424   .     A
C444   C467    1.413   .     S
C444   O497    1.311   .     A
C444   O567    1.321   .     S
C445   C449    1.424   .     A
C445   C447    1.413   .     A
C446   C1112   1.392   .     S
C447   C1113   1.392   1_554 S
C448   C463    1.413   .     A
C448   C1097   1.421   .     S
C449   C455    1.413   .     A
C449   C1096   1.421   1_554 S
C450   N491    1.501   .     S
C450   C456    1.418   .     A
C450   C451    1.416   .     A
C451   C452    1.399   .     A
C451   H473    1.034   .     S
C453   H475    1.075   .     S
C453   C20     1.376   1_565 S
C453   C22     1.375   1_565 S
C454   C456    1.400   .     A
C454   H476    1.084   .     S
C455   C464    1.388   .     A
C455   H488    1.078   .     S
C456   H477    1.015   .     S
C457   N492    1.501   .     S
C457   C462    1.418   .     A
C457   C458    1.416   .     A
C458   C459    1.399   .     A
C458   H478    1.034   .     S
C459   C28     1.376   1_565 S
C459   H47     1.083   1_565 S
C460   H481    1.075   .     S
C461   C462    1.400   .     A
C461   H482    1.084   .     S
C461   C28     1.375   1_565 S
C462   H483    1.015   .     S
C463   C465    1.388   .     A
C463   H489    1.078   .     S
C464   H469    1.084   .     S
C464   C1094   1.392   1_554 S
C465   H480    1.084   .     S
C465   C1095   1.392   .     S
C466   C179    1.321   1_465 S
C466   H58     1.088   1_565 S
C468   O500    1.325   .     A
C468   O642    1.339   1_455 S
H470   C35     1.088   1_565 S
H471   O502    0.989   .     S
H472   O494    0.989   .     S
H474   C20     1.083   1_565 S
H486   C1157   1.084   1_554 S
H487   C1230   1.084   1_455 S
N491   Zn504   2.094   .     S
N491   N492    1.278   .     D
N492   Zn503   2.094   .     S
O493   Zn503   2.011   .     S
O493   C505    1.321   .     S
O494   C511    1.368   .     S
O495   Zn504   2.011   .     S
O495   C588    1.321   1_455 S
O496   Zn504   1.989   .     S
O497   Zn503   1.989   .     S
O498   Zn503   1.980   .     S
O498   C540    1.339   .     S
O499   Zn504   1.980   .     S
O499   C578    1.339   1_455 S
O500   Zn504   1.912   .     S
O501   Zn503   1.912   .     S
O502   C584    1.368   1_455 S
C505   C538    1.413   .     S
C505   O568    1.311   .     A
C506   O573    1.325   .     A
C506   C508    1.482   .     S
C506   O643    1.339   .     S
C507   C513    1.404   .     A
C507   C540    1.482   .     S
C507   C511    1.412   .     A
C508   C514    1.404   .     A
C508   C512    1.412   .     A
C509   C511    1.396   .     A
C509   C518    1.401   .     A
C509   H1134   1.084   .     S
C510   C512    1.396   .     A
C510   C519    1.401   .     A
C510   H1279   1.084   1_554 S
C512   O646    1.368   .     S
C513   C515    1.403   .     A
C513   H557    1.078   .     S
C514   H556    1.078   .     S
C514   C517    1.403   .     A
C515   C518    1.413   .     A
C515   C520    1.424   .     A
C516   C539    1.413   .     S
C516   O569    1.311   .     A
C516   O639    1.321   .     S
C517   C521    1.424   .     A
C517   C519    1.413   .     A
C518   C1184   1.392   .     S
C519   C1185   1.392   1_554 S
C520   C535    1.413   .     A
C520   C1169   1.421   .     S
C521   C527    1.413   .     A
C521   C1168   1.421   1_554 S
C522   N563    1.501   .     S
C522   C528    1.418   .     A
C522   C523    1.416   .     A
C523   C524    1.399   .     A
C523   H545    1.034   .     S
C525   H547    1.075   .     S
C525   C92     1.376   1_565 S
C525   C94     1.375   1_565 S
C526   C528    1.400   .     A
C526   H548    1.084   .     S
C527   C536    1.388   .     A
C527   H560    1.078   .     S
C528   H549    1.015   .     S
C529   N564    1.501   .     S
C529   C534    1.418   .     A
C529   C530    1.416   .     A
C530   C531    1.399   .     A
C530   H550    1.034   .     S
C531   C100    1.376   1_565 S
C531   H119    1.083   1_565 S
C532   H553    1.075   .     S
C533   C534    1.400   .     A
C533   H554    1.084   .     S
C533   C100    1.375   1_565 S
C534   H555    1.015   .     S
C535   C537    1.388   .     A
C535   H561    1.078   .     S
C536   H541    1.084   .     S
C536   C1166   1.392   1_554 S
C537   H552    1.084   .     S
C537   C1167   1.392   .     S
C538   C35     1.321   1_565 S
C538   H130    1.088   1_565 S
C540   O572    1.325   .     A
H542   C107    1.088   1_565 S
H543   O574    0.989   .     S
H544   O566    0.989   .     S
H546   C92     1.083   1_565 S
H558   C1229   1.084   1_554 S
H559   C1086   1.084   .     S
N563   Zn576   2.094   .     S
N563   N564    1.278   .     D
N564   Zn575   2.094   .     S
O565   Zn575   2.011   .     S
O565   C577    1.321   .     S
O566   C583    1.368   .     S
O567   Zn576   2.011   .     S
O568   Zn576   1.989   .     S
O569   Zn575   1.989   .     S
O570   Zn575   1.980   .     S
O570   C612    1.339   .     S
O571   Zn576   1.980   .     S
O572   Zn576   1.912   .     S
O573   Zn575   1.912   .     S
C577   C610    1.413   .     S
C577   O640    1.311   .     A
C578   O645    1.325   .     A
C578   C580    1.482   .     S
C578   O499    1.339   1_655 S
C579   C585    1.404   .     A
C579   C612    1.482   .     S
C579   C583    1.412   .     A
C580   C586    1.404   .     A
C580   C584    1.412   .     A
C581   C583    1.396   .     A
C581   C590    1.401   .     A
C581   H1206   1.084   .     S
C582   C584    1.396   .     A
C582   C591    1.401   .     A
C582   H1135   1.084   1_654 S
C584   O502    1.368   1_655 S
C585   C587    1.403   .     A
C585   H629    1.078   .     S
C586   H628    1.078   .     S
C586   C589    1.403   .     A
C587   C590    1.413   .     A
C587   C592    1.424   .     A
C588   C611    1.413   .     S
C588   O641    1.311   .     A
C588   O495    1.321   1_655 S
C589   C593    1.424   .     A
C589   C591    1.413   .     A
C590   C1256   1.392   .     S
C591   C1257   1.392   1_554 S
C592   C607    1.413   .     A
C592   C1241   1.421   .     S
C593   C599    1.413   .     A
C593   C1240   1.421   1_554 S
C594   N635    1.501   .     S
C594   C600    1.418   .     A
C594   C595    1.416   .     A
C595   C596    1.399   .     A
C595   H617    1.034   .     S
C597   H619    1.075   .     S
C597   C164    1.376   1_565 S
C597   C166    1.375   1_565 S
C598   C600    1.400   .     A
C598   H620    1.084   .     S
C599   C608    1.388   .     A
C599   H632    1.078   .     S
C600   H621    1.015   .     S
C601   N636    1.501   .     S
C601   C606    1.418   .     A
C601   C602    1.416   .     A
C602   C603    1.399   .     A
C602   H622    1.034   .     S
C603   C172    1.376   1_565 S
C603   H191    1.083   1_565 S
C604   H625    1.075   .     S
C605   C606    1.400   .     A
C605   H626    1.084   .     S
C605   C172    1.375   1_565 S
C606   H627    1.015   .     S
C607   C609    1.388   .     A
C607   H633    1.078   .     S
C608   H613    1.084   .     S
C608   C1238   1.392   1_554 S
C609   H624    1.084   .     S
C609   C1239   1.392   .     S
C610   C107    1.321   1_565 S
C610   H202    1.088   1_565 S
C611   C250    1.321   1_655 S
C612   O644    1.325   .     A
H614   C179    1.088   1_565 S
H615   O646    0.989   .     S
H616   O638    0.989   .     S
H618   C164    1.083   1_565 S
H630   C1085   1.084   1_654 S
H631   C1158   1.084   .     S
N635   Zn648   2.094   .     S
N635   N636    1.278   .     D
N636   Zn647   2.094   .     S
O637   Zn647   2.011   .     S
O637   C433    1.321   1_655 S
O638   C439    1.368   1_655 S
O639   Zn648   2.011   .     S
O640   Zn648   1.989   .     S
O641   Zn647   1.989   .     S
O642   Zn647   1.980   .     S
O642   C468    1.339   1_655 S
O643   Zn648   1.980   .     S
O644   Zn648   1.912   .     S
O645   Zn647   1.912   .     S
C649   C682    1.413   .     S
C649   O712    1.311   .     A
C649   O853    1.321   1_455 S
C650   O717    1.325   .     A
C650   C652    1.482   .     S
C650   O787    1.339   .     S
C651   C657    1.404   .     A
C651   C684    1.482   .     S
C651   C655    1.412   .     A
C652   C658    1.404   .     A
C652   C656    1.412   .     A
C653   C655    1.396   .     A
C653   C662    1.401   .     A
C653   H198    1.084   1_456 S
C654   C656    1.396   .     A
C654   C663    1.401   .     A
C655   O854    1.368   1_455 S
C656   O790    1.368   .     S
C657   C659    1.403   .     A
C657   H701    1.078   .     S
C658   H700    1.078   .     S
C658   C661    1.403   .     A
C659   C662    1.413   .     A
C659   C664    1.424   .     A
C660   C683    1.413   .     S
C660   O713    1.311   .     A
C660   O783    1.321   .     S
C661   C665    1.424   .     A
C661   C663    1.413   .     A
C662   C32     1.392   1_556 S
C664   C679    1.413   .     A
C664   C17     1.421   1_556 S
C665   C671    1.413   .     A
C666   N707    1.501   .     S
C666   C672    1.418   .     A
C666   C667    1.416   .     A
C667   C668    1.399   .     A
C667   H689    1.034   .     S
C668   C1101   1.376   1_545 S
C668   H1122   1.083   1_545 S
C669   H691    1.075   .     S
C669   C884    1.376   .     S
C669   C886    1.375   .     S
C670   C672    1.400   .     A
C670   H692    1.084   .     S
C670   C1101   1.375   1_545 S
C671   C680    1.388   .     A
C671   H704    1.078   .     S
C672   H693    1.015   .     S
C673   N708    1.501   .     S
C673   C678    1.418   .     A
C673   C674    1.416   .     A
C674   C675    1.399   .     A
C674   H694    1.034   .     S
C675   C892    1.376   .     S
C675   H911    1.083   .     S
C676   H697    1.075   .     S
C676   C1107   1.376   1_545 S
C676   C1109   1.375   1_545 S
C677   C678    1.400   .     A
C677   H698    1.084   .     S
C677   C892    1.375   .     S
C678   H699    1.015   .     S
C679   C681    1.388   .     A
C679   H705    1.078   .     S
C680   H685    1.084   .     S
C681   H696    1.084   .     S
C681   C15     1.392   1_556 S
C682   C1043   1.321   1_455 S
C682   H922    1.088   .     S
C683   C1186   1.321   1_545 S
C683   H1118   1.088   1_545 S
C684   O716    1.325   .     A
C684   O858    1.339   1_455 S
H686   C899    1.088   .     S
H687   O718    0.989   .     S
H688   O710    0.989   .     S
H690   C884    1.083   .     S
H695   C1107   1.083   1_545 S
H703   C150    1.084   1_456 S
H706   C1114   1.088   1_545 S
N707   Zn720   2.094   .     S
N707   N708    1.278   .     D
N708   Zn719   2.094   .     S
O709   Zn719   2.011   .     S
O709   C721    1.321   .     S
O710   C727    1.368   .     S
O711   Zn720   2.011   .     S
O711   C804    1.321   1_455 S
O712   Zn720   1.989   .     S
O713   Zn719   1.989   .     S
O714   Zn719   1.980   .     S
O714   C756    1.339   .     S
O715   Zn720   1.980   .     S
O715   C794    1.339   1_455 S
O716   Zn720   1.912   .     S
O717   Zn719   1.912   .     S
O718   C800    1.368   1_455 S
C721   C754    1.413   .     S
C721   O784    1.311   .     A
C722   O789    1.325   .     A
C722   C724    1.482   .     S
C722   O859    1.339   .     S
C723   C729    1.404   .     A
C723   C756    1.482   .     S
C723   C727    1.412   .     A
C724   C730    1.404   .     A
C724   C728    1.412   .     A
C725   C727    1.396   .     A
C725   C734    1.401   .     A
C725   H54     1.084   1_556 S
C726   C728    1.396   .     A
C726   C735    1.401   .     A
C728   O862    1.368   .     S
C729   C731    1.403   .     A
C729   H773    1.078   .     S
C730   H772    1.078   .     S
C730   C733    1.403   .     A
C731   C734    1.413   .     A
C731   C736    1.424   .     A
C732   C755    1.413   .     S
C732   O785    1.311   .     A
C732   O855    1.321   .     S
C733   C737    1.424   .     A
C733   C735    1.413   .     A
C734   C104    1.392   1_556 S
C736   C751    1.413   .     A
C736   C89     1.421   1_556 S
C737   C743    1.413   .     A
C738   N779    1.501   .     S
C738   C744    1.418   .     A
C738   C739    1.416   .     A
C739   C740    1.399   .     A
C739   H761    1.034   .     S
C740   C1173   1.376   1_545 S
C740   H1194   1.083   1_545 S
C741   H763    1.075   .     S
C741   C956    1.376   .     S
C741   C958    1.375   .     S
C742   C744    1.400   .     A
C742   H764    1.084   .     S
C742   C1173   1.375   1_545 S
C743   C752    1.388   .     A
C743   H776    1.078   .     S
C744   H765    1.015   .     S
C745   N780    1.501   .     S
C745   C750    1.418   .     A
C745   C746    1.416   .     A
C746   C747    1.399   .     A
C746   H766    1.034   .     S
C747   C964    1.376   .     S
C747   H983    1.083   .     S
C748   H769    1.075   .     S
C748   C1179   1.376   1_545 S
C748   C1181   1.375   1_545 S
C749   C750    1.400   .     A
C749   H770    1.084   .     S
C749   C964    1.375   .     S
C750   H771    1.015   .     S
C751   C753    1.388   .     A
C751   H777    1.078   .     S
C752   H757    1.084   .     S
C753   H768    1.084   .     S
C753   C87     1.392   1_556 S
C754   C899    1.321   .     S
C754   H994    1.088   .     S
C755   C1258   1.321   1_545 S
C755   H1190   1.088   1_545 S
C756   O788    1.325   .     A
H758   C971    1.088   .     S
H759   O790    0.989   .     S
H760   O782    0.989   .     S
H762   C956    1.083   .     S
H767   C1179   1.083   1_545 S
H775   C6      1.084   1_556 S
H778   C1186   1.088   1_545 S
N779   Zn792   2.094   .     S
N779   N780    1.278   .     D
N780   Zn791   2.094   .     S
O781   Zn791   2.011   .     S
O781   C793    1.321   .     S
O782   C799    1.368   .     S
O783   Zn792   2.011   .     S
O784   Zn792   1.989   .     S
O785   Zn791   1.989   .     S
O786   Zn791   1.980   .     S
O786   C828    1.339   .     S
O787   Zn792   1.980   .     S
O788   Zn792   1.912   .     S
O789   Zn791   1.912   .     S
C793   C826    1.413   .     S
C793   O856    1.311   .     A
C794   O861    1.325   .     A
C794   C796    1.482   .     S
C794   O715    1.339   1_655 S
C795   C801    1.404   .     A
C795   C828    1.482   .     S
C795   C799    1.412   .     A
C796   C802    1.404   .     A
C796   C800    1.412   .     A
C797   C799    1.396   .     A
C797   C806    1.401   .     A
C797   H126    1.084   1_556 S
C798   C800    1.396   .     A
C798   C807    1.401   .     A
C798   H55     1.084   1_655 S
C800   O718    1.368   1_655 S
C801   C803    1.403   .     A
C801   H845    1.078   .     S
C802   H844    1.078   .     S
C802   C805    1.403   .     A
C803   C806    1.413   .     A
C803   C808    1.424   .     A
C804   C827    1.413   .     S
C804   O857    1.311   .     A
C804   O711    1.321   1_655 S
C805   C809    1.424   .     A
C805   C807    1.413   .     A
C806   C176    1.392   1_556 S
C808   C823    1.413   .     A
C808   C161    1.421   1_556 S
C809   C815    1.413   .     A
C810   N851    1.501   .     S
C810   C816    1.418   .     A
C810   C811    1.416   .     A
C811   C812    1.399   .     A
C811   H833    1.034   .     S
C812   C1245   1.376   1_545 S
C812   H1266   1.083   1_545 S
C813   H835    1.075   .     S
C813   C1028   1.376   .     S
C813   C1030   1.375   .     S
C814   C816    1.400   .     A
C814   H836    1.084   .     S
C814   C1245   1.375   1_545 S
C815   C824    1.388   .     A
C815   H848    1.078   .     S
C816   H837    1.015   .     S
C817   N852    1.501   .     S
C817   C822    1.418   .     A
C817   C818    1.416   .     A
C818   C819    1.399   .     A
C818   H838    1.034   .     S
C819   C1036   1.376   .     S
C819   H1055   1.083   .     S
C820   H841    1.075   .     S
C820   C1251   1.376   1_545 S
C820   C1253   1.375   1_545 S
C821   C822    1.400   .     A
C821   H842    1.084   .     S
C821   C1036   1.375   .     S
C822   H843    1.015   .     S
C823   C825    1.388   .     A
C823   H849    1.078   .     S
C824   H829    1.084   .     S
C825   H840    1.084   .     S
C825   C159    1.392   1_556 S
C826   C971    1.321   .     S
C826   H1066   1.088   .     S
C827   C1114   1.321   1_645 S
C827   H1262   1.088   1_545 S
C828   O860    1.325   .     A
H830   C1043   1.088   .     S
H831   O862    0.989   .     S
H832   O854    0.989   .     S
H834   C1028   1.083   .     S
H839   C1251   1.083   1_545 S
H846   C5      1.084   1_655 S
H847   C78     1.084   1_556 S
H850   C1258   1.088   1_545 S
N851   Zn864   2.094   .     S
N851   N852    1.278   .     D
N852   Zn863   2.094   .     S
O853   Zn863   2.011   .     S
O853   C649    1.321   1_655 S
O854   C655    1.368   1_655 S
O855   Zn864   2.011   .     S
O856   Zn864   1.989   .     S
O857   Zn863   1.989   .     S
O858   Zn863   1.980   .     S
O858   C684    1.339   1_655 S
O859   Zn864   1.980   .     S
O860   Zn864   1.912   .     S
O861   Zn863   1.912   .     S
C865   C898    1.413   .     S
C865   O928    1.311   .     A
C865   O1069   1.321   1_455 S
C866   O933    1.325   .     A
C866   C868    1.482   .     S
C866   O1003   1.339   .     S
C867   C873    1.404   .     A
C867   C900    1.482   .     S
C867   C871    1.412   .     A
C868   C874    1.404   .     A
C868   C872    1.412   .     A
C869   C871    1.396   .     A
C869   C878    1.401   .     A
C869   H414    1.084   1_456 S
C870   C872    1.396   .     A
C870   C879    1.401   .     A
C871   O1070   1.368   1_455 S
C872   O1006   1.368   .     S
C873   C875    1.403   .     A
C873   H917    1.078   .     S
C874   H916    1.078   .     S
C874   C877    1.403   .     A
C875   C878    1.413   .     A
C875   C880    1.424   .     A
C876   C899    1.413   .     S
C876   O929    1.311   .     A
C876   O999    1.321   .     S
C877   C881    1.424   .     A
C877   C879    1.413   .     A
C878   C248    1.392   1_556 S
C880   C895    1.413   .     A
C880   C233    1.421   1_556 S
C881   C887    1.413   .     A
C882   N923    1.501   .     S
C882   C888    1.418   .     A
C882   C883    1.416   .     A
C883   C884    1.399   .     A
C883   H905    1.034   .     S
C885   H907    1.075   .     S
C885   C1100   1.376   .     S
C885   C1102   1.375   .     S
C886   C888    1.400   .     A
C886   H908    1.084   .     S
C887   C896    1.388   .     A
C887   H920    1.078   .     S
C888   H909    1.015   .     S
C889   N924    1.501   .     S
C889   C894    1.418   .     A
C889   C890    1.416   .     A
C890   C891    1.399   .     A
C890   H910    1.034   .     S
C891   C1108   1.376   .     S
C891   H1127   1.083   .     S
C892   H913    1.075   .     S
C893   C894    1.400   .     A
C893   H914    1.084   .     S
C893   C1108   1.375   .     S
C894   H915    1.015   .     S
C895   C897    1.388   .     A
C895   H921    1.078   .     S
C896   H901    1.084   .     S
C897   H912    1.084   .     S
C897   C231    1.392   1_556 S
C898   C1259   1.321   1_455 S
C898   H1138   1.088   .     S
C900   O932    1.325   .     A
C900   O1074   1.339   1_455 S
H902   C1115   1.088   .     S
H903   O934    0.989   .     S
H904   O926    0.989   .     S
H906   C1100   1.083   .     S
H919   C366    1.084   1_456 S
N923   Zn936   2.094   .     S
N923   N924    1.278   .     D
N924   Zn935   2.094   .     S
O925   Zn935   2.011   .     S
O925   C937    1.321   .     S
O926   C943    1.368   .     S
O927   Zn936   2.011   .     S
O927   C1020   1.321   1_455 S
O928   Zn936   1.989   .     S
O929   Zn935   1.989   .     S
O930   Zn935   1.980   .     S
O930   C972    1.339   .     S
O931   Zn936   1.980   .     S
O931   C1010   1.339   1_455 S
O932   Zn936   1.912   .     S
O933   Zn935   1.912   .     S
O934   C1016   1.368   1_455 S
C937   C970    1.413   .     S
C937   O1000   1.311   .     A
C938   O1005   1.325   .     A
C938   C940    1.482   .     S
C938   O1075   1.339   .     S
C939   C945    1.404   .     A
C939   C972    1.482   .     S
C939   C943    1.412   .     A
C940   C946    1.404   .     A
C940   C944    1.412   .     A
C941   C943    1.396   .     A
C941   C950    1.401   .     A
C941   H270    1.084   1_556 S
C942   C944    1.396   .     A
C942   C951    1.401   .     A
C944   O1078   1.368   .     S
C945   C947    1.403   .     A
C945   H989    1.078   .     S
C946   H988    1.078   .     S
C946   C949    1.403   .     A
C947   C950    1.413   .     A
C947   C952    1.424   .     A
C948   C971    1.413   .     S
C948   O1001   1.311   .     A
C948   O1071   1.321   .     S
C949   C953    1.424   .     A
C949   C951    1.413   .     A
C950   C320    1.392   1_556 S
C952   C967    1.413   .     A
C952   C305    1.421   1_556 S
C953   C959    1.413   .     A
C954   N995    1.501   .     S
C954   C960    1.418   .     A
C954   C955    1.416   .     A
C955   C956    1.399   .     A
C955   H977    1.034   .     S
C957   H979    1.075   .     S
C957   C1172   1.376   .     S
C957   C1174   1.375   .     S
C958   C960    1.400   .     A
C958   H980    1.084   .     S
C959   C968    1.388   .     A
C959   H992    1.078   .     S
C960   H981    1.015   .     S
C961   N996    1.501   .     S
C961   C966    1.418   .     A
C961   C962    1.416   .     A
C962   C963    1.399   .     A
C962   H982    1.034   .     S
C963   C1180   1.376   .     S
C963   H1199   1.083   .     S
C964   H985    1.075   .     S
C965   C966    1.400   .     A
C965   H986    1.084   .     S
C965   C1180   1.375   .     S
C966   H987    1.015   .     S
C967   C969    1.388   .     A
C967   H993    1.078   .     S
C968   H973    1.084   .     S
C969   H984    1.084   .     S
C969   C303    1.392   1_556 S
C970   C1115   1.321   .     S
C970   H1210   1.088   .     S
C972   O1004   1.325   .     A
H974   C1187   1.088   .     S
H975   O1006   0.989   .     S
H976   O998    0.989   .     S
H978   C1172   1.083   .     S
H991   C222    1.084   1_556 S
N995   Zn1008  2.094   .     S
N995   N996    1.278   .     D
N996   Zn1007  2.094   .     S
O997   Zn1007  2.011   .     S
O997   C1009   1.321   .     S
O998   C1015   1.368   .     S
O999   Zn1008  2.011   .     S
O1000  Zn1008  1.989   .     S
O1001  Zn1007  1.989   .     S
O1002  Zn1007  1.980   .     S
O1002  C1044   1.339   .     S
O1003  Zn1008  1.980   .     S
O1004  Zn1008  1.912   .     S
O1005  Zn1007  1.912   .     S
C1009  C1042   1.413   .     S
C1009  O1072   1.311   .     A
C1010  O1077   1.325   .     A
C1010  C1012   1.482   .     S
C1010  O931    1.339   1_655 S
C1011  C1017   1.404   .     A
C1011  C1044   1.482   .     S
C1011  C1015   1.412   .     A
C1012  C1018   1.404   .     A
C1012  C1016   1.412   .     A
C1013  C1015   1.396   .     A
C1013  C1022   1.401   .     A
C1013  H342    1.084   1_556 S
C1014  C1016   1.396   .     A
C1014  C1023   1.401   .     A
C1014  H271    1.084   1_655 S
C1016  O934    1.368   1_655 S
C1017  C1019   1.403   .     A
C1017  H1061   1.078   .     S
C1018  H1060   1.078   .     S
C1018  C1021   1.403   .     A
C1019  C1022   1.413   .     A
C1019  C1024   1.424   .     A
C1020  C1043   1.413   .     S
C1020  O1073   1.311   .     A
C1020  O927    1.321   1_655 S
C1021  C1025   1.424   .     A
C1021  C1023   1.413   .     A
C1022  C392    1.392   1_556 S
C1024  C1039   1.413   .     A
C1024  C377    1.421   1_556 S
C1025  C1031   1.413   .     A
C1026  N1067   1.501   .     S
C1026  C1032   1.418   .     A
C1026  C1027   1.416   .     A
C1027  C1028   1.399   .     A
C1027  H1049   1.034   .     S
C1029  H1051   1.075   .     S
C1029  C1244   1.376   .     S
C1029  C1246   1.375   .     S
C1030  C1032   1.400   .     A
C1030  H1052   1.084   .     S
C1031  C1040   1.388   .     A
C1031  H1064   1.078   .     S
C1032  H1053   1.015   .     S
C1033  N1068   1.501   .     S
C1033  C1038   1.418   .     A
C1033  C1034   1.416   .     A
C1034  C1035   1.399   .     A
C1034  H1054   1.034   .     S
C1035  C1252   1.376   .     S
C1035  H1271   1.083   .     S
C1036  H1057   1.075   .     S
C1037  C1038   1.400   .     A
C1037  H1058   1.084   .     S
C1037  C1252   1.375   .     S
C1038  H1059   1.015   .     S
C1039  C1041   1.388   .     A
C1039  H1065   1.078   .     S
C1040  H1045   1.084   .     S
C1041  H1056   1.084   .     S
C1041  C375    1.392   1_556 S
C1042  C1187   1.321   .     S
C1042  H1282   1.088   .     S
C1043  C682    1.321   1_655 S
C1044  O1076   1.325   .     A
H1046  C1259   1.088   .     S
H1047  O1078   0.989   .     S
H1048  O1070   0.989   .     S
H1050  C1244   1.083   .     S
H1062  C221    1.084   1_655 S
H1063  C294    1.084   1_556 S
N1067  Zn1080  2.094   .     S
N1067  N1068   1.278   .     D
N1068  Zn1079  2.094   .     S
O1069  Zn1079  2.011   .     S
O1069  C865    1.321   1_655 S
O1070  C871    1.368   1_655 S
O1071  Zn1080  2.011   .     S
O1072  Zn1080  1.989   .     S
O1073  Zn1079  1.989   .     S
O1074  Zn1079  1.980   .     S
O1074  C900    1.339   1_655 S
O1075  Zn1080  1.980   .     S
O1076  Zn1080  1.912   .     S
O1077  Zn1079  1.912   .     S
C1081  C1114   1.413   .     S
C1081  O1144   1.311   .     A
C1081  O1285   1.321   1_455 S
C1082  O1149   1.325   .     A
C1082  C1084   1.482   .     S
C1082  O1219   1.339   .     S
C1083  C1089   1.404   .     A
C1083  C1116   1.482   .     S
C1083  C1087   1.412   .     A
C1084  C1090   1.404   .     A
C1084  C1088   1.412   .     A
C1085  C1087   1.396   .     A
C1085  C1094   1.401   .     A
C1085  H630    1.084   1_456 S
C1086  C1088   1.396   .     A
C1086  C1095   1.401   .     A
C1087  O1286   1.368   1_455 S
C1088  O1222   1.368   .     S
C1089  C1091   1.403   .     A
C1089  H1133   1.078   .     S
C1090  H1132   1.078   .     S
C1090  C1093   1.403   .     A
C1091  C1094   1.413   .     A
C1091  C1096   1.424   .     A
C1092  C1115   1.413   .     S
C1092  O1145   1.311   .     A
C1092  O1215   1.321   .     S
C1093  C1097   1.424   .     A
C1093  C1095   1.413   .     A
C1094  C464    1.392   1_556 S
C1096  C1111   1.413   .     A
C1096  C449    1.421   1_556 S
C1097  C1103   1.413   .     A
C1098  N1139   1.501   .     S
C1098  C1104   1.418   .     A
C1098  C1099   1.416   .     A
C1099  C1100   1.399   .     A
C1099  H1121   1.034   .     S
C1101  H1123   1.075   .     S
C1101  C668    1.376   1_565 S
C1101  C670    1.375   1_565 S
C1102  C1104   1.400   .     A
C1102  H1124   1.084   .     S
C1103  C1112   1.388   .     A
C1103  H1136   1.078   .     S
C1104  H1125   1.015   .     S
C1105  N1140   1.501   .     S
C1105  C1110   1.418   .     A
C1105  C1106   1.416   .     A
C1106  C1107   1.399   .     A
C1106  H1126   1.034   .     S
C1107  C676    1.376   1_565 S
C1107  H695    1.083   1_565 S
C1108  H1129   1.075   .     S
C1109  C1110   1.400   .     A
C1109  H1130   1.084   .     S
C1109  C676    1.375   1_565 S
C1110  H1131   1.015   .     S
C1111  C1113   1.388   .     A
C1111  H1137   1.078   .     S
C1112  H1117   1.084   .     S
C1113  H1128   1.084   .     S
C1113  C447    1.392   1_556 S
C1114  C827    1.321   1_465 S
C1114  H706    1.088   1_565 S
C1116  O1148   1.325   .     A
C1116  O1290   1.339   1_455 S
H1118  C683    1.088   1_565 S
H1119  O1150   0.989   .     S
H1120  O1142   0.989   .     S
H1122  C668    1.083   1_565 S
H1135  C582    1.084   1_456 S
N1139  Zn1152  2.094   .     S
N1139  N1140   1.278   .     D
N1140  Zn1151  2.094   .     S
O1141  Zn1151  2.011   .     S
O1141  C1153   1.321   .     S
O1142  C1159   1.368   .     S
O1143  Zn1152  2.011   .     S
O1143  C1236   1.321   1_455 S
O1144  Zn1152  1.989   .     S
O1145  Zn1151  1.989   .     S
O1146  Zn1151  1.980   .     S
O1146  C1188   1.339   .     S
O1147  Zn1152  1.980   .     S
O1147  C1226   1.339   1_455 S
O1148  Zn1152  1.912   .     S
O1149  Zn1151  1.912   .     S
O1150  C1232   1.368   1_455 S
C1153  C1186   1.413   .     S
C1153  O1216   1.311   .     A
C1154  O1221   1.325   .     A
C1154  C1156   1.482   .     S
C1154  O1291   1.339   .     S
C1155  C1161   1.404   .     A
C1155  C1188   1.482   .     S
C1155  C1159   1.412   .     A
C1156  C1162   1.404   .     A
C1156  C1160   1.412   .     A
C1157  C1159   1.396   .     A
C1157  C1166   1.401   .     A
C1157  H486    1.084   1_556 S
C1158  C1160   1.396   .     A
C1158  C1167   1.401   .     A
C1160  O1294   1.368   .     S
C1161  C1163   1.403   .     A
C1161  H1205   1.078   .     S
C1162  H1204   1.078   .     S
C1162  C1165   1.403   .     A
C1163  C1166   1.413   .     A
C1163  C1168   1.424   .     A
C1164  C1187   1.413   .     S
C1164  O1217   1.311   .     A
C1164  O1287   1.321   .     S
C1165  C1169   1.424   .     A
C1165  C1167   1.413   .     A
C1166  C536    1.392   1_556 S
C1168  C1183   1.413   .     A
C1168  C521    1.421   1_556 S
C1169  C1175   1.413   .     A
C1170  N1211   1.501   .     S
C1170  C1176   1.418   .     A
C1170  C1171   1.416   .     A
C1171  C1172   1.399   .     A
C1171  H1193   1.034   .     S
C1173  H1195   1.075   .     S
C1173  C740    1.376   1_565 S
C1173  C742    1.375   1_565 S
C1174  C1176   1.400   .     A
C1174  H1196   1.084   .     S
C1175  C1184   1.388   .     A
C1175  H1208   1.078   .     S
C1176  H1197   1.015   .     S
C1177  N1212   1.501   .     S
C1177  C1182   1.418   .     A
C1177  C1178   1.416   .     A
C1178  C1179   1.399   .     A
C1178  H1198   1.034   .     S
C1179  C748    1.376   1_565 S
C1179  H767    1.083   1_565 S
C1180  H1201   1.075   .     S
C1181  C1182   1.400   .     A
C1181  H1202   1.084   .     S
C1181  C748    1.375   1_565 S
C1182  H1203   1.015   .     S
C1183  C1185   1.388   .     A
C1183  H1209   1.078   .     S
C1184  H1189   1.084   .     S
C1185  H1200   1.084   .     S
C1185  C519    1.392   1_556 S
C1186  C683    1.321   1_565 S
C1186  H778    1.088   1_565 S
C1188  O1220   1.325   .     A
H1190  C755    1.088   1_565 S
H1191  O1222   0.989   .     S
H1192  O1214   0.989   .     S
H1194  C740    1.083   1_565 S
H1207  C438    1.084   1_556 S
N1211  Zn1224  2.094   .     S
N1211  N1212   1.278   .     D
N1212  Zn1223  2.094   .     S
O1213  Zn1223  2.011   .     S
O1213  C1225   1.321   .     S
O1214  C1231   1.368   .     S
O1215  Zn1224  2.011   .     S
O1216  Zn1224  1.989   .     S
O1217  Zn1223  1.989   .     S
O1218  Zn1223  1.980   .     S
O1218  C1260   1.339   .     S
O1219  Zn1224  1.980   .     S
O1220  Zn1224  1.912   .     S
O1221  Zn1223  1.912   .     S
C1225  C1258   1.413   .     S
C1225  O1288   1.311   .     A
C1226  O1293   1.325   .     A
C1226  C1228   1.482   .     S
C1226  O1147   1.339   1_655 S
C1227  C1233   1.404   .     A
C1227  C1260   1.482   .     S
C1227  C1231   1.412   .     A
C1228  C1234   1.404   .     A
C1228  C1232   1.412   .     A
C1229  C1231   1.396   .     A
C1229  C1238   1.401   .     A
C1229  H558    1.084   1_556 S
C1230  C1232   1.396   .     A
C1230  C1239   1.401   .     A
C1230  H487    1.084   1_655 S
C1232  O1150   1.368   1_655 S
C1233  C1235   1.403   .     A
C1233  H1277   1.078   .     S
C1234  H1276   1.078   .     S
C1234  C1237   1.403   .     A
C1235  C1238   1.413   .     A
C1235  C1240   1.424   .     A
C1236  C1259   1.413   .     S
C1236  O1289   1.311   .     A
C1236  O1143   1.321   1_655 S
C1237  C1241   1.424   .     A
C1237  C1239   1.413   .     A
C1238  C608    1.392   1_556 S
C1240  C1255   1.413   .     A
C1240  C593    1.421   1_556 S
C1241  C1247   1.413   .     A
C1242  N1283   1.501   .     S
C1242  C1248   1.418   .     A
C1242  C1243   1.416   .     A
C1243  C1244   1.399   .     A
C1243  H1265   1.034   .     S
C1245  H1267   1.075   .     S
C1245  C812    1.376   1_565 S
C1245  C814    1.375   1_565 S
C1246  C1248   1.400   .     A
C1246  H1268   1.084   .     S
C1247  C1256   1.388   .     A
C1247  H1280   1.078   .     S
C1248  H1269   1.015   .     S
C1249  N1284   1.501   .     S
C1249  C1254   1.418   .     A
C1249  C1250   1.416   .     A
C1250  C1251   1.399   .     A
C1250  H1270   1.034   .     S
C1251  C820    1.376   1_565 S
C1251  H839    1.083   1_565 S
C1252  H1273   1.075   .     S
C1253  C1254   1.400   .     A
C1253  H1274   1.084   .     S
C1253  C820    1.375   1_565 S
C1254  H1275   1.015   .     S
C1255  C1257   1.388   .     A
C1255  H1281   1.078   .     S
C1256  H1261   1.084   .     S
C1257  H1272   1.084   .     S
C1257  C591    1.392   1_556 S
C1258  C755    1.321   1_565 S
C1258  H850    1.088   1_565 S
C1259  C898    1.321   1_655 S
C1260  O1292   1.325   .     A
H1262  C827    1.088   1_565 S
H1263  O1294   0.989   .     S
H1264  O1286   0.989   .     S
H1266  C812    1.083   1_565 S
H1278  C437    1.084   1_655 S
H1279  C510    1.084   1_556 S
N1283  Zn1296  2.094   .     S
N1283  N1284   1.278   .     D
N1284  Zn1295  2.094   .     S
O1285  Zn1295  2.011   .     S
O1285  C1081   1.321   1_655 S
O1286  C1087   1.368   1_655 S
O1287  Zn1296  2.011   .     S
O1288  Zn1296  1.989   .     S
O1289  Zn1295  1.989   .     S
O1290  Zn1295  1.980   .     S
O1290  C1116   1.339   1_655 S
O1291  Zn1296  1.980   .     S
O1292  Zn1296  1.912   .     S
O1293  Zn1295  1.912   .     S
