data_str_m2_o1_o10_pcu_sym.113
_audit_creation_date              2020-01-03
_audit_creation_method            'Materials Studio'
_symmetry_space_group_name_H-M    'P1'
_symmetry_Int_Tables_number       1
_symmetry_cell_setting            triclinic
loop_
_symmetry_equiv_pos_as_xyz
  x,y,z
_cell_length_a                    26.4839
_cell_length_b                    32.5019
_cell_length_c                    28.5342
_cell_angle_alpha                 90.0151
_cell_angle_beta                  97.8335
_cell_angle_gamma                 90.1662
loop_
_atom_site_label
_atom_site_type_symbol
_atom_site_fract_x
_atom_site_fract_y
_atom_site_fract_z
_atom_site_U_iso_or_equiv
_atom_site_adp_type
_atom_site_occupancy
C1     C     0.16663   0.08735   0.16665   0.00000  Uiso   1.00
C2     C     0.16670   0.24598   0.16669   0.00000  Uiso   1.00
C3     C     0.06813   0.16679   0.15472   0.00000  Uiso   1.00
C4     C     0.26520   0.16655   0.17861   0.00000  Uiso   1.00
C5     C     0.01325   0.16940   0.14810   0.00000  Uiso   1.00
C6     C     0.32009   0.16394   0.18523   0.00000  Uiso   1.00
C7     C     0.16692   0.02127   0.12410   0.00000  Uiso   1.00
C8     C     0.16642   0.31207   0.20923   0.00000  Uiso   1.00
C9     C     0.16697   0.31204   0.12412   0.00000  Uiso   1.00
C10    C     0.16637   0.02130   0.20921   0.00000  Uiso   1.00
C11    C     0.16671   0.29060   0.16668   0.00000  Uiso   1.00
C12    C     0.16663   0.04274   0.16665   0.00000  Uiso   1.00
C13    C     0.13434   0.14157   0.02071   0.00000  Uiso   1.00
C14    C     0.19899   0.19176   0.31262   0.00000  Uiso   1.00
C15    C     0.13438   0.14156   0.30442   0.00000  Uiso   1.00
C16    C     0.19895   0.19177   0.02891   0.00000  Uiso   1.00
Cu17   Cu    0.16667   0.16667   0.21355   0.00000  Uiso   1.00
Cu18   Cu    0.16667   0.16666   0.11978   0.00000  Uiso   1.00
H19    H     0.16712   0.03727   0.09083   0.00000  Uiso   1.00
H20    H     0.16622   0.29607   0.24250   0.00000  Uiso   1.00
H21    H     0.16722   0.29601   0.09086   0.00000  Uiso   1.00
H22    H     0.16611   0.03732   0.24247   0.00000  Uiso   1.00
H23    H     0.10850   0.12145   0.03615   0.00000  Uiso   1.00
H24    H     0.22483   0.21189   0.29718   0.00000  Uiso   1.00
H25    H     0.10863   0.12137   0.28244   0.00000  Uiso   1.00
H26    H     0.22470   0.21196   0.05090   0.00000  Uiso   1.00
N27    N     0.16668   0.16668   0.28403   0.00000  Uiso   1.00
N28    N     0.16665   0.16666   0.04931   0.00000  Uiso   1.00
O29    O     0.16666   0.10655   0.20625   0.00000  Uiso   1.00
O30    O     0.16667   0.22678   0.12709   0.00000  Uiso   1.00
O31    O     0.16666   0.10654   0.12706   0.00000  Uiso   1.00
O32    O     0.16667   0.22679   0.20628   0.00000  Uiso   1.00
O33    O     0.09161   0.16667   0.19712   0.00000  Uiso   1.00
O34    O     0.24172   0.16666   0.13621   0.00000  Uiso   1.00
O35    O     0.09161   0.16666   0.11793   0.00000  Uiso   1.00
O36    O     0.24172   0.16667   0.21540   0.00000  Uiso   1.00
N37    N     0.32180   0.17958   0.10146   0.00000  Uiso   1.00
H38    H     0.00319   0.20758   0.09128   0.00000  Uiso   1.00
H39    H     0.33044   0.15682   0.07791   0.00000  Uiso   1.00
N40    N     0.01153   0.15376   0.23187   0.00000  Uiso   1.00
H41    H     0.33015   0.12576   0.24205   0.00000  Uiso   1.00
H42    H     0.00289   0.17651   0.25542   0.00000  Uiso   1.00
C43    C     0.49997   0.08735   0.16665   0.00000  Uiso   1.00
C44    C     0.50003   0.24598   0.16669   0.00000  Uiso   1.00
C45    C     0.40146   0.16679   0.15472   0.00000  Uiso   1.00
C46    C     0.59854   0.16655   0.17861   0.00000  Uiso   1.00
C47    C     0.34658   0.16940   0.14810   0.00000  Uiso   1.00
C48    C     0.65342   0.16394   0.18523   0.00000  Uiso   1.00
C49    C     0.50025   0.02127   0.12410   0.00000  Uiso   1.00
C50    C     0.49975   0.31207   0.20923   0.00000  Uiso   1.00
C51    C     0.50030   0.31204   0.12412   0.00000  Uiso   1.00
C52    C     0.49970   0.02130   0.20921   0.00000  Uiso   1.00
C53    C     0.50004   0.29060   0.16668   0.00000  Uiso   1.00
C54    C     0.49996   0.04274   0.16665   0.00000  Uiso   1.00
C55    C     0.46768   0.14157   0.02071   0.00000  Uiso   1.00
C56    C     0.53232   0.19176   0.31262   0.00000  Uiso   1.00
C57    C     0.46772   0.14156   0.30442   0.00000  Uiso   1.00
C58    C     0.53228   0.19177   0.02891   0.00000  Uiso   1.00
Cu59   Cu    0.50000   0.16667   0.21355   0.00000  Uiso   1.00
Cu60   Cu    0.50000   0.16666   0.11978   0.00000  Uiso   1.00
H61    H     0.50045   0.03727   0.09083   0.00000  Uiso   1.00
H62    H     0.49955   0.29607   0.24250   0.00000  Uiso   1.00
H63    H     0.50055   0.29601   0.09086   0.00000  Uiso   1.00
H64    H     0.49945   0.03732   0.24247   0.00000  Uiso   1.00
H65    H     0.44183   0.12145   0.03615   0.00000  Uiso   1.00
H66    H     0.55817   0.21189   0.29718   0.00000  Uiso   1.00
H67    H     0.44197   0.12137   0.28244   0.00000  Uiso   1.00
H68    H     0.55803   0.21196   0.05090   0.00000  Uiso   1.00
N69    N     0.50001   0.16668   0.28403   0.00000  Uiso   1.00
N70    N     0.49999   0.16666   0.04931   0.00000  Uiso   1.00
O71    O     0.50000   0.10655   0.20625   0.00000  Uiso   1.00
O72    O     0.50000   0.22678   0.12709   0.00000  Uiso   1.00
O73    O     0.50000   0.10654   0.12706   0.00000  Uiso   1.00
O74    O     0.50000   0.22679   0.20628   0.00000  Uiso   1.00
O75    O     0.42495   0.16667   0.19712   0.00000  Uiso   1.00
O76    O     0.57505   0.16666   0.13621   0.00000  Uiso   1.00
O77    O     0.42494   0.16666   0.11793   0.00000  Uiso   1.00
O78    O     0.57506   0.16667   0.21540   0.00000  Uiso   1.00
N79    N     0.65513   0.17958   0.10146   0.00000  Uiso   1.00
H80    H     0.33652   0.20758   0.09128   0.00000  Uiso   1.00
H81    H     0.66378   0.15682   0.07791   0.00000  Uiso   1.00
N82    N     0.34487   0.15376   0.23187   0.00000  Uiso   1.00
H83    H     0.66348   0.12576   0.24205   0.00000  Uiso   1.00
H84    H     0.33622   0.17651   0.25542   0.00000  Uiso   1.00
C85    C     0.83330   0.08735   0.16665   0.00000  Uiso   1.00
C86    C     0.83337   0.24598   0.16669   0.00000  Uiso   1.00
C87    C     0.73480   0.16679   0.15472   0.00000  Uiso   1.00
C88    C     0.93187   0.16655   0.17861   0.00000  Uiso   1.00
C89    C     0.67991   0.16940   0.14810   0.00000  Uiso   1.00
C90    C     0.98675   0.16394   0.18523   0.00000  Uiso   1.00
C91    C     0.83358   0.02127   0.12410   0.00000  Uiso   1.00
C92    C     0.83308   0.31207   0.20923   0.00000  Uiso   1.00
C93    C     0.83363   0.31204   0.12412   0.00000  Uiso   1.00
C94    C     0.83303   0.02130   0.20921   0.00000  Uiso   1.00
C95    C     0.83337   0.29060   0.16668   0.00000  Uiso   1.00
C96    C     0.83329   0.04274   0.16665   0.00000  Uiso   1.00
C97    C     0.80101   0.14157   0.02071   0.00000  Uiso   1.00
C98    C     0.86566   0.19176   0.31262   0.00000  Uiso   1.00
C99    C     0.80105   0.14156   0.30442   0.00000  Uiso   1.00
C100   C     0.86562   0.19177   0.02891   0.00000  Uiso   1.00
Cu101  Cu    0.83333   0.16667   0.21355   0.00000  Uiso   1.00
Cu102  Cu    0.83333   0.16666   0.11978   0.00000  Uiso   1.00
H103   H     0.83378   0.03727   0.09083   0.00000  Uiso   1.00
H104   H     0.83288   0.29607   0.24250   0.00000  Uiso   1.00
H105   H     0.83389   0.29601   0.09086   0.00000  Uiso   1.00
H106   H     0.83278   0.03732   0.24247   0.00000  Uiso   1.00
H107   H     0.77517   0.12145   0.03615   0.00000  Uiso   1.00
H108   H     0.89150   0.21189   0.29718   0.00000  Uiso   1.00
H109   H     0.77530   0.12137   0.28244   0.00000  Uiso   1.00
H110   H     0.89137   0.21196   0.05090   0.00000  Uiso   1.00
N111   N     0.83335   0.16668   0.28403   0.00000  Uiso   1.00
N112   N     0.83332   0.16666   0.04931   0.00000  Uiso   1.00
O113   O     0.83333   0.10655   0.20625   0.00000  Uiso   1.00
O114   O     0.83334   0.22678   0.12709   0.00000  Uiso   1.00
O115   O     0.83333   0.10654   0.12706   0.00000  Uiso   1.00
O116   O     0.83334   0.22679   0.20628   0.00000  Uiso   1.00
O117   O     0.75828   0.16667   0.19712   0.00000  Uiso   1.00
O118   O     0.90839   0.16666   0.13621   0.00000  Uiso   1.00
O119   O     0.75828   0.16666   0.11793   0.00000  Uiso   1.00
O120   O     0.90839   0.16667   0.21540   0.00000  Uiso   1.00
N121   N     0.98847   0.17958   0.10146   0.00000  Uiso   1.00
H122   H     0.66985   0.20758   0.09128   0.00000  Uiso   1.00
H123   H     0.99711   0.15682   0.07791   0.00000  Uiso   1.00
N124   N     0.67820   0.15376   0.23187   0.00000  Uiso   1.00
H125   H     0.99682   0.12576   0.24205   0.00000  Uiso   1.00
H126   H     0.66956   0.17651   0.25542   0.00000  Uiso   1.00
C127   C     0.16663   0.42068   0.16665   0.00000  Uiso   1.00
C128   C     0.16670   0.57932   0.16669   0.00000  Uiso   1.00
C129   C     0.06813   0.50012   0.15472   0.00000  Uiso   1.00
C130   C     0.26520   0.49988   0.17861   0.00000  Uiso   1.00
C131   C     0.01325   0.50273   0.14810   0.00000  Uiso   1.00
C132   C     0.32009   0.49727   0.18523   0.00000  Uiso   1.00
C133   C     0.16692   0.35460   0.12410   0.00000  Uiso   1.00
C134   C     0.16642   0.64540   0.20923   0.00000  Uiso   1.00
C135   C     0.16697   0.64537   0.12412   0.00000  Uiso   1.00
C136   C     0.16637   0.35463   0.20921   0.00000  Uiso   1.00
C137   C     0.16671   0.62393   0.16668   0.00000  Uiso   1.00
C138   C     0.16663   0.37607   0.16665   0.00000  Uiso   1.00
C139   C     0.13434   0.47491   0.02071   0.00000  Uiso   1.00
C140   C     0.19899   0.52509   0.31262   0.00000  Uiso   1.00
C141   C     0.13438   0.47490   0.30442   0.00000  Uiso   1.00
C142   C     0.19895   0.52511   0.02891   0.00000  Uiso   1.00
Cu143  Cu    0.16667   0.50001   0.21355   0.00000  Uiso   1.00
Cu144  Cu    0.16667   0.49999   0.11978   0.00000  Uiso   1.00
H145   H     0.16712   0.37060   0.09083   0.00000  Uiso   1.00
H146   H     0.16622   0.62940   0.24250   0.00000  Uiso   1.00
H147   H     0.16722   0.62935   0.09086   0.00000  Uiso   1.00
H148   H     0.16611   0.37065   0.24247   0.00000  Uiso   1.00
H149   H     0.10850   0.45478   0.03615   0.00000  Uiso   1.00
H150   H     0.22483   0.54522   0.29718   0.00000  Uiso   1.00
H151   H     0.10863   0.45471   0.28244   0.00000  Uiso   1.00
H152   H     0.22470   0.54529   0.05090   0.00000  Uiso   1.00
N153   N     0.16668   0.50001   0.28403   0.00000  Uiso   1.00
N154   N     0.16665   0.49999   0.04931   0.00000  Uiso   1.00
O155   O     0.16666   0.43989   0.20625   0.00000  Uiso   1.00
O156   O     0.16667   0.56011   0.12709   0.00000  Uiso   1.00
O157   O     0.16666   0.43988   0.12706   0.00000  Uiso   1.00
O158   O     0.16667   0.56012   0.20628   0.00000  Uiso   1.00
O159   O     0.09161   0.50000   0.19712   0.00000  Uiso   1.00
O160   O     0.24172   0.50000   0.13621   0.00000  Uiso   1.00
O161   O     0.09161   0.49999   0.11793   0.00000  Uiso   1.00
O162   O     0.24172   0.50001   0.21540   0.00000  Uiso   1.00
N163   N     0.32180   0.51291   0.10146   0.00000  Uiso   1.00
H164   H     0.00319   0.54091   0.09128   0.00000  Uiso   1.00
H165   H     0.33044   0.49016   0.07791   0.00000  Uiso   1.00
N166   N     0.01153   0.48709   0.23187   0.00000  Uiso   1.00
H167   H     0.33015   0.45909   0.24205   0.00000  Uiso   1.00
H168   H     0.00289   0.50984   0.25542   0.00000  Uiso   1.00
C169   C     0.49997   0.42068   0.16665   0.00000  Uiso   1.00
C170   C     0.50003   0.57932   0.16669   0.00000  Uiso   1.00
C171   C     0.40146   0.50012   0.15472   0.00000  Uiso   1.00
C172   C     0.59854   0.49988   0.17861   0.00000  Uiso   1.00
C173   C     0.34658   0.50273   0.14810   0.00000  Uiso   1.00
C174   C     0.65342   0.49727   0.18523   0.00000  Uiso   1.00
C175   C     0.50025   0.35460   0.12410   0.00000  Uiso   1.00
C176   C     0.49975   0.64540   0.20923   0.00000  Uiso   1.00
C177   C     0.50030   0.64537   0.12412   0.00000  Uiso   1.00
C178   C     0.49970   0.35463   0.20921   0.00000  Uiso   1.00
C179   C     0.50004   0.62393   0.16668   0.00000  Uiso   1.00
C180   C     0.49996   0.37607   0.16665   0.00000  Uiso   1.00
C181   C     0.46768   0.47491   0.02071   0.00000  Uiso   1.00
C182   C     0.53232   0.52509   0.31262   0.00000  Uiso   1.00
C183   C     0.46772   0.47490   0.30442   0.00000  Uiso   1.00
C184   C     0.53228   0.52511   0.02891   0.00000  Uiso   1.00
Cu185  Cu    0.50000   0.50001   0.21355   0.00000  Uiso   1.00
Cu186  Cu    0.50000   0.49999   0.11978   0.00000  Uiso   1.00
H187   H     0.50045   0.37060   0.09083   0.00000  Uiso   1.00
H188   H     0.49955   0.62940   0.24250   0.00000  Uiso   1.00
H189   H     0.50055   0.62935   0.09086   0.00000  Uiso   1.00
H190   H     0.49945   0.37065   0.24247   0.00000  Uiso   1.00
H191   H     0.44183   0.45478   0.03615   0.00000  Uiso   1.00
H192   H     0.55817   0.54522   0.29718   0.00000  Uiso   1.00
H193   H     0.44197   0.45471   0.28244   0.00000  Uiso   1.00
H194   H     0.55803   0.54529   0.05090   0.00000  Uiso   1.00
N195   N     0.50001   0.50001   0.28403   0.00000  Uiso   1.00
N196   N     0.49999   0.49999   0.04931   0.00000  Uiso   1.00
O197   O     0.50000   0.43989   0.20625   0.00000  Uiso   1.00
O198   O     0.50000   0.56011   0.12709   0.00000  Uiso   1.00
O199   O     0.50000   0.43988   0.12706   0.00000  Uiso   1.00
O200   O     0.50000   0.56012   0.20628   0.00000  Uiso   1.00
O201   O     0.42495   0.50000   0.19712   0.00000  Uiso   1.00
O202   O     0.57505   0.50000   0.13621   0.00000  Uiso   1.00
O203   O     0.42494   0.49999   0.11793   0.00000  Uiso   1.00
O204   O     0.57506   0.50001   0.21540   0.00000  Uiso   1.00
N205   N     0.65513   0.51291   0.10146   0.00000  Uiso   1.00
H206   H     0.33652   0.54091   0.09128   0.00000  Uiso   1.00
H207   H     0.66378   0.49016   0.07791   0.00000  Uiso   1.00
N208   N     0.34487   0.48709   0.23187   0.00000  Uiso   1.00
H209   H     0.66348   0.45909   0.24205   0.00000  Uiso   1.00
H210   H     0.33622   0.50984   0.25542   0.00000  Uiso   1.00
C211   C     0.83330   0.42068   0.16665   0.00000  Uiso   1.00
C212   C     0.83337   0.57932   0.16669   0.00000  Uiso   1.00
C213   C     0.73480   0.50012   0.15472   0.00000  Uiso   1.00
C214   C     0.93187   0.49988   0.17861   0.00000  Uiso   1.00
C215   C     0.67991   0.50273   0.14810   0.00000  Uiso   1.00
C216   C     0.98675   0.49727   0.18523   0.00000  Uiso   1.00
C217   C     0.83358   0.35460   0.12410   0.00000  Uiso   1.00
C218   C     0.83308   0.64540   0.20923   0.00000  Uiso   1.00
C219   C     0.83363   0.64537   0.12412   0.00000  Uiso   1.00
C220   C     0.83303   0.35463   0.20921   0.00000  Uiso   1.00
C221   C     0.83337   0.62393   0.16668   0.00000  Uiso   1.00
C222   C     0.83329   0.37607   0.16665   0.00000  Uiso   1.00
C223   C     0.80101   0.47491   0.02071   0.00000  Uiso   1.00
C224   C     0.86566   0.52509   0.31262   0.00000  Uiso   1.00
C225   C     0.80105   0.47490   0.30442   0.00000  Uiso   1.00
C226   C     0.86562   0.52511   0.02891   0.00000  Uiso   1.00
Cu227  Cu    0.83333   0.50001   0.21355   0.00000  Uiso   1.00
Cu228  Cu    0.83333   0.49999   0.11978   0.00000  Uiso   1.00
H229   H     0.83378   0.37060   0.09083   0.00000  Uiso   1.00
H230   H     0.83288   0.62940   0.24250   0.00000  Uiso   1.00
H231   H     0.83389   0.62935   0.09086   0.00000  Uiso   1.00
H232   H     0.83278   0.37065   0.24247   0.00000  Uiso   1.00
H233   H     0.77517   0.45478   0.03615   0.00000  Uiso   1.00
H234   H     0.89150   0.54522   0.29718   0.00000  Uiso   1.00
H235   H     0.77530   0.45471   0.28244   0.00000  Uiso   1.00
H236   H     0.89137   0.54529   0.05090   0.00000  Uiso   1.00
N237   N     0.83335   0.50001   0.28403   0.00000  Uiso   1.00
N238   N     0.83332   0.49999   0.04931   0.00000  Uiso   1.00
O239   O     0.83333   0.43989   0.20625   0.00000  Uiso   1.00
O240   O     0.83334   0.56011   0.12709   0.00000  Uiso   1.00
O241   O     0.83333   0.43988   0.12706   0.00000  Uiso   1.00
O242   O     0.83334   0.56012   0.20628   0.00000  Uiso   1.00
O243   O     0.75828   0.50000   0.19712   0.00000  Uiso   1.00
O244   O     0.90839   0.50000   0.13621   0.00000  Uiso   1.00
O245   O     0.75828   0.49999   0.11793   0.00000  Uiso   1.00
O246   O     0.90839   0.50001   0.21540   0.00000  Uiso   1.00
N247   N     0.98847   0.51291   0.10146   0.00000  Uiso   1.00
H248   H     0.66985   0.54091   0.09128   0.00000  Uiso   1.00
H249   H     0.99711   0.49016   0.07791   0.00000  Uiso   1.00
N250   N     0.67820   0.48709   0.23187   0.00000  Uiso   1.00
H251   H     0.99682   0.45909   0.24205   0.00000  Uiso   1.00
H252   H     0.66956   0.50984   0.25542   0.00000  Uiso   1.00
C253   C     0.16663   0.75402   0.16665   0.00000  Uiso   1.00
C254   C     0.16670   0.91265   0.16669   0.00000  Uiso   1.00
C255   C     0.06813   0.83345   0.15472   0.00000  Uiso   1.00
C256   C     0.26520   0.83322   0.17861   0.00000  Uiso   1.00
C257   C     0.01325   0.83606   0.14810   0.00000  Uiso   1.00
C258   C     0.32009   0.83060   0.18523   0.00000  Uiso   1.00
C259   C     0.16692   0.68793   0.12410   0.00000  Uiso   1.00
C260   C     0.16642   0.97873   0.20923   0.00000  Uiso   1.00
C261   C     0.16697   0.97870   0.12412   0.00000  Uiso   1.00
C262   C     0.16637   0.68796   0.20921   0.00000  Uiso   1.00
C263   C     0.16671   0.95726   0.16668   0.00000  Uiso   1.00
C264   C     0.16663   0.70940   0.16665   0.00000  Uiso   1.00
C265   C     0.13434   0.80824   0.02071   0.00000  Uiso   1.00
C266   C     0.19899   0.85843   0.31262   0.00000  Uiso   1.00
C267   C     0.13438   0.80823   0.30442   0.00000  Uiso   1.00
C268   C     0.19895   0.85844   0.02891   0.00000  Uiso   1.00
Cu269  Cu    0.16667   0.83334   0.21355   0.00000  Uiso   1.00
Cu270  Cu    0.16667   0.83333   0.11978   0.00000  Uiso   1.00
H271   H     0.16712   0.70393   0.09083   0.00000  Uiso   1.00
H272   H     0.16622   0.96273   0.24250   0.00000  Uiso   1.00
H273   H     0.16722   0.96268   0.09086   0.00000  Uiso   1.00
H274   H     0.16611   0.70399   0.24247   0.00000  Uiso   1.00
H275   H     0.10850   0.78811   0.03615   0.00000  Uiso   1.00
H276   H     0.22483   0.87855   0.29718   0.00000  Uiso   1.00
H277   H     0.10863   0.78804   0.28244   0.00000  Uiso   1.00
H278   H     0.22470   0.87863   0.05090   0.00000  Uiso   1.00
N279   N     0.16668   0.83334   0.28403   0.00000  Uiso   1.00
N280   N     0.16665   0.83332   0.04931   0.00000  Uiso   1.00
O281   O     0.16666   0.77322   0.20625   0.00000  Uiso   1.00
O282   O     0.16667   0.89345   0.12709   0.00000  Uiso   1.00
O283   O     0.16666   0.77321   0.12706   0.00000  Uiso   1.00
O284   O     0.16667   0.89346   0.20628   0.00000  Uiso   1.00
O285   O     0.09161   0.83334   0.19712   0.00000  Uiso   1.00
O286   O     0.24172   0.83333   0.13621   0.00000  Uiso   1.00
O287   O     0.09161   0.83333   0.11793   0.00000  Uiso   1.00
O288   O     0.24172   0.83334   0.21540   0.00000  Uiso   1.00
N289   N     0.32180   0.84624   0.10146   0.00000  Uiso   1.00
H290   H     0.00319   0.87424   0.09128   0.00000  Uiso   1.00
H291   H     0.33044   0.82349   0.07791   0.00000  Uiso   1.00
N292   N     0.01153   0.82043   0.23187   0.00000  Uiso   1.00
H293   H     0.33015   0.79242   0.24205   0.00000  Uiso   1.00
H294   H     0.00289   0.84318   0.25542   0.00000  Uiso   1.00
C295   C     0.49997   0.75402   0.16665   0.00000  Uiso   1.00
C296   C     0.50003   0.91265   0.16669   0.00000  Uiso   1.00
C297   C     0.40146   0.83345   0.15472   0.00000  Uiso   1.00
C298   C     0.59854   0.83322   0.17861   0.00000  Uiso   1.00
C299   C     0.34658   0.83606   0.14810   0.00000  Uiso   1.00
C300   C     0.65342   0.83060   0.18523   0.00000  Uiso   1.00
C301   C     0.50025   0.68793   0.12410   0.00000  Uiso   1.00
C302   C     0.49975   0.97873   0.20923   0.00000  Uiso   1.00
C303   C     0.50030   0.97870   0.12412   0.00000  Uiso   1.00
C304   C     0.49970   0.68796   0.20921   0.00000  Uiso   1.00
C305   C     0.50004   0.95726   0.16668   0.00000  Uiso   1.00
C306   C     0.49996   0.70940   0.16665   0.00000  Uiso   1.00
C307   C     0.46768   0.80824   0.02071   0.00000  Uiso   1.00
C308   C     0.53232   0.85843   0.31262   0.00000  Uiso   1.00
C309   C     0.46772   0.80823   0.30442   0.00000  Uiso   1.00
C310   C     0.53228   0.85844   0.02891   0.00000  Uiso   1.00
Cu311  Cu    0.50000   0.83334   0.21355   0.00000  Uiso   1.00
Cu312  Cu    0.50000   0.83333   0.11978   0.00000  Uiso   1.00
H313   H     0.50045   0.70393   0.09083   0.00000  Uiso   1.00
H314   H     0.49955   0.96273   0.24250   0.00000  Uiso   1.00
H315   H     0.50055   0.96268   0.09086   0.00000  Uiso   1.00
H316   H     0.49945   0.70399   0.24247   0.00000  Uiso   1.00
H317   H     0.44183   0.78811   0.03615   0.00000  Uiso   1.00
H318   H     0.55817   0.87855   0.29718   0.00000  Uiso   1.00
H319   H     0.44197   0.78804   0.28244   0.00000  Uiso   1.00
H320   H     0.55803   0.87863   0.05090   0.00000  Uiso   1.00
N321   N     0.50001   0.83334   0.28403   0.00000  Uiso   1.00
N322   N     0.49999   0.83332   0.04931   0.00000  Uiso   1.00
O323   O     0.50000   0.77322   0.20625   0.00000  Uiso   1.00
O324   O     0.50000   0.89345   0.12709   0.00000  Uiso   1.00
O325   O     0.50000   0.77321   0.12706   0.00000  Uiso   1.00
O326   O     0.50000   0.89346   0.20628   0.00000  Uiso   1.00
O327   O     0.42495   0.83334   0.19712   0.00000  Uiso   1.00
O328   O     0.57505   0.83333   0.13621   0.00000  Uiso   1.00
O329   O     0.42494   0.83333   0.11793   0.00000  Uiso   1.00
O330   O     0.57506   0.83334   0.21540   0.00000  Uiso   1.00
N331   N     0.65513   0.84624   0.10146   0.00000  Uiso   1.00
H332   H     0.33652   0.87424   0.09128   0.00000  Uiso   1.00
H333   H     0.66378   0.82349   0.07791   0.00000  Uiso   1.00
N334   N     0.34487   0.82043   0.23187   0.00000  Uiso   1.00
H335   H     0.66348   0.79242   0.24205   0.00000  Uiso   1.00
H336   H     0.33622   0.84318   0.25542   0.00000  Uiso   1.00
C337   C     0.83330   0.75402   0.16665   0.00000  Uiso   1.00
C338   C     0.83337   0.91265   0.16669   0.00000  Uiso   1.00
C339   C     0.73480   0.83345   0.15472   0.00000  Uiso   1.00
C340   C     0.93187   0.83322   0.17861   0.00000  Uiso   1.00
C341   C     0.67991   0.83606   0.14810   0.00000  Uiso   1.00
C342   C     0.98675   0.83060   0.18523   0.00000  Uiso   1.00
C343   C     0.83358   0.68793   0.12410   0.00000  Uiso   1.00
C344   C     0.83308   0.97873   0.20923   0.00000  Uiso   1.00
C345   C     0.83363   0.97870   0.12412   0.00000  Uiso   1.00
C346   C     0.83303   0.68796   0.20921   0.00000  Uiso   1.00
C347   C     0.83337   0.95726   0.16668   0.00000  Uiso   1.00
C348   C     0.83329   0.70940   0.16665   0.00000  Uiso   1.00
C349   C     0.80101   0.80824   0.02071   0.00000  Uiso   1.00
C350   C     0.86566   0.85843   0.31262   0.00000  Uiso   1.00
C351   C     0.80105   0.80823   0.30442   0.00000  Uiso   1.00
C352   C     0.86562   0.85844   0.02891   0.00000  Uiso   1.00
Cu353  Cu    0.83333   0.83334   0.21355   0.00000  Uiso   1.00
Cu354  Cu    0.83333   0.83333   0.11978   0.00000  Uiso   1.00
H355   H     0.83378   0.70393   0.09083   0.00000  Uiso   1.00
H356   H     0.83288   0.96273   0.24250   0.00000  Uiso   1.00
H357   H     0.83389   0.96268   0.09086   0.00000  Uiso   1.00
H358   H     0.83278   0.70399   0.24247   0.00000  Uiso   1.00
H359   H     0.77517   0.78811   0.03615   0.00000  Uiso   1.00
H360   H     0.89150   0.87855   0.29718   0.00000  Uiso   1.00
H361   H     0.77530   0.78804   0.28244   0.00000  Uiso   1.00
H362   H     0.89137   0.87863   0.05090   0.00000  Uiso   1.00
N363   N     0.83335   0.83334   0.28403   0.00000  Uiso   1.00
N364   N     0.83332   0.83332   0.04931   0.00000  Uiso   1.00
O365   O     0.83333   0.77322   0.20625   0.00000  Uiso   1.00
O366   O     0.83334   0.89345   0.12709   0.00000  Uiso   1.00
O367   O     0.83333   0.77321   0.12706   0.00000  Uiso   1.00
O368   O     0.83334   0.89346   0.20628   0.00000  Uiso   1.00
O369   O     0.75828   0.83334   0.19712   0.00000  Uiso   1.00
O370   O     0.90839   0.83333   0.13621   0.00000  Uiso   1.00
O371   O     0.75828   0.83333   0.11793   0.00000  Uiso   1.00
O372   O     0.90839   0.83334   0.21540   0.00000  Uiso   1.00
N373   N     0.98847   0.84624   0.10146   0.00000  Uiso   1.00
H374   H     0.66985   0.87424   0.09128   0.00000  Uiso   1.00
H375   H     0.99711   0.82349   0.07791   0.00000  Uiso   1.00
N376   N     0.67820   0.82043   0.23187   0.00000  Uiso   1.00
H377   H     0.99682   0.79242   0.24205   0.00000  Uiso   1.00
H378   H     0.66956   0.84318   0.25542   0.00000  Uiso   1.00
C379   C     0.16663   0.08735   0.49998   0.00000  Uiso   1.00
C380   C     0.16670   0.24598   0.50002   0.00000  Uiso   1.00
C381   C     0.06813   0.16679   0.48805   0.00000  Uiso   1.00
C382   C     0.26520   0.16655   0.51195   0.00000  Uiso   1.00
C383   C     0.01325   0.16940   0.48144   0.00000  Uiso   1.00
C384   C     0.32009   0.16394   0.51856   0.00000  Uiso   1.00
C385   C     0.16692   0.02127   0.45744   0.00000  Uiso   1.00
C386   C     0.16642   0.31207   0.54256   0.00000  Uiso   1.00
C387   C     0.16697   0.31204   0.45745   0.00000  Uiso   1.00
C388   C     0.16637   0.02130   0.54255   0.00000  Uiso   1.00
C389   C     0.16671   0.29060   0.50002   0.00000  Uiso   1.00
C390   C     0.16663   0.04274   0.49999   0.00000  Uiso   1.00
C391   C     0.13434   0.14157   0.35404   0.00000  Uiso   1.00
C392   C     0.19899   0.19176   0.64596   0.00000  Uiso   1.00
C393   C     0.13438   0.14156   0.63776   0.00000  Uiso   1.00
C394   C     0.19895   0.19177   0.36224   0.00000  Uiso   1.00
Cu395  Cu    0.16667   0.16667   0.54689   0.00000  Uiso   1.00
Cu396  Cu    0.16667   0.16666   0.45311   0.00000  Uiso   1.00
H397   H     0.16712   0.03727   0.42416   0.00000  Uiso   1.00
H398   H     0.16622   0.29607   0.57584   0.00000  Uiso   1.00
H399   H     0.16722   0.29601   0.42419   0.00000  Uiso   1.00
H400   H     0.16611   0.03732   0.57581   0.00000  Uiso   1.00
H401   H     0.10850   0.12145   0.36948   0.00000  Uiso   1.00
H402   H     0.22483   0.21189   0.63052   0.00000  Uiso   1.00
H403   H     0.10863   0.12137   0.61577   0.00000  Uiso   1.00
H404   H     0.22470   0.21196   0.38423   0.00000  Uiso   1.00
N405   N     0.16668   0.16668   0.61736   0.00000  Uiso   1.00
N406   N     0.16665   0.16666   0.38264   0.00000  Uiso   1.00
O407   O     0.16666   0.10655   0.53958   0.00000  Uiso   1.00
O408   O     0.16667   0.22678   0.46042   0.00000  Uiso   1.00
O409   O     0.16666   0.10654   0.46039   0.00000  Uiso   1.00
O410   O     0.16667   0.22679   0.53961   0.00000  Uiso   1.00
O411   O     0.09161   0.16667   0.53046   0.00000  Uiso   1.00
O412   O     0.24172   0.16666   0.46954   0.00000  Uiso   1.00
O413   O     0.09161   0.16666   0.45127   0.00000  Uiso   1.00
O414   O     0.24172   0.16667   0.54873   0.00000  Uiso   1.00
N415   N     0.32180   0.17958   0.43480   0.00000  Uiso   1.00
H416   H     0.00319   0.20758   0.42462   0.00000  Uiso   1.00
H417   H     0.33044   0.15682   0.41125   0.00000  Uiso   1.00
N418   N     0.01153   0.15376   0.56520   0.00000  Uiso   1.00
H419   H     0.33015   0.12576   0.57539   0.00000  Uiso   1.00
H420   H     0.00289   0.17651   0.58875   0.00000  Uiso   1.00
C421   C     0.49997   0.08735   0.49998   0.00000  Uiso   1.00
C422   C     0.50003   0.24598   0.50002   0.00000  Uiso   1.00
C423   C     0.40146   0.16679   0.48805   0.00000  Uiso   1.00
C424   C     0.59854   0.16655   0.51195   0.00000  Uiso   1.00
C425   C     0.34658   0.16940   0.48144   0.00000  Uiso   1.00
C426   C     0.65342   0.16394   0.51856   0.00000  Uiso   1.00
C427   C     0.50025   0.02127   0.45744   0.00000  Uiso   1.00
C428   C     0.49975   0.31207   0.54256   0.00000  Uiso   1.00
C429   C     0.50030   0.31204   0.45745   0.00000  Uiso   1.00
C430   C     0.49970   0.02130   0.54255   0.00000  Uiso   1.00
C431   C     0.50004   0.29060   0.50002   0.00000  Uiso   1.00
C432   C     0.49996   0.04274   0.49999   0.00000  Uiso   1.00
C433   C     0.46768   0.14157   0.35404   0.00000  Uiso   1.00
C434   C     0.53232   0.19176   0.64596   0.00000  Uiso   1.00
C435   C     0.46772   0.14156   0.63776   0.00000  Uiso   1.00
C436   C     0.53228   0.19177   0.36224   0.00000  Uiso   1.00
Cu437  Cu    0.50000   0.16667   0.54689   0.00000  Uiso   1.00
Cu438  Cu    0.50000   0.16666   0.45311   0.00000  Uiso   1.00
H439   H     0.50045   0.03727   0.42416   0.00000  Uiso   1.00
H440   H     0.49955   0.29607   0.57584   0.00000  Uiso   1.00
H441   H     0.50055   0.29601   0.42419   0.00000  Uiso   1.00
H442   H     0.49945   0.03732   0.57581   0.00000  Uiso   1.00
H443   H     0.44183   0.12145   0.36948   0.00000  Uiso   1.00
H444   H     0.55817   0.21189   0.63052   0.00000  Uiso   1.00
H445   H     0.44197   0.12137   0.61577   0.00000  Uiso   1.00
H446   H     0.55803   0.21196   0.38423   0.00000  Uiso   1.00
N447   N     0.50001   0.16668   0.61736   0.00000  Uiso   1.00
N448   N     0.49999   0.16666   0.38264   0.00000  Uiso   1.00
O449   O     0.50000   0.10655   0.53958   0.00000  Uiso   1.00
O450   O     0.50000   0.22678   0.46042   0.00000  Uiso   1.00
O451   O     0.50000   0.10654   0.46039   0.00000  Uiso   1.00
O452   O     0.50000   0.22679   0.53961   0.00000  Uiso   1.00
O453   O     0.42495   0.16667   0.53046   0.00000  Uiso   1.00
O454   O     0.57505   0.16666   0.46954   0.00000  Uiso   1.00
O455   O     0.42494   0.16666   0.45127   0.00000  Uiso   1.00
O456   O     0.57506   0.16667   0.54873   0.00000  Uiso   1.00
N457   N     0.65513   0.17958   0.43480   0.00000  Uiso   1.00
H458   H     0.33652   0.20758   0.42462   0.00000  Uiso   1.00
H459   H     0.66378   0.15682   0.41125   0.00000  Uiso   1.00
N460   N     0.34487   0.15376   0.56520   0.00000  Uiso   1.00
H461   H     0.66348   0.12576   0.57539   0.00000  Uiso   1.00
H462   H     0.33622   0.17651   0.58875   0.00000  Uiso   1.00
C463   C     0.83330   0.08735   0.49998   0.00000  Uiso   1.00
C464   C     0.83337   0.24598   0.50002   0.00000  Uiso   1.00
C465   C     0.73480   0.16679   0.48805   0.00000  Uiso   1.00
C466   C     0.93187   0.16655   0.51195   0.00000  Uiso   1.00
C467   C     0.67991   0.16940   0.48144   0.00000  Uiso   1.00
C468   C     0.98675   0.16394   0.51856   0.00000  Uiso   1.00
C469   C     0.83358   0.02127   0.45744   0.00000  Uiso   1.00
C470   C     0.83308   0.31207   0.54256   0.00000  Uiso   1.00
C471   C     0.83363   0.31204   0.45745   0.00000  Uiso   1.00
C472   C     0.83303   0.02130   0.54255   0.00000  Uiso   1.00
C473   C     0.83337   0.29060   0.50002   0.00000  Uiso   1.00
C474   C     0.83329   0.04274   0.49999   0.00000  Uiso   1.00
C475   C     0.80101   0.14157   0.35404   0.00000  Uiso   1.00
C476   C     0.86566   0.19176   0.64596   0.00000  Uiso   1.00
C477   C     0.80105   0.14156   0.63776   0.00000  Uiso   1.00
C478   C     0.86562   0.19177   0.36224   0.00000  Uiso   1.00
Cu479  Cu    0.83333   0.16667   0.54689   0.00000  Uiso   1.00
Cu480  Cu    0.83333   0.16666   0.45311   0.00000  Uiso   1.00
H481   H     0.83378   0.03727   0.42416   0.00000  Uiso   1.00
H482   H     0.83288   0.29607   0.57584   0.00000  Uiso   1.00
H483   H     0.83389   0.29601   0.42419   0.00000  Uiso   1.00
H484   H     0.83278   0.03732   0.57581   0.00000  Uiso   1.00
H485   H     0.77517   0.12145   0.36948   0.00000  Uiso   1.00
H486   H     0.89150   0.21189   0.63052   0.00000  Uiso   1.00
H487   H     0.77530   0.12137   0.61577   0.00000  Uiso   1.00
H488   H     0.89137   0.21196   0.38423   0.00000  Uiso   1.00
N489   N     0.83335   0.16668   0.61736   0.00000  Uiso   1.00
N490   N     0.83332   0.16666   0.38264   0.00000  Uiso   1.00
O491   O     0.83333   0.10655   0.53958   0.00000  Uiso   1.00
O492   O     0.83334   0.22678   0.46042   0.00000  Uiso   1.00
O493   O     0.83333   0.10654   0.46039   0.00000  Uiso   1.00
O494   O     0.83334   0.22679   0.53961   0.00000  Uiso   1.00
O495   O     0.75828   0.16667   0.53046   0.00000  Uiso   1.00
O496   O     0.90839   0.16666   0.46954   0.00000  Uiso   1.00
O497   O     0.75828   0.16666   0.45127   0.00000  Uiso   1.00
O498   O     0.90839   0.16667   0.54873   0.00000  Uiso   1.00
N499   N     0.98847   0.17958   0.43480   0.00000  Uiso   1.00
H500   H     0.66985   0.20758   0.42462   0.00000  Uiso   1.00
H501   H     0.99711   0.15682   0.41125   0.00000  Uiso   1.00
N502   N     0.67820   0.15376   0.56520   0.00000  Uiso   1.00
H503   H     0.99682   0.12576   0.57539   0.00000  Uiso   1.00
H504   H     0.66956   0.17651   0.58875   0.00000  Uiso   1.00
C505   C     0.16663   0.42068   0.49998   0.00000  Uiso   1.00
C506   C     0.16670   0.57932   0.50002   0.00000  Uiso   1.00
C507   C     0.06813   0.50012   0.48805   0.00000  Uiso   1.00
C508   C     0.26520   0.49988   0.51195   0.00000  Uiso   1.00
C509   C     0.01325   0.50273   0.48144   0.00000  Uiso   1.00
C510   C     0.32009   0.49727   0.51856   0.00000  Uiso   1.00
C511   C     0.16692   0.35460   0.45744   0.00000  Uiso   1.00
C512   C     0.16642   0.64540   0.54256   0.00000  Uiso   1.00
C513   C     0.16697   0.64537   0.45745   0.00000  Uiso   1.00
C514   C     0.16637   0.35463   0.54255   0.00000  Uiso   1.00
C515   C     0.16671   0.62393   0.50002   0.00000  Uiso   1.00
C516   C     0.16663   0.37607   0.49999   0.00000  Uiso   1.00
C517   C     0.13434   0.47491   0.35404   0.00000  Uiso   1.00
C518   C     0.19899   0.52509   0.64596   0.00000  Uiso   1.00
C519   C     0.13438   0.47490   0.63776   0.00000  Uiso   1.00
C520   C     0.19895   0.52511   0.36224   0.00000  Uiso   1.00
Cu521  Cu    0.16667   0.50001   0.54689   0.00000  Uiso   1.00
Cu522  Cu    0.16667   0.49999   0.45311   0.00000  Uiso   1.00
H523   H     0.16712   0.37060   0.42416   0.00000  Uiso   1.00
H524   H     0.16622   0.62940   0.57584   0.00000  Uiso   1.00
H525   H     0.16722   0.62935   0.42419   0.00000  Uiso   1.00
H526   H     0.16611   0.37065   0.57581   0.00000  Uiso   1.00
H527   H     0.10850   0.45478   0.36948   0.00000  Uiso   1.00
H528   H     0.22483   0.54522   0.63052   0.00000  Uiso   1.00
H529   H     0.10863   0.45471   0.61577   0.00000  Uiso   1.00
H530   H     0.22470   0.54529   0.38423   0.00000  Uiso   1.00
N531   N     0.16668   0.50001   0.61736   0.00000  Uiso   1.00
N532   N     0.16665   0.49999   0.38264   0.00000  Uiso   1.00
O533   O     0.16666   0.43989   0.53958   0.00000  Uiso   1.00
O534   O     0.16667   0.56011   0.46042   0.00000  Uiso   1.00
O535   O     0.16666   0.43988   0.46039   0.00000  Uiso   1.00
O536   O     0.16667   0.56012   0.53961   0.00000  Uiso   1.00
O537   O     0.09161   0.50000   0.53046   0.00000  Uiso   1.00
O538   O     0.24172   0.50000   0.46954   0.00000  Uiso   1.00
O539   O     0.09161   0.49999   0.45127   0.00000  Uiso   1.00
O540   O     0.24172   0.50001   0.54873   0.00000  Uiso   1.00
N541   N     0.32180   0.51291   0.43480   0.00000  Uiso   1.00
H542   H     0.00319   0.54091   0.42462   0.00000  Uiso   1.00
H543   H     0.33044   0.49016   0.41125   0.00000  Uiso   1.00
N544   N     0.01153   0.48709   0.56520   0.00000  Uiso   1.00
H545   H     0.33015   0.45909   0.57539   0.00000  Uiso   1.00
H546   H     0.00289   0.50984   0.58875   0.00000  Uiso   1.00
C547   C     0.49997   0.42068   0.49998   0.00000  Uiso   1.00
C548   C     0.50003   0.57932   0.50002   0.00000  Uiso   1.00
C549   C     0.40146   0.50012   0.48805   0.00000  Uiso   1.00
C550   C     0.59854   0.49988   0.51195   0.00000  Uiso   1.00
C551   C     0.34658   0.50273   0.48144   0.00000  Uiso   1.00
C552   C     0.65342   0.49727   0.51856   0.00000  Uiso   1.00
C553   C     0.50025   0.35460   0.45744   0.00000  Uiso   1.00
C554   C     0.49975   0.64540   0.54256   0.00000  Uiso   1.00
C555   C     0.50030   0.64537   0.45745   0.00000  Uiso   1.00
C556   C     0.49970   0.35463   0.54255   0.00000  Uiso   1.00
C557   C     0.50004   0.62393   0.50002   0.00000  Uiso   1.00
C558   C     0.49996   0.37607   0.49999   0.00000  Uiso   1.00
C559   C     0.46768   0.47491   0.35404   0.00000  Uiso   1.00
C560   C     0.53232   0.52509   0.64596   0.00000  Uiso   1.00
C561   C     0.46772   0.47490   0.63776   0.00000  Uiso   1.00
C562   C     0.53228   0.52511   0.36224   0.00000  Uiso   1.00
Cu563  Cu    0.50000   0.50001   0.54689   0.00000  Uiso   1.00
Cu564  Cu    0.50000   0.49999   0.45311   0.00000  Uiso   1.00
H565   H     0.50045   0.37060   0.42416   0.00000  Uiso   1.00
H566   H     0.49955   0.62940   0.57584   0.00000  Uiso   1.00
H567   H     0.50055   0.62935   0.42419   0.00000  Uiso   1.00
H568   H     0.49945   0.37065   0.57581   0.00000  Uiso   1.00
H569   H     0.44183   0.45478   0.36948   0.00000  Uiso   1.00
H570   H     0.55817   0.54522   0.63052   0.00000  Uiso   1.00
H571   H     0.44197   0.45471   0.61577   0.00000  Uiso   1.00
H572   H     0.55803   0.54529   0.38423   0.00000  Uiso   1.00
N573   N     0.50001   0.50001   0.61736   0.00000  Uiso   1.00
N574   N     0.49999   0.49999   0.38264   0.00000  Uiso   1.00
O575   O     0.50000   0.43989   0.53958   0.00000  Uiso   1.00
O576   O     0.50000   0.56011   0.46042   0.00000  Uiso   1.00
O577   O     0.50000   0.43988   0.46039   0.00000  Uiso   1.00
O578   O     0.50000   0.56012   0.53961   0.00000  Uiso   1.00
O579   O     0.42495   0.50000   0.53046   0.00000  Uiso   1.00
O580   O     0.57505   0.50000   0.46954   0.00000  Uiso   1.00
O581   O     0.42494   0.49999   0.45127   0.00000  Uiso   1.00
O582   O     0.57506   0.50001   0.54873   0.00000  Uiso   1.00
N583   N     0.65513   0.51291   0.43480   0.00000  Uiso   1.00
H584   H     0.33652   0.54091   0.42462   0.00000  Uiso   1.00
H585   H     0.66378   0.49016   0.41125   0.00000  Uiso   1.00
N586   N     0.34487   0.48709   0.56520   0.00000  Uiso   1.00
H587   H     0.66348   0.45909   0.57539   0.00000  Uiso   1.00
H588   H     0.33622   0.50984   0.58875   0.00000  Uiso   1.00
C589   C     0.83330   0.42068   0.49998   0.00000  Uiso   1.00
C590   C     0.83337   0.57932   0.50002   0.00000  Uiso   1.00
C591   C     0.73480   0.50012   0.48805   0.00000  Uiso   1.00
C592   C     0.93187   0.49988   0.51195   0.00000  Uiso   1.00
C593   C     0.67991   0.50273   0.48144   0.00000  Uiso   1.00
C594   C     0.98675   0.49727   0.51856   0.00000  Uiso   1.00
C595   C     0.83358   0.35460   0.45744   0.00000  Uiso   1.00
C596   C     0.83308   0.64540   0.54256   0.00000  Uiso   1.00
C597   C     0.83363   0.64537   0.45745   0.00000  Uiso   1.00
C598   C     0.83303   0.35463   0.54255   0.00000  Uiso   1.00
C599   C     0.83337   0.62393   0.50002   0.00000  Uiso   1.00
C600   C     0.83329   0.37607   0.49999   0.00000  Uiso   1.00
C601   C     0.80101   0.47491   0.35404   0.00000  Uiso   1.00
C602   C     0.86566   0.52509   0.64596   0.00000  Uiso   1.00
C603   C     0.80105   0.47490   0.63776   0.00000  Uiso   1.00
C604   C     0.86562   0.52511   0.36224   0.00000  Uiso   1.00
Cu605  Cu    0.83333   0.50001   0.54689   0.00000  Uiso   1.00
Cu606  Cu    0.83333   0.49999   0.45311   0.00000  Uiso   1.00
H607   H     0.83378   0.37060   0.42416   0.00000  Uiso   1.00
H608   H     0.83288   0.62940   0.57584   0.00000  Uiso   1.00
H609   H     0.83389   0.62935   0.42419   0.00000  Uiso   1.00
H610   H     0.83278   0.37065   0.57581   0.00000  Uiso   1.00
H611   H     0.77517   0.45478   0.36948   0.00000  Uiso   1.00
H612   H     0.89150   0.54522   0.63052   0.00000  Uiso   1.00
H613   H     0.77530   0.45471   0.61577   0.00000  Uiso   1.00
H614   H     0.89137   0.54529   0.38423   0.00000  Uiso   1.00
N615   N     0.83335   0.50001   0.61736   0.00000  Uiso   1.00
N616   N     0.83332   0.49999   0.38264   0.00000  Uiso   1.00
O617   O     0.83333   0.43989   0.53958   0.00000  Uiso   1.00
O618   O     0.83334   0.56011   0.46042   0.00000  Uiso   1.00
O619   O     0.83333   0.43988   0.46039   0.00000  Uiso   1.00
O620   O     0.83334   0.56012   0.53961   0.00000  Uiso   1.00
O621   O     0.75828   0.50000   0.53046   0.00000  Uiso   1.00
O622   O     0.90839   0.50000   0.46954   0.00000  Uiso   1.00
O623   O     0.75828   0.49999   0.45127   0.00000  Uiso   1.00
O624   O     0.90839   0.50001   0.54873   0.00000  Uiso   1.00
N625   N     0.98847   0.51291   0.43480   0.00000  Uiso   1.00
H626   H     0.66985   0.54091   0.42462   0.00000  Uiso   1.00
H627   H     0.99711   0.49016   0.41125   0.00000  Uiso   1.00
N628   N     0.67820   0.48709   0.56520   0.00000  Uiso   1.00
H629   H     0.99682   0.45909   0.57539   0.00000  Uiso   1.00
H630   H     0.66956   0.50984   0.58875   0.00000  Uiso   1.00
C631   C     0.16663   0.75402   0.49998   0.00000  Uiso   1.00
C632   C     0.16670   0.91265   0.50002   0.00000  Uiso   1.00
C633   C     0.06813   0.83345   0.48805   0.00000  Uiso   1.00
C634   C     0.26520   0.83322   0.51195   0.00000  Uiso   1.00
C635   C     0.01325   0.83606   0.48144   0.00000  Uiso   1.00
C636   C     0.32009   0.83060   0.51856   0.00000  Uiso   1.00
C637   C     0.16692   0.68793   0.45744   0.00000  Uiso   1.00
C638   C     0.16642   0.97873   0.54256   0.00000  Uiso   1.00
C639   C     0.16697   0.97870   0.45745   0.00000  Uiso   1.00
C640   C     0.16637   0.68796   0.54255   0.00000  Uiso   1.00
C641   C     0.16671   0.95726   0.50002   0.00000  Uiso   1.00
C642   C     0.16663   0.70940   0.49999   0.00000  Uiso   1.00
C643   C     0.13434   0.80824   0.35404   0.00000  Uiso   1.00
C644   C     0.19899   0.85843   0.64596   0.00000  Uiso   1.00
C645   C     0.13438   0.80823   0.63776   0.00000  Uiso   1.00
C646   C     0.19895   0.85844   0.36224   0.00000  Uiso   1.00
Cu647  Cu    0.16667   0.83334   0.54689   0.00000  Uiso   1.00
Cu648  Cu    0.16667   0.83333   0.45311   0.00000  Uiso   1.00
H649   H     0.16712   0.70393   0.42416   0.00000  Uiso   1.00
H650   H     0.16622   0.96273   0.57584   0.00000  Uiso   1.00
H651   H     0.16722   0.96268   0.42419   0.00000  Uiso   1.00
H652   H     0.16611   0.70399   0.57581   0.00000  Uiso   1.00
H653   H     0.10850   0.78811   0.36948   0.00000  Uiso   1.00
H654   H     0.22483   0.87855   0.63052   0.00000  Uiso   1.00
H655   H     0.10863   0.78804   0.61577   0.00000  Uiso   1.00
H656   H     0.22470   0.87863   0.38423   0.00000  Uiso   1.00
N657   N     0.16668   0.83334   0.61736   0.00000  Uiso   1.00
N658   N     0.16665   0.83332   0.38264   0.00000  Uiso   1.00
O659   O     0.16666   0.77322   0.53958   0.00000  Uiso   1.00
O660   O     0.16667   0.89345   0.46042   0.00000  Uiso   1.00
O661   O     0.16666   0.77321   0.46039   0.00000  Uiso   1.00
O662   O     0.16667   0.89346   0.53961   0.00000  Uiso   1.00
O663   O     0.09161   0.83334   0.53046   0.00000  Uiso   1.00
O664   O     0.24172   0.83333   0.46954   0.00000  Uiso   1.00
O665   O     0.09161   0.83333   0.45127   0.00000  Uiso   1.00
O666   O     0.24172   0.83334   0.54873   0.00000  Uiso   1.00
N667   N     0.32180   0.84624   0.43480   0.00000  Uiso   1.00
H668   H     0.00319   0.87424   0.42462   0.00000  Uiso   1.00
H669   H     0.33044   0.82349   0.41125   0.00000  Uiso   1.00
N670   N     0.01153   0.82043   0.56520   0.00000  Uiso   1.00
H671   H     0.33015   0.79242   0.57539   0.00000  Uiso   1.00
H672   H     0.00289   0.84318   0.58875   0.00000  Uiso   1.00
C673   C     0.49997   0.75402   0.49998   0.00000  Uiso   1.00
C674   C     0.50003   0.91265   0.50002   0.00000  Uiso   1.00
C675   C     0.40146   0.83345   0.48805   0.00000  Uiso   1.00
C676   C     0.59854   0.83322   0.51195   0.00000  Uiso   1.00
C677   C     0.34658   0.83606   0.48144   0.00000  Uiso   1.00
C678   C     0.65342   0.83060   0.51856   0.00000  Uiso   1.00
C679   C     0.50025   0.68793   0.45744   0.00000  Uiso   1.00
C680   C     0.49975   0.97873   0.54256   0.00000  Uiso   1.00
C681   C     0.50030   0.97870   0.45745   0.00000  Uiso   1.00
C682   C     0.49970   0.68796   0.54255   0.00000  Uiso   1.00
C683   C     0.50004   0.95726   0.50002   0.00000  Uiso   1.00
C684   C     0.49996   0.70940   0.49999   0.00000  Uiso   1.00
C685   C     0.46768   0.80824   0.35404   0.00000  Uiso   1.00
C686   C     0.53232   0.85843   0.64596   0.00000  Uiso   1.00
C687   C     0.46772   0.80823   0.63776   0.00000  Uiso   1.00
C688   C     0.53228   0.85844   0.36224   0.00000  Uiso   1.00
Cu689  Cu    0.50000   0.83334   0.54689   0.00000  Uiso   1.00
Cu690  Cu    0.50000   0.83333   0.45311   0.00000  Uiso   1.00
H691   H     0.50045   0.70393   0.42416   0.00000  Uiso   1.00
H692   H     0.49955   0.96273   0.57584   0.00000  Uiso   1.00
H693   H     0.50055   0.96268   0.42419   0.00000  Uiso   1.00
H694   H     0.49945   0.70399   0.57581   0.00000  Uiso   1.00
H695   H     0.44183   0.78811   0.36948   0.00000  Uiso   1.00
H696   H     0.55817   0.87855   0.63052   0.00000  Uiso   1.00
H697   H     0.44197   0.78804   0.61577   0.00000  Uiso   1.00
H698   H     0.55803   0.87863   0.38423   0.00000  Uiso   1.00
N699   N     0.50001   0.83334   0.61736   0.00000  Uiso   1.00
N700   N     0.49999   0.83332   0.38264   0.00000  Uiso   1.00
O701   O     0.50000   0.77322   0.53958   0.00000  Uiso   1.00
O702   O     0.50000   0.89345   0.46042   0.00000  Uiso   1.00
O703   O     0.50000   0.77321   0.46039   0.00000  Uiso   1.00
O704   O     0.50000   0.89346   0.53961   0.00000  Uiso   1.00
O705   O     0.42495   0.83334   0.53046   0.00000  Uiso   1.00
O706   O     0.57505   0.83333   0.46954   0.00000  Uiso   1.00
O707   O     0.42494   0.83333   0.45127   0.00000  Uiso   1.00
O708   O     0.57506   0.83334   0.54873   0.00000  Uiso   1.00
N709   N     0.65513   0.84624   0.43480   0.00000  Uiso   1.00
H710   H     0.33652   0.87424   0.42462   0.00000  Uiso   1.00
H711   H     0.66378   0.82349   0.41125   0.00000  Uiso   1.00
N712   N     0.34487   0.82043   0.56520   0.00000  Uiso   1.00
H713   H     0.66348   0.79242   0.57539   0.00000  Uiso   1.00
H714   H     0.33622   0.84318   0.58875   0.00000  Uiso   1.00
C715   C     0.83330   0.75402   0.49998   0.00000  Uiso   1.00
C716   C     0.83337   0.91265   0.50002   0.00000  Uiso   1.00
C717   C     0.73480   0.83345   0.48805   0.00000  Uiso   1.00
C718   C     0.93187   0.83322   0.51195   0.00000  Uiso   1.00
C719   C     0.67991   0.83606   0.48144   0.00000  Uiso   1.00
C720   C     0.98675   0.83060   0.51856   0.00000  Uiso   1.00
C721   C     0.83358   0.68793   0.45744   0.00000  Uiso   1.00
C722   C     0.83308   0.97873   0.54256   0.00000  Uiso   1.00
C723   C     0.83363   0.97870   0.45745   0.00000  Uiso   1.00
C724   C     0.83303   0.68796   0.54255   0.00000  Uiso   1.00
C725   C     0.83337   0.95726   0.50002   0.00000  Uiso   1.00
C726   C     0.83329   0.70940   0.49999   0.00000  Uiso   1.00
C727   C     0.80101   0.80824   0.35404   0.00000  Uiso   1.00
C728   C     0.86566   0.85843   0.64596   0.00000  Uiso   1.00
C729   C     0.80105   0.80823   0.63776   0.00000  Uiso   1.00
C730   C     0.86562   0.85844   0.36224   0.00000  Uiso   1.00
Cu731  Cu    0.83333   0.83334   0.54689   0.00000  Uiso   1.00
Cu732  Cu    0.83333   0.83333   0.45311   0.00000  Uiso   1.00
H733   H     0.83378   0.70393   0.42416   0.00000  Uiso   1.00
H734   H     0.83288   0.96273   0.57584   0.00000  Uiso   1.00
H735   H     0.83389   0.96268   0.42419   0.00000  Uiso   1.00
H736   H     0.83278   0.70399   0.57581   0.00000  Uiso   1.00
H737   H     0.77517   0.78811   0.36948   0.00000  Uiso   1.00
H738   H     0.89150   0.87855   0.63052   0.00000  Uiso   1.00
H739   H     0.77530   0.78804   0.61577   0.00000  Uiso   1.00
H740   H     0.89137   0.87863   0.38423   0.00000  Uiso   1.00
N741   N     0.83335   0.83334   0.61736   0.00000  Uiso   1.00
N742   N     0.83332   0.83332   0.38264   0.00000  Uiso   1.00
O743   O     0.83333   0.77322   0.53958   0.00000  Uiso   1.00
O744   O     0.83334   0.89345   0.46042   0.00000  Uiso   1.00
O745   O     0.83333   0.77321   0.46039   0.00000  Uiso   1.00
O746   O     0.83334   0.89346   0.53961   0.00000  Uiso   1.00
O747   O     0.75828   0.83334   0.53046   0.00000  Uiso   1.00
O748   O     0.90839   0.83333   0.46954   0.00000  Uiso   1.00
O749   O     0.75828   0.83333   0.45127   0.00000  Uiso   1.00
O750   O     0.90839   0.83334   0.54873   0.00000  Uiso   1.00
N751   N     0.98847   0.84624   0.43480   0.00000  Uiso   1.00
H752   H     0.66985   0.87424   0.42462   0.00000  Uiso   1.00
H753   H     0.99711   0.82349   0.41125   0.00000  Uiso   1.00
N754   N     0.67820   0.82043   0.56520   0.00000  Uiso   1.00
H755   H     0.99682   0.79242   0.57539   0.00000  Uiso   1.00
H756   H     0.66956   0.84318   0.58875   0.00000  Uiso   1.00
C757   C     0.16663   0.08735   0.83331   0.00000  Uiso   1.00
C758   C     0.16670   0.24598   0.83335   0.00000  Uiso   1.00
C759   C     0.06813   0.16679   0.82139   0.00000  Uiso   1.00
C760   C     0.26520   0.16655   0.84528   0.00000  Uiso   1.00
C761   C     0.01325   0.16940   0.81477   0.00000  Uiso   1.00
C762   C     0.32009   0.16394   0.85190   0.00000  Uiso   1.00
C763   C     0.16692   0.02127   0.79077   0.00000  Uiso   1.00
C764   C     0.16642   0.31207   0.87590   0.00000  Uiso   1.00
C765   C     0.16697   0.31204   0.79079   0.00000  Uiso   1.00
C766   C     0.16637   0.02130   0.87588   0.00000  Uiso   1.00
C767   C     0.16671   0.29060   0.83335   0.00000  Uiso   1.00
C768   C     0.16663   0.04274   0.83332   0.00000  Uiso   1.00
C769   C     0.13434   0.14157   0.68738   0.00000  Uiso   1.00
C770   C     0.19899   0.19176   0.97929   0.00000  Uiso   1.00
C771   C     0.13438   0.14156   0.97109   0.00000  Uiso   1.00
C772   C     0.19895   0.19177   0.69558   0.00000  Uiso   1.00
Cu773  Cu    0.16667   0.16667   0.88022   0.00000  Uiso   1.00
Cu774  Cu    0.16667   0.16666   0.78645   0.00000  Uiso   1.00
H775   H     0.16712   0.03727   0.75750   0.00000  Uiso   1.00
H776   H     0.16622   0.29607   0.90917   0.00000  Uiso   1.00
H777   H     0.16722   0.29601   0.75753   0.00000  Uiso   1.00
H778   H     0.16611   0.03732   0.90914   0.00000  Uiso   1.00
H779   H     0.10850   0.12145   0.70282   0.00000  Uiso   1.00
H780   H     0.22483   0.21189   0.96385   0.00000  Uiso   1.00
H781   H     0.10863   0.12137   0.94910   0.00000  Uiso   1.00
H782   H     0.22470   0.21196   0.71756   0.00000  Uiso   1.00
N783   N     0.16668   0.16668   0.95069   0.00000  Uiso   1.00
N784   N     0.16665   0.16666   0.71597   0.00000  Uiso   1.00
O785   O     0.16666   0.10655   0.87291   0.00000  Uiso   1.00
O786   O     0.16667   0.22678   0.79375   0.00000  Uiso   1.00
O787   O     0.16666   0.10654   0.79372   0.00000  Uiso   1.00
O788   O     0.16667   0.22679   0.87294   0.00000  Uiso   1.00
O789   O     0.09161   0.16667   0.86379   0.00000  Uiso   1.00
O790   O     0.24172   0.16666   0.80288   0.00000  Uiso   1.00
O791   O     0.09161   0.16666   0.78460   0.00000  Uiso   1.00
O792   O     0.24172   0.16667   0.88207   0.00000  Uiso   1.00
N793   N     0.32180   0.17958   0.76813   0.00000  Uiso   1.00
H794   H     0.00319   0.20758   0.75795   0.00000  Uiso   1.00
H795   H     0.33044   0.15682   0.74458   0.00000  Uiso   1.00
N796   N     0.01153   0.15376   0.89854   0.00000  Uiso   1.00
H797   H     0.33015   0.12576   0.90872   0.00000  Uiso   1.00
H798   H     0.00289   0.17651   0.92209   0.00000  Uiso   1.00
C799   C     0.49997   0.08735   0.83331   0.00000  Uiso   1.00
C800   C     0.50003   0.24598   0.83335   0.00000  Uiso   1.00
C801   C     0.40146   0.16679   0.82139   0.00000  Uiso   1.00
C802   C     0.59854   0.16655   0.84528   0.00000  Uiso   1.00
C803   C     0.34658   0.16940   0.81477   0.00000  Uiso   1.00
C804   C     0.65342   0.16394   0.85190   0.00000  Uiso   1.00
C805   C     0.50025   0.02127   0.79077   0.00000  Uiso   1.00
C806   C     0.49975   0.31207   0.87590   0.00000  Uiso   1.00
C807   C     0.50030   0.31204   0.79079   0.00000  Uiso   1.00
C808   C     0.49970   0.02130   0.87588   0.00000  Uiso   1.00
C809   C     0.50004   0.29060   0.83335   0.00000  Uiso   1.00
C810   C     0.49996   0.04274   0.83332   0.00000  Uiso   1.00
C811   C     0.46768   0.14157   0.68738   0.00000  Uiso   1.00
C812   C     0.53232   0.19176   0.97929   0.00000  Uiso   1.00
C813   C     0.46772   0.14156   0.97109   0.00000  Uiso   1.00
C814   C     0.53228   0.19177   0.69558   0.00000  Uiso   1.00
Cu815  Cu    0.50000   0.16667   0.88022   0.00000  Uiso   1.00
Cu816  Cu    0.50000   0.16666   0.78645   0.00000  Uiso   1.00
H817   H     0.50045   0.03727   0.75750   0.00000  Uiso   1.00
H818   H     0.49955   0.29607   0.90917   0.00000  Uiso   1.00
H819   H     0.50055   0.29601   0.75753   0.00000  Uiso   1.00
H820   H     0.49945   0.03732   0.90914   0.00000  Uiso   1.00
H821   H     0.44183   0.12145   0.70282   0.00000  Uiso   1.00
H822   H     0.55817   0.21189   0.96385   0.00000  Uiso   1.00
H823   H     0.44197   0.12137   0.94910   0.00000  Uiso   1.00
H824   H     0.55803   0.21196   0.71756   0.00000  Uiso   1.00
N825   N     0.50001   0.16668   0.95069   0.00000  Uiso   1.00
N826   N     0.49999   0.16666   0.71597   0.00000  Uiso   1.00
O827   O     0.50000   0.10655   0.87291   0.00000  Uiso   1.00
O828   O     0.50000   0.22678   0.79375   0.00000  Uiso   1.00
O829   O     0.50000   0.10654   0.79372   0.00000  Uiso   1.00
O830   O     0.50000   0.22679   0.87294   0.00000  Uiso   1.00
O831   O     0.42495   0.16667   0.86379   0.00000  Uiso   1.00
O832   O     0.57505   0.16666   0.80288   0.00000  Uiso   1.00
O833   O     0.42494   0.16666   0.78460   0.00000  Uiso   1.00
O834   O     0.57506   0.16667   0.88207   0.00000  Uiso   1.00
N835   N     0.65513   0.17958   0.76813   0.00000  Uiso   1.00
H836   H     0.33652   0.20758   0.75795   0.00000  Uiso   1.00
H837   H     0.66378   0.15682   0.74458   0.00000  Uiso   1.00
N838   N     0.34487   0.15376   0.89854   0.00000  Uiso   1.00
H839   H     0.66348   0.12576   0.90872   0.00000  Uiso   1.00
H840   H     0.33622   0.17651   0.92209   0.00000  Uiso   1.00
C841   C     0.83330   0.08735   0.83331   0.00000  Uiso   1.00
C842   C     0.83337   0.24598   0.83335   0.00000  Uiso   1.00
C843   C     0.73480   0.16679   0.82139   0.00000  Uiso   1.00
C844   C     0.93187   0.16655   0.84528   0.00000  Uiso   1.00
C845   C     0.67991   0.16940   0.81477   0.00000  Uiso   1.00
C846   C     0.98675   0.16394   0.85190   0.00000  Uiso   1.00
C847   C     0.83358   0.02127   0.79077   0.00000  Uiso   1.00
C848   C     0.83308   0.31207   0.87590   0.00000  Uiso   1.00
C849   C     0.83363   0.31204   0.79079   0.00000  Uiso   1.00
C850   C     0.83303   0.02130   0.87588   0.00000  Uiso   1.00
C851   C     0.83337   0.29060   0.83335   0.00000  Uiso   1.00
C852   C     0.83329   0.04274   0.83332   0.00000  Uiso   1.00
C853   C     0.80101   0.14157   0.68738   0.00000  Uiso   1.00
C854   C     0.86566   0.19176   0.97929   0.00000  Uiso   1.00
C855   C     0.80105   0.14156   0.97109   0.00000  Uiso   1.00
C856   C     0.86562   0.19177   0.69558   0.00000  Uiso   1.00
Cu857  Cu    0.83333   0.16667   0.88022   0.00000  Uiso   1.00
Cu858  Cu    0.83333   0.16666   0.78645   0.00000  Uiso   1.00
H859   H     0.83378   0.03727   0.75750   0.00000  Uiso   1.00
H860   H     0.83288   0.29607   0.90917   0.00000  Uiso   1.00
H861   H     0.83389   0.29601   0.75753   0.00000  Uiso   1.00
H862   H     0.83278   0.03732   0.90914   0.00000  Uiso   1.00
H863   H     0.77517   0.12145   0.70282   0.00000  Uiso   1.00
H864   H     0.89150   0.21189   0.96385   0.00000  Uiso   1.00
H865   H     0.77530   0.12137   0.94910   0.00000  Uiso   1.00
H866   H     0.89137   0.21196   0.71756   0.00000  Uiso   1.00
N867   N     0.83335   0.16668   0.95069   0.00000  Uiso   1.00
N868   N     0.83332   0.16666   0.71597   0.00000  Uiso   1.00
O869   O     0.83333   0.10655   0.87291   0.00000  Uiso   1.00
O870   O     0.83334   0.22678   0.79375   0.00000  Uiso   1.00
O871   O     0.83333   0.10654   0.79372   0.00000  Uiso   1.00
O872   O     0.83334   0.22679   0.87294   0.00000  Uiso   1.00
O873   O     0.75828   0.16667   0.86379   0.00000  Uiso   1.00
O874   O     0.90839   0.16666   0.80288   0.00000  Uiso   1.00
O875   O     0.75828   0.16666   0.78460   0.00000  Uiso   1.00
O876   O     0.90839   0.16667   0.88207   0.00000  Uiso   1.00
N877   N     0.98847   0.17958   0.76813   0.00000  Uiso   1.00
H878   H     0.66985   0.20758   0.75795   0.00000  Uiso   1.00
H879   H     0.99711   0.15682   0.74458   0.00000  Uiso   1.00
N880   N     0.67820   0.15376   0.89854   0.00000  Uiso   1.00
H881   H     0.99682   0.12576   0.90872   0.00000  Uiso   1.00
H882   H     0.66956   0.17651   0.92209   0.00000  Uiso   1.00
C883   C     0.16663   0.42068   0.83331   0.00000  Uiso   1.00
C884   C     0.16670   0.57932   0.83335   0.00000  Uiso   1.00
C885   C     0.06813   0.50012   0.82139   0.00000  Uiso   1.00
C886   C     0.26520   0.49988   0.84528   0.00000  Uiso   1.00
C887   C     0.01325   0.50273   0.81477   0.00000  Uiso   1.00
C888   C     0.32009   0.49727   0.85190   0.00000  Uiso   1.00
C889   C     0.16692   0.35460   0.79077   0.00000  Uiso   1.00
C890   C     0.16642   0.64540   0.87590   0.00000  Uiso   1.00
C891   C     0.16697   0.64537   0.79079   0.00000  Uiso   1.00
C892   C     0.16637   0.35463   0.87588   0.00000  Uiso   1.00
C893   C     0.16671   0.62393   0.83335   0.00000  Uiso   1.00
C894   C     0.16663   0.37607   0.83332   0.00000  Uiso   1.00
C895   C     0.13434   0.47491   0.68738   0.00000  Uiso   1.00
C896   C     0.19899   0.52509   0.97929   0.00000  Uiso   1.00
C897   C     0.13438   0.47490   0.97109   0.00000  Uiso   1.00
C898   C     0.19895   0.52511   0.69558   0.00000  Uiso   1.00
Cu899  Cu    0.16667   0.50001   0.88022   0.00000  Uiso   1.00
Cu900  Cu    0.16667   0.49999   0.78645   0.00000  Uiso   1.00
H901   H     0.16712   0.37060   0.75750   0.00000  Uiso   1.00
H902   H     0.16622   0.62940   0.90917   0.00000  Uiso   1.00
H903   H     0.16722   0.62935   0.75753   0.00000  Uiso   1.00
H904   H     0.16611   0.37065   0.90914   0.00000  Uiso   1.00
H905   H     0.10850   0.45478   0.70282   0.00000  Uiso   1.00
H906   H     0.22483   0.54522   0.96385   0.00000  Uiso   1.00
H907   H     0.10863   0.45471   0.94910   0.00000  Uiso   1.00
H908   H     0.22470   0.54529   0.71756   0.00000  Uiso   1.00
N909   N     0.16668   0.50001   0.95069   0.00000  Uiso   1.00
N910   N     0.16665   0.49999   0.71597   0.00000  Uiso   1.00
O911   O     0.16666   0.43989   0.87291   0.00000  Uiso   1.00
O912   O     0.16667   0.56011   0.79375   0.00000  Uiso   1.00
O913   O     0.16666   0.43988   0.79372   0.00000  Uiso   1.00
O914   O     0.16667   0.56012   0.87294   0.00000  Uiso   1.00
O915   O     0.09161   0.50000   0.86379   0.00000  Uiso   1.00
O916   O     0.24172   0.50000   0.80288   0.00000  Uiso   1.00
O917   O     0.09161   0.49999   0.78460   0.00000  Uiso   1.00
O918   O     0.24172   0.50001   0.88207   0.00000  Uiso   1.00
N919   N     0.32180   0.51291   0.76813   0.00000  Uiso   1.00
H920   H     0.00319   0.54091   0.75795   0.00000  Uiso   1.00
H921   H     0.33044   0.49016   0.74458   0.00000  Uiso   1.00
N922   N     0.01153   0.48709   0.89854   0.00000  Uiso   1.00
H923   H     0.33015   0.45909   0.90872   0.00000  Uiso   1.00
H924   H     0.00289   0.50984   0.92209   0.00000  Uiso   1.00
C925   C     0.49997   0.42068   0.83331   0.00000  Uiso   1.00
C926   C     0.50003   0.57932   0.83335   0.00000  Uiso   1.00
C927   C     0.40146   0.50012   0.82139   0.00000  Uiso   1.00
C928   C     0.59854   0.49988   0.84528   0.00000  Uiso   1.00
C929   C     0.34658   0.50273   0.81477   0.00000  Uiso   1.00
C930   C     0.65342   0.49727   0.85190   0.00000  Uiso   1.00
C931   C     0.50025   0.35460   0.79077   0.00000  Uiso   1.00
C932   C     0.49975   0.64540   0.87590   0.00000  Uiso   1.00
C933   C     0.50030   0.64537   0.79079   0.00000  Uiso   1.00
C934   C     0.49970   0.35463   0.87588   0.00000  Uiso   1.00
C935   C     0.50004   0.62393   0.83335   0.00000  Uiso   1.00
C936   C     0.49996   0.37607   0.83332   0.00000  Uiso   1.00
C937   C     0.46768   0.47491   0.68738   0.00000  Uiso   1.00
C938   C     0.53232   0.52509   0.97929   0.00000  Uiso   1.00
C939   C     0.46772   0.47490   0.97109   0.00000  Uiso   1.00
C940   C     0.53228   0.52511   0.69558   0.00000  Uiso   1.00
Cu941  Cu    0.50000   0.50001   0.88022   0.00000  Uiso   1.00
Cu942  Cu    0.50000   0.49999   0.78645   0.00000  Uiso   1.00
H943   H     0.50045   0.37060   0.75750   0.00000  Uiso   1.00
H944   H     0.49955   0.62940   0.90917   0.00000  Uiso   1.00
H945   H     0.50055   0.62935   0.75753   0.00000  Uiso   1.00
H946   H     0.49945   0.37065   0.90914   0.00000  Uiso   1.00
H947   H     0.44183   0.45478   0.70282   0.00000  Uiso   1.00
H948   H     0.55817   0.54522   0.96385   0.00000  Uiso   1.00
H949   H     0.44197   0.45471   0.94910   0.00000  Uiso   1.00
H950   H     0.55803   0.54529   0.71756   0.00000  Uiso   1.00
N951   N     0.50001   0.50001   0.95069   0.00000  Uiso   1.00
N952   N     0.49999   0.49999   0.71597   0.00000  Uiso   1.00
O953   O     0.50000   0.43989   0.87291   0.00000  Uiso   1.00
O954   O     0.50000   0.56011   0.79375   0.00000  Uiso   1.00
O955   O     0.50000   0.43988   0.79372   0.00000  Uiso   1.00
O956   O     0.50000   0.56012   0.87294   0.00000  Uiso   1.00
O957   O     0.42495   0.50000   0.86379   0.00000  Uiso   1.00
O958   O     0.57505   0.50000   0.80288   0.00000  Uiso   1.00
O959   O     0.42494   0.49999   0.78460   0.00000  Uiso   1.00
O960   O     0.57506   0.50001   0.88207   0.00000  Uiso   1.00
N961   N     0.65513   0.51291   0.76813   0.00000  Uiso   1.00
H962   H     0.33652   0.54091   0.75795   0.00000  Uiso   1.00
H963   H     0.66378   0.49016   0.74458   0.00000  Uiso   1.00
N964   N     0.34487   0.48709   0.89854   0.00000  Uiso   1.00
H965   H     0.66348   0.45909   0.90872   0.00000  Uiso   1.00
H966   H     0.33622   0.50984   0.92209   0.00000  Uiso   1.00
C967   C     0.83330   0.42068   0.83331   0.00000  Uiso   1.00
C968   C     0.83337   0.57932   0.83335   0.00000  Uiso   1.00
C969   C     0.73480   0.50012   0.82139   0.00000  Uiso   1.00
C970   C     0.93187   0.49988   0.84528   0.00000  Uiso   1.00
C971   C     0.67991   0.50273   0.81477   0.00000  Uiso   1.00
C972   C     0.98675   0.49727   0.85190   0.00000  Uiso   1.00
C973   C     0.83358   0.35460   0.79077   0.00000  Uiso   1.00
C974   C     0.83308   0.64540   0.87590   0.00000  Uiso   1.00
C975   C     0.83363   0.64537   0.79079   0.00000  Uiso   1.00
C976   C     0.83303   0.35463   0.87588   0.00000  Uiso   1.00
C977   C     0.83337   0.62393   0.83335   0.00000  Uiso   1.00
C978   C     0.83329   0.37607   0.83332   0.00000  Uiso   1.00
C979   C     0.80101   0.47491   0.68738   0.00000  Uiso   1.00
C980   C     0.86566   0.52509   0.97929   0.00000  Uiso   1.00
C981   C     0.80105   0.47490   0.97109   0.00000  Uiso   1.00
C982   C     0.86562   0.52511   0.69558   0.00000  Uiso   1.00
Cu983  Cu    0.83333   0.50001   0.88022   0.00000  Uiso   1.00
Cu984  Cu    0.83333   0.49999   0.78645   0.00000  Uiso   1.00
H985   H     0.83378   0.37060   0.75750   0.00000  Uiso   1.00
H986   H     0.83288   0.62940   0.90917   0.00000  Uiso   1.00
H987   H     0.83389   0.62935   0.75753   0.00000  Uiso   1.00
H988   H     0.83278   0.37065   0.90914   0.00000  Uiso   1.00
H989   H     0.77517   0.45478   0.70282   0.00000  Uiso   1.00
H990   H     0.89150   0.54522   0.96385   0.00000  Uiso   1.00
H991   H     0.77530   0.45471   0.94910   0.00000  Uiso   1.00
H992   H     0.89137   0.54529   0.71756   0.00000  Uiso   1.00
N993   N     0.83335   0.50001   0.95069   0.00000  Uiso   1.00
N994   N     0.83332   0.49999   0.71597   0.00000  Uiso   1.00
O995   O     0.83333   0.43989   0.87291   0.00000  Uiso   1.00
O996   O     0.83334   0.56011   0.79375   0.00000  Uiso   1.00
O997   O     0.83333   0.43988   0.79372   0.00000  Uiso   1.00
O998   O     0.83334   0.56012   0.87294   0.00000  Uiso   1.00
O999   O     0.75828   0.50000   0.86379   0.00000  Uiso   1.00
O1000  O     0.90839   0.50000   0.80288   0.00000  Uiso   1.00
O1001  O     0.75828   0.49999   0.78460   0.00000  Uiso   1.00
O1002  O     0.90839   0.50001   0.88207   0.00000  Uiso   1.00
N1003  N     0.98847   0.51291   0.76813   0.00000  Uiso   1.00
H1004  H     0.66985   0.54091   0.75795   0.00000  Uiso   1.00
H1005  H     0.99711   0.49016   0.74458   0.00000  Uiso   1.00
N1006  N     0.67820   0.48709   0.89854   0.00000  Uiso   1.00
H1007  H     0.99682   0.45909   0.90872   0.00000  Uiso   1.00
H1008  H     0.66956   0.50984   0.92209   0.00000  Uiso   1.00
C1009  C     0.16663   0.75402   0.83331   0.00000  Uiso   1.00
C1010  C     0.16670   0.91265   0.83335   0.00000  Uiso   1.00
C1011  C     0.06813   0.83345   0.82139   0.00000  Uiso   1.00
C1012  C     0.26520   0.83322   0.84528   0.00000  Uiso   1.00
C1013  C     0.01325   0.83606   0.81477   0.00000  Uiso   1.00
C1014  C     0.32009   0.83060   0.85190   0.00000  Uiso   1.00
C1015  C     0.16692   0.68793   0.79077   0.00000  Uiso   1.00
C1016  C     0.16642   0.97873   0.87590   0.00000  Uiso   1.00
C1017  C     0.16697   0.97870   0.79079   0.00000  Uiso   1.00
C1018  C     0.16637   0.68796   0.87588   0.00000  Uiso   1.00
C1019  C     0.16671   0.95726   0.83335   0.00000  Uiso   1.00
C1020  C     0.16663   0.70940   0.83332   0.00000  Uiso   1.00
C1021  C     0.13434   0.80824   0.68738   0.00000  Uiso   1.00
C1022  C     0.19899   0.85843   0.97929   0.00000  Uiso   1.00
C1023  C     0.13438   0.80823   0.97109   0.00000  Uiso   1.00
C1024  C     0.19895   0.85844   0.69558   0.00000  Uiso   1.00
Cu1025 Cu    0.16667   0.83334   0.88022   0.00000  Uiso   1.00
Cu1026 Cu    0.16667   0.83333   0.78645   0.00000  Uiso   1.00
H1027  H     0.16712   0.70393   0.75750   0.00000  Uiso   1.00
H1028  H     0.16622   0.96273   0.90917   0.00000  Uiso   1.00
H1029  H     0.16722   0.96268   0.75753   0.00000  Uiso   1.00
H1030  H     0.16611   0.70399   0.90914   0.00000  Uiso   1.00
H1031  H     0.10850   0.78811   0.70282   0.00000  Uiso   1.00
H1032  H     0.22483   0.87855   0.96385   0.00000  Uiso   1.00
H1033  H     0.10863   0.78804   0.94910   0.00000  Uiso   1.00
H1034  H     0.22470   0.87863   0.71756   0.00000  Uiso   1.00
N1035  N     0.16668   0.83334   0.95069   0.00000  Uiso   1.00
N1036  N     0.16665   0.83332   0.71597   0.00000  Uiso   1.00
O1037  O     0.16666   0.77322   0.87291   0.00000  Uiso   1.00
O1038  O     0.16667   0.89345   0.79375   0.00000  Uiso   1.00
O1039  O     0.16666   0.77321   0.79372   0.00000  Uiso   1.00
O1040  O     0.16667   0.89346   0.87294   0.00000  Uiso   1.00
O1041  O     0.09161   0.83334   0.86379   0.00000  Uiso   1.00
O1042  O     0.24172   0.83333   0.80288   0.00000  Uiso   1.00
O1043  O     0.09161   0.83333   0.78460   0.00000  Uiso   1.00
O1044  O     0.24172   0.83334   0.88207   0.00000  Uiso   1.00
N1045  N     0.32180   0.84624   0.76813   0.00000  Uiso   1.00
H1046  H     0.00319   0.87424   0.75795   0.00000  Uiso   1.00
H1047  H     0.33044   0.82349   0.74458   0.00000  Uiso   1.00
N1048  N     0.01153   0.82043   0.89854   0.00000  Uiso   1.00
H1049  H     0.33015   0.79242   0.90872   0.00000  Uiso   1.00
H1050  H     0.00289   0.84318   0.92209   0.00000  Uiso   1.00
C1051  C     0.49997   0.75402   0.83331   0.00000  Uiso   1.00
C1052  C     0.50003   0.91265   0.83335   0.00000  Uiso   1.00
C1053  C     0.40146   0.83345   0.82139   0.00000  Uiso   1.00
C1054  C     0.59854   0.83322   0.84528   0.00000  Uiso   1.00
C1055  C     0.34658   0.83606   0.81477   0.00000  Uiso   1.00
C1056  C     0.65342   0.83060   0.85190   0.00000  Uiso   1.00
C1057  C     0.50025   0.68793   0.79077   0.00000  Uiso   1.00
C1058  C     0.49975   0.97873   0.87590   0.00000  Uiso   1.00
C1059  C     0.50030   0.97870   0.79079   0.00000  Uiso   1.00
C1060  C     0.49970   0.68796   0.87588   0.00000  Uiso   1.00
C1061  C     0.50004   0.95726   0.83335   0.00000  Uiso   1.00
C1062  C     0.49996   0.70940   0.83332   0.00000  Uiso   1.00
C1063  C     0.46768   0.80824   0.68738   0.00000  Uiso   1.00
C1064  C     0.53232   0.85843   0.97929   0.00000  Uiso   1.00
C1065  C     0.46772   0.80823   0.97109   0.00000  Uiso   1.00
C1066  C     0.53228   0.85844   0.69558   0.00000  Uiso   1.00
Cu1067 Cu    0.50000   0.83334   0.88022   0.00000  Uiso   1.00
Cu1068 Cu    0.50000   0.83333   0.78645   0.00000  Uiso   1.00
H1069  H     0.50045   0.70393   0.75750   0.00000  Uiso   1.00
H1070  H     0.49955   0.96273   0.90917   0.00000  Uiso   1.00
H1071  H     0.50055   0.96268   0.75753   0.00000  Uiso   1.00
H1072  H     0.49945   0.70399   0.90914   0.00000  Uiso   1.00
H1073  H     0.44183   0.78811   0.70282   0.00000  Uiso   1.00
H1074  H     0.55817   0.87855   0.96385   0.00000  Uiso   1.00
H1075  H     0.44197   0.78804   0.94910   0.00000  Uiso   1.00
H1076  H     0.55803   0.87863   0.71756   0.00000  Uiso   1.00
N1077  N     0.50001   0.83334   0.95069   0.00000  Uiso   1.00
N1078  N     0.49999   0.83332   0.71597   0.00000  Uiso   1.00
O1079  O     0.50000   0.77322   0.87291   0.00000  Uiso   1.00
O1080  O     0.50000   0.89345   0.79375   0.00000  Uiso   1.00
O1081  O     0.50000   0.77321   0.79372   0.00000  Uiso   1.00
O1082  O     0.50000   0.89346   0.87294   0.00000  Uiso   1.00
O1083  O     0.42495   0.83334   0.86379   0.00000  Uiso   1.00
O1084  O     0.57505   0.83333   0.80288   0.00000  Uiso   1.00
O1085  O     0.42494   0.83333   0.78460   0.00000  Uiso   1.00
O1086  O     0.57506   0.83334   0.88207   0.00000  Uiso   1.00
N1087  N     0.65513   0.84624   0.76813   0.00000  Uiso   1.00
H1088  H     0.33652   0.87424   0.75795   0.00000  Uiso   1.00
H1089  H     0.66378   0.82349   0.74458   0.00000  Uiso   1.00
N1090  N     0.34487   0.82043   0.89854   0.00000  Uiso   1.00
H1091  H     0.66348   0.79242   0.90872   0.00000  Uiso   1.00
H1092  H     0.33622   0.84318   0.92209   0.00000  Uiso   1.00
C1093  C     0.83330   0.75402   0.83331   0.00000  Uiso   1.00
C1094  C     0.83337   0.91265   0.83335   0.00000  Uiso   1.00
C1095  C     0.73480   0.83345   0.82139   0.00000  Uiso   1.00
C1096  C     0.93187   0.83322   0.84528   0.00000  Uiso   1.00
C1097  C     0.67991   0.83606   0.81477   0.00000  Uiso   1.00
C1098  C     0.98675   0.83060   0.85190   0.00000  Uiso   1.00
C1099  C     0.83358   0.68793   0.79077   0.00000  Uiso   1.00
C1100  C     0.83308   0.97873   0.87590   0.00000  Uiso   1.00
C1101  C     0.83363   0.97870   0.79079   0.00000  Uiso   1.00
C1102  C     0.83303   0.68796   0.87588   0.00000  Uiso   1.00
C1103  C     0.83337   0.95726   0.83335   0.00000  Uiso   1.00
C1104  C     0.83329   0.70940   0.83332   0.00000  Uiso   1.00
C1105  C     0.80101   0.80824   0.68738   0.00000  Uiso   1.00
C1106  C     0.86566   0.85843   0.97929   0.00000  Uiso   1.00
C1107  C     0.80105   0.80823   0.97109   0.00000  Uiso   1.00
C1108  C     0.86562   0.85844   0.69558   0.00000  Uiso   1.00
Cu1109 Cu    0.83333   0.83334   0.88022   0.00000  Uiso   1.00
Cu1110 Cu    0.83333   0.83333   0.78645   0.00000  Uiso   1.00
H1111  H     0.83378   0.70393   0.75750   0.00000  Uiso   1.00
H1112  H     0.83288   0.96273   0.90917   0.00000  Uiso   1.00
H1113  H     0.83389   0.96268   0.75753   0.00000  Uiso   1.00
H1114  H     0.83278   0.70399   0.90914   0.00000  Uiso   1.00
H1115  H     0.77517   0.78811   0.70282   0.00000  Uiso   1.00
H1116  H     0.89150   0.87855   0.96385   0.00000  Uiso   1.00
H1117  H     0.77530   0.78804   0.94910   0.00000  Uiso   1.00
H1118  H     0.89137   0.87863   0.71756   0.00000  Uiso   1.00
N1119  N     0.83335   0.83334   0.95069   0.00000  Uiso   1.00
N1120  N     0.83332   0.83332   0.71597   0.00000  Uiso   1.00
O1121  O     0.83333   0.77322   0.87291   0.00000  Uiso   1.00
O1122  O     0.83334   0.89345   0.79375   0.00000  Uiso   1.00
O1123  O     0.83333   0.77321   0.79372   0.00000  Uiso   1.00
O1124  O     0.83334   0.89346   0.87294   0.00000  Uiso   1.00
O1125  O     0.75828   0.83334   0.86379   0.00000  Uiso   1.00
O1126  O     0.90839   0.83333   0.80288   0.00000  Uiso   1.00
O1127  O     0.75828   0.83333   0.78460   0.00000  Uiso   1.00
O1128  O     0.90839   0.83334   0.88207   0.00000  Uiso   1.00
N1129  N     0.98847   0.84624   0.76813   0.00000  Uiso   1.00
H1130  H     0.66985   0.87424   0.75795   0.00000  Uiso   1.00
H1131  H     0.99711   0.82349   0.74458   0.00000  Uiso   1.00
N1132  N     0.67820   0.82043   0.89854   0.00000  Uiso   1.00
H1133  H     0.99682   0.79242   0.90872   0.00000  Uiso   1.00
H1134  H     0.66956   0.84318   0.92209   0.00000  Uiso   1.00
loop_
_geom_bond_atom_site_label_1
_geom_bond_atom_site_label_2
_geom_bond_distance
_geom_bond_site_symmetry_2
_ccdc_geom_bond_type
C1     O29     1.291   .     A
C1     C12     1.450   .     S
C1     O31     1.291   .     A
C2     O30     1.291   .     A
C2     C11     1.450   .     S
C2     O32     1.291   .     A
C3     O35     1.291   .     A
C3     O33     1.283   .     A
C3     C5      1.443   .     S
C4     O36     1.291   .     A
C4     O34     1.283   .     A
C4     C6      1.443   .     S
C5     C90     1.359   1_455 S
C5     N121    1.440   1_455 S
C6     C47     1.359   .     S
C6     N82     1.440   .     S
C7     C12     1.401   .     A
C7     H19     1.083   .     S
C7     C261    1.383   1_545 S
C8     H20     1.083   .     S
C8     C11     1.401   .     A
C8     C136    1.383   .     S
C9     C11     1.401   .     A
C9     H21     1.083   .     S
C9     C133    1.383   .     S
C10    H22     1.083   .     S
C10    C12     1.401   .     A
C10    C260    1.383   1_545 S
C13    N28     1.367   .     A
C13    H23     1.082   .     S
C13    C771    1.416   1_554 S
C14    N27     1.367   .     A
C14    H24     1.082   .     S
C14    C394    1.416   .     S
C15    N27     1.367   .     A
C15    H25     1.082   .     S
C15    C391    1.416   .     S
C16    N28     1.367   .     A
C16    H26     1.082   .     S
C16    C770    1.416   1_554 S
Cu17   O36     1.981   .     S
Cu17   O29     1.965   .     S
Cu17   Cu18    2.676   .     S
Cu17   O33     1.979   .     S
Cu17   N27     2.011   .     S
Cu17   O32     1.965   .     S
Cu18   O30     1.965   .     S
Cu18   O35     1.981   .     S
Cu18   O34     1.979   .     S
Cu18   N28     2.011   .     S
Cu18   O31     1.965   .     S
N37    H39     1.046   .     S
N37    C47     1.440   .     S
N37    H80     1.046   .     S
H38    N121    1.046   1_455 S
N40    H42     1.046   .     S
N40    C90     1.440   1_455 S
N40    H125    1.046   1_455 S
H41    N82     1.046   .     S
C43    O71     1.291   .     A
C43    C54     1.450   .     S
C43    O73     1.291   .     A
C44    O72     1.291   .     A
C44    C53     1.450   .     S
C44    O74     1.291   .     A
C45    O77     1.291   .     A
C45    O75     1.283   .     A
C45    C47     1.443   .     S
C46    O78     1.291   .     A
C46    O76     1.283   .     A
C46    C48     1.443   .     S
C48    C89     1.359   .     S
C48    N124    1.440   .     S
C49    C54     1.401   .     A
C49    H61     1.083   .     S
C49    C303    1.383   1_545 S
C50    H62     1.083   .     S
C50    C53     1.401   .     A
C50    C178    1.383   .     S
C51    C53     1.401   .     A
C51    H63     1.083   .     S
C51    C175    1.383   .     S
C52    H64     1.083   .     S
C52    C54     1.401   .     A
C52    C302    1.383   1_545 S
C55    N70     1.367   .     A
C55    H65     1.082   .     S
C55    C813    1.416   1_554 S
C56    N69     1.367   .     A
C56    H66     1.082   .     S
C56    C436    1.416   .     S
C57    N69     1.367   .     A
C57    H67     1.082   .     S
C57    C433    1.416   .     S
C58    N70     1.367   .     A
C58    H68     1.082   .     S
C58    C812    1.416   1_554 S
Cu59   O78     1.981   .     S
Cu59   O71     1.965   .     S
Cu59   Cu60    2.676   .     S
Cu59   O75     1.979   .     S
Cu59   N69     2.011   .     S
Cu59   O74     1.965   .     S
Cu60   O72     1.965   .     S
Cu60   O77     1.981   .     S
Cu60   O76     1.979   .     S
Cu60   N70     2.011   .     S
Cu60   O73     1.965   .     S
N79    H81     1.046   .     S
N79    C89     1.440   .     S
N79    H122    1.046   .     S
N82    H84     1.046   .     S
H83    N124    1.046   .     S
C85    O113    1.291   .     A
C85    C96     1.450   .     S
C85    O115    1.291   .     A
C86    O114    1.291   .     A
C86    C95     1.450   .     S
C86    O116    1.291   .     A
C87    O119    1.291   .     A
C87    O117    1.283   .     A
C87    C89     1.443   .     S
C88    O120    1.291   .     A
C88    O118    1.283   .     A
C88    C90     1.443   .     S
C90    C5      1.359   1_655 S
C90    N40     1.440   1_655 S
C91    C96     1.401   .     A
C91    H103    1.083   .     S
C91    C345    1.383   1_545 S
C92    H104    1.083   .     S
C92    C95     1.401   .     A
C92    C220    1.383   .     S
C93    C95     1.401   .     A
C93    H105    1.083   .     S
C93    C217    1.383   .     S
C94    H106    1.083   .     S
C94    C96     1.401   .     A
C94    C344    1.383   1_545 S
C97    N112    1.367   .     A
C97    H107    1.082   .     S
C97    C855    1.416   1_554 S
C98    N111    1.367   .     A
C98    H108    1.082   .     S
C98    C478    1.416   .     S
C99    N111    1.367   .     A
C99    H109    1.082   .     S
C99    C475    1.416   .     S
C100   N112    1.367   .     A
C100   H110    1.082   .     S
C100   C854    1.416   1_554 S
Cu101  O120    1.981   .     S
Cu101  O113    1.965   .     S
Cu101  Cu102   2.676   .     S
Cu101  O117    1.979   .     S
Cu101  N111    2.011   .     S
Cu101  O116    1.965   .     S
Cu102  O114    1.965   .     S
Cu102  O119    1.981   .     S
Cu102  O118    1.979   .     S
Cu102  N112    2.011   .     S
Cu102  O115    1.965   .     S
N121   H123    1.046   .     S
N121   C5      1.440   1_655 S
N121   H38     1.046   1_655 S
N124   H126    1.046   .     S
H125   N40     1.046   1_655 S
C127   O155    1.291   .     A
C127   C138    1.450   .     S
C127   O157    1.291   .     A
C128   O156    1.291   .     A
C128   C137    1.450   .     S
C128   O158    1.291   .     A
C129   O161    1.291   .     A
C129   O159    1.283   .     A
C129   C131    1.443   .     S
C130   O162    1.291   .     A
C130   O160    1.283   .     A
C130   C132    1.443   .     S
C131   C216    1.359   1_455 S
C131   N247    1.440   1_455 S
C132   C173    1.359   .     S
C132   N208    1.440   .     S
C133   C138    1.401   .     A
C133   H145    1.083   .     S
C134   H146    1.083   .     S
C134   C137    1.401   .     A
C134   C262    1.383   .     S
C135   C137    1.401   .     A
C135   H147    1.083   .     S
C135   C259    1.383   .     S
C136   H148    1.083   .     S
C136   C138    1.401   .     A
C139   N154    1.367   .     A
C139   H149    1.082   .     S
C139   C897    1.416   1_554 S
C140   N153    1.367   .     A
C140   H150    1.082   .     S
C140   C520    1.416   .     S
C141   N153    1.367   .     A
C141   H151    1.082   .     S
C141   C517    1.416   .     S
C142   N154    1.367   .     A
C142   H152    1.082   .     S
C142   C896    1.416   1_554 S
Cu143  O162    1.981   .     S
Cu143  O155    1.965   .     S
Cu143  Cu144   2.676   .     S
Cu143  O159    1.979   .     S
Cu143  N153    2.011   .     S
Cu143  O158    1.965   .     S
Cu144  O156    1.965   .     S
Cu144  O161    1.981   .     S
Cu144  O160    1.979   .     S
Cu144  N154    2.011   .     S
Cu144  O157    1.965   .     S
N163   H165    1.046   .     S
N163   C173    1.440   .     S
N163   H206    1.046   .     S
H164   N247    1.046   1_455 S
N166   H168    1.046   .     S
N166   C216    1.440   1_455 S
N166   H251    1.046   1_455 S
H167   N208    1.046   .     S
C169   O197    1.291   .     A
C169   C180    1.450   .     S
C169   O199    1.291   .     A
C170   O198    1.291   .     A
C170   C179    1.450   .     S
C170   O200    1.291   .     A
C171   O203    1.291   .     A
C171   O201    1.283   .     A
C171   C173    1.443   .     S
C172   O204    1.291   .     A
C172   O202    1.283   .     A
C172   C174    1.443   .     S
C174   C215    1.359   .     S
C174   N250    1.440   .     S
C175   C180    1.401   .     A
C175   H187    1.083   .     S
C176   H188    1.083   .     S
C176   C179    1.401   .     A
C176   C304    1.383   .     S
C177   C179    1.401   .     A
C177   H189    1.083   .     S
C177   C301    1.383   .     S
C178   H190    1.083   .     S
C178   C180    1.401   .     A
C181   N196    1.367   .     A
C181   H191    1.082   .     S
C181   C939    1.416   1_554 S
C182   N195    1.367   .     A
C182   H192    1.082   .     S
C182   C562    1.416   .     S
C183   N195    1.367   .     A
C183   H193    1.082   .     S
C183   C559    1.416   .     S
C184   N196    1.367   .     A
C184   H194    1.082   .     S
C184   C938    1.416   1_554 S
Cu185  O204    1.981   .     S
Cu185  O197    1.965   .     S
Cu185  Cu186   2.676   .     S
Cu185  O201    1.979   .     S
Cu185  N195    2.011   .     S
Cu185  O200    1.965   .     S
Cu186  O198    1.965   .     S
Cu186  O203    1.981   .     S
Cu186  O202    1.979   .     S
Cu186  N196    2.011   .     S
Cu186  O199    1.965   .     S
N205   H207    1.046   .     S
N205   C215    1.440   .     S
N205   H248    1.046   .     S
N208   H210    1.046   .     S
H209   N250    1.046   .     S
C211   O239    1.291   .     A
C211   C222    1.450   .     S
C211   O241    1.291   .     A
C212   O240    1.291   .     A
C212   C221    1.450   .     S
C212   O242    1.291   .     A
C213   O245    1.291   .     A
C213   O243    1.283   .     A
C213   C215    1.443   .     S
C214   O246    1.291   .     A
C214   O244    1.283   .     A
C214   C216    1.443   .     S
C216   C131    1.359   1_655 S
C216   N166    1.440   1_655 S
C217   C222    1.401   .     A
C217   H229    1.083   .     S
C218   H230    1.083   .     S
C218   C221    1.401   .     A
C218   C346    1.383   .     S
C219   C221    1.401   .     A
C219   H231    1.083   .     S
C219   C343    1.383   .     S
C220   H232    1.083   .     S
C220   C222    1.401   .     A
C223   N238    1.367   .     A
C223   H233    1.082   .     S
C223   C981    1.416   1_554 S
C224   N237    1.367   .     A
C224   H234    1.082   .     S
C224   C604    1.416   .     S
C225   N237    1.367   .     A
C225   H235    1.082   .     S
C225   C601    1.416   .     S
C226   N238    1.367   .     A
C226   H236    1.082   .     S
C226   C980    1.416   1_554 S
Cu227  O246    1.981   .     S
Cu227  O239    1.965   .     S
Cu227  Cu228   2.676   .     S
Cu227  O243    1.979   .     S
Cu227  N237    2.011   .     S
Cu227  O242    1.965   .     S
Cu228  O240    1.965   .     S
Cu228  O245    1.981   .     S
Cu228  O244    1.979   .     S
Cu228  N238    2.011   .     S
Cu228  O241    1.965   .     S
N247   H249    1.046   .     S
N247   C131    1.440   1_655 S
N247   H164    1.046   1_655 S
N250   H252    1.046   .     S
H251   N166    1.046   1_655 S
C253   O281    1.291   .     A
C253   C264    1.450   .     S
C253   O283    1.291   .     A
C254   O282    1.291   .     A
C254   C263    1.450   .     S
C254   O284    1.291   .     A
C255   O287    1.291   .     A
C255   O285    1.283   .     A
C255   C257    1.443   .     S
C256   O288    1.291   .     A
C256   O286    1.283   .     A
C256   C258    1.443   .     S
C257   C342    1.359   1_455 S
C257   N373    1.440   1_455 S
C258   C299    1.359   .     S
C258   N334    1.440   .     S
C259   C264    1.401   .     A
C259   H271    1.083   .     S
C260   H272    1.083   .     S
C260   C263    1.401   .     A
C260   C10     1.383   1_565 S
C261   C263    1.401   .     A
C261   H273    1.083   .     S
C261   C7      1.383   1_565 S
C262   H274    1.083   .     S
C262   C264    1.401   .     A
C265   N280    1.367   .     A
C265   H275    1.082   .     S
C265   C1023   1.416   1_554 S
C266   N279    1.367   .     A
C266   H276    1.082   .     S
C266   C646    1.416   .     S
C267   N279    1.367   .     A
C267   H277    1.082   .     S
C267   C643    1.416   .     S
C268   N280    1.367   .     A
C268   H278    1.082   .     S
C268   C1022   1.416   1_554 S
Cu269  O288    1.981   .     S
Cu269  O281    1.965   .     S
Cu269  Cu270   2.676   .     S
Cu269  O285    1.979   .     S
Cu269  N279    2.011   .     S
Cu269  O284    1.965   .     S
Cu270  O282    1.965   .     S
Cu270  O287    1.981   .     S
Cu270  O286    1.979   .     S
Cu270  N280    2.011   .     S
Cu270  O283    1.965   .     S
N289   H291    1.046   .     S
N289   C299    1.440   .     S
N289   H332    1.046   .     S
H290   N373    1.046   1_455 S
N292   H294    1.046   .     S
N292   C342    1.440   1_455 S
N292   H377    1.046   1_455 S
H293   N334    1.046   .     S
C295   O323    1.291   .     A
C295   C306    1.450   .     S
C295   O325    1.291   .     A
C296   O324    1.291   .     A
C296   C305    1.450   .     S
C296   O326    1.291   .     A
C297   O329    1.291   .     A
C297   O327    1.283   .     A
C297   C299    1.443   .     S
C298   O330    1.291   .     A
C298   O328    1.283   .     A
C298   C300    1.443   .     S
C300   C341    1.359   .     S
C300   N376    1.440   .     S
C301   C306    1.401   .     A
C301   H313    1.083   .     S
C302   H314    1.083   .     S
C302   C305    1.401   .     A
C302   C52     1.383   1_565 S
C303   C305    1.401   .     A
C303   H315    1.083   .     S
C303   C49     1.383   1_565 S
C304   H316    1.083   .     S
C304   C306    1.401   .     A
C307   N322    1.367   .     A
C307   H317    1.082   .     S
C307   C1065   1.416   1_554 S
C308   N321    1.367   .     A
C308   H318    1.082   .     S
C308   C688    1.416   .     S
C309   N321    1.367   .     A
C309   H319    1.082   .     S
C309   C685    1.416   .     S
C310   N322    1.367   .     A
C310   H320    1.082   .     S
C310   C1064   1.416   1_554 S
Cu311  O330    1.981   .     S
Cu311  O323    1.965   .     S
Cu311  Cu312   2.676   .     S
Cu311  O327    1.979   .     S
Cu311  N321    2.011   .     S
Cu311  O326    1.965   .     S
Cu312  O324    1.965   .     S
Cu312  O329    1.981   .     S
Cu312  O328    1.979   .     S
Cu312  N322    2.011   .     S
Cu312  O325    1.965   .     S
N331   H333    1.046   .     S
N331   C341    1.440   .     S
N331   H374    1.046   .     S
N334   H336    1.046   .     S
H335   N376    1.046   .     S
C337   O365    1.291   .     A
C337   C348    1.450   .     S
C337   O367    1.291   .     A
C338   O366    1.291   .     A
C338   C347    1.450   .     S
C338   O368    1.291   .     A
C339   O371    1.291   .     A
C339   O369    1.283   .     A
C339   C341    1.443   .     S
C340   O372    1.291   .     A
C340   O370    1.283   .     A
C340   C342    1.443   .     S
C342   C257    1.359   1_655 S
C342   N292    1.440   1_655 S
C343   C348    1.401   .     A
C343   H355    1.083   .     S
C344   H356    1.083   .     S
C344   C347    1.401   .     A
C344   C94     1.383   1_565 S
C345   C347    1.401   .     A
C345   H357    1.083   .     S
C345   C91     1.383   1_565 S
C346   H358    1.083   .     S
C346   C348    1.401   .     A
C349   N364    1.367   .     A
C349   H359    1.082   .     S
C349   C1107   1.416   1_554 S
C350   N363    1.367   .     A
C350   H360    1.082   .     S
C350   C730    1.416   .     S
C351   N363    1.367   .     A
C351   H361    1.082   .     S
C351   C727    1.416   .     S
C352   N364    1.367   .     A
C352   H362    1.082   .     S
C352   C1106   1.416   1_554 S
Cu353  O372    1.981   .     S
Cu353  O365    1.965   .     S
Cu353  Cu354   2.676   .     S
Cu353  O369    1.979   .     S
Cu353  N363    2.011   .     S
Cu353  O368    1.965   .     S
Cu354  O366    1.965   .     S
Cu354  O371    1.981   .     S
Cu354  O370    1.979   .     S
Cu354  N364    2.011   .     S
Cu354  O367    1.965   .     S
N373   H375    1.046   .     S
N373   C257    1.440   1_655 S
N373   H290    1.046   1_655 S
N376   H378    1.046   .     S
H377   N292    1.046   1_655 S
C379   O407    1.291   .     A
C379   C390    1.450   .     S
C379   O409    1.291   .     A
C380   O408    1.291   .     A
C380   C389    1.450   .     S
C380   O410    1.291   .     A
C381   O413    1.291   .     A
C381   O411    1.283   .     A
C381   C383    1.443   .     S
C382   O414    1.291   .     A
C382   O412    1.283   .     A
C382   C384    1.443   .     S
C383   C468    1.359   1_455 S
C383   N499    1.440   1_455 S
C384   C425    1.359   .     S
C384   N460    1.440   .     S
C385   C390    1.401   .     A
C385   H397    1.083   .     S
C385   C639    1.383   1_545 S
C386   H398    1.083   .     S
C386   C389    1.401   .     A
C386   C514    1.383   .     S
C387   C389    1.401   .     A
C387   H399    1.083   .     S
C387   C511    1.383   .     S
C388   H400    1.083   .     S
C388   C390    1.401   .     A
C388   C638    1.383   1_545 S
C391   N406    1.367   .     A
C391   H401    1.082   .     S
C392   N405    1.367   .     A
C392   H402    1.082   .     S
C392   C772    1.416   .     S
C393   N405    1.367   .     A
C393   H403    1.082   .     S
C393   C769    1.416   .     S
C394   N406    1.367   .     A
C394   H404    1.082   .     S
Cu395  O414    1.981   .     S
Cu395  O407    1.965   .     S
Cu395  Cu396   2.676   .     S
Cu395  O411    1.979   .     S
Cu395  N405    2.011   .     S
Cu395  O410    1.965   .     S
Cu396  O408    1.965   .     S
Cu396  O413    1.981   .     S
Cu396  O412    1.979   .     S
Cu396  N406    2.011   .     S
Cu396  O409    1.965   .     S
N415   H417    1.046   .     S
N415   C425    1.440   .     S
N415   H458    1.046   .     S
H416   N499    1.046   1_455 S
N418   H420    1.046   .     S
N418   C468    1.440   1_455 S
N418   H503    1.046   1_455 S
H419   N460    1.046   .     S
C421   O449    1.291   .     A
C421   C432    1.450   .     S
C421   O451    1.291   .     A
C422   O450    1.291   .     A
C422   C431    1.450   .     S
C422   O452    1.291   .     A
C423   O455    1.291   .     A
C423   O453    1.283   .     A
C423   C425    1.443   .     S
C424   O456    1.291   .     A
C424   O454    1.283   .     A
C424   C426    1.443   .     S
C426   C467    1.359   .     S
C426   N502    1.440   .     S
C427   C432    1.401   .     A
C427   H439    1.083   .     S
C427   C681    1.383   1_545 S
C428   H440    1.083   .     S
C428   C431    1.401   .     A
C428   C556    1.383   .     S
C429   C431    1.401   .     A
C429   H441    1.083   .     S
C429   C553    1.383   .     S
C430   H442    1.083   .     S
C430   C432    1.401   .     A
C430   C680    1.383   1_545 S
C433   N448    1.367   .     A
C433   H443    1.082   .     S
C434   N447    1.367   .     A
C434   H444    1.082   .     S
C434   C814    1.416   .     S
C435   N447    1.367   .     A
C435   H445    1.082   .     S
C435   C811    1.416   .     S
C436   N448    1.367   .     A
C436   H446    1.082   .     S
Cu437  O456    1.981   .     S
Cu437  O449    1.965   .     S
Cu437  Cu438   2.676   .     S
Cu437  O453    1.979   .     S
Cu437  N447    2.011   .     S
Cu437  O452    1.965   .     S
Cu438  O450    1.965   .     S
Cu438  O455    1.981   .     S
Cu438  O454    1.979   .     S
Cu438  N448    2.011   .     S
Cu438  O451    1.965   .     S
N457   H459    1.046   .     S
N457   C467    1.440   .     S
N457   H500    1.046   .     S
N460   H462    1.046   .     S
H461   N502    1.046   .     S
C463   O491    1.291   .     A
C463   C474    1.450   .     S
C463   O493    1.291   .     A
C464   O492    1.291   .     A
C464   C473    1.450   .     S
C464   O494    1.291   .     A
C465   O497    1.291   .     A
C465   O495    1.283   .     A
C465   C467    1.443   .     S
C466   O498    1.291   .     A
C466   O496    1.283   .     A
C466   C468    1.443   .     S
C468   C383    1.359   1_655 S
C468   N418    1.440   1_655 S
C469   C474    1.401   .     A
C469   H481    1.083   .     S
C469   C723    1.383   1_545 S
C470   H482    1.083   .     S
C470   C473    1.401   .     A
C470   C598    1.383   .     S
C471   C473    1.401   .     A
C471   H483    1.083   .     S
C471   C595    1.383   .     S
C472   H484    1.083   .     S
C472   C474    1.401   .     A
C472   C722    1.383   1_545 S
C475   N490    1.367   .     A
C475   H485    1.082   .     S
C476   N489    1.367   .     A
C476   H486    1.082   .     S
C476   C856    1.416   .     S
C477   N489    1.367   .     A
C477   H487    1.082   .     S
C477   C853    1.416   .     S
C478   N490    1.367   .     A
C478   H488    1.082   .     S
Cu479  O498    1.981   .     S
Cu479  O491    1.965   .     S
Cu479  Cu480   2.676   .     S
Cu479  O495    1.979   .     S
Cu479  N489    2.011   .     S
Cu479  O494    1.965   .     S
Cu480  O492    1.965   .     S
Cu480  O497    1.981   .     S
Cu480  O496    1.979   .     S
Cu480  N490    2.011   .     S
Cu480  O493    1.965   .     S
N499   H501    1.046   .     S
N499   C383    1.440   1_655 S
N499   H416    1.046   1_655 S
N502   H504    1.046   .     S
H503   N418    1.046   1_655 S
C505   O533    1.291   .     A
C505   C516    1.450   .     S
C505   O535    1.291   .     A
C506   O534    1.291   .     A
C506   C515    1.450   .     S
C506   O536    1.291   .     A
C507   O539    1.291   .     A
C507   O537    1.283   .     A
C507   C509    1.443   .     S
C508   O540    1.291   .     A
C508   O538    1.283   .     A
C508   C510    1.443   .     S
C509   C594    1.359   1_455 S
C509   N625    1.440   1_455 S
C510   C551    1.359   .     S
C510   N586    1.440   .     S
C511   C516    1.401   .     A
C511   H523    1.083   .     S
C512   H524    1.083   .     S
C512   C515    1.401   .     A
C512   C640    1.383   .     S
C513   C515    1.401   .     A
C513   H525    1.083   .     S
C513   C637    1.383   .     S
C514   H526    1.083   .     S
C514   C516    1.401   .     A
C517   N532    1.367   .     A
C517   H527    1.082   .     S
C518   N531    1.367   .     A
C518   H528    1.082   .     S
C518   C898    1.416   .     S
C519   N531    1.367   .     A
C519   H529    1.082   .     S
C519   C895    1.416   .     S
C520   N532    1.367   .     A
C520   H530    1.082   .     S
Cu521  O540    1.981   .     S
Cu521  O533    1.965   .     S
Cu521  Cu522   2.676   .     S
Cu521  O537    1.979   .     S
Cu521  N531    2.011   .     S
Cu521  O536    1.965   .     S
Cu522  O534    1.965   .     S
Cu522  O539    1.981   .     S
Cu522  O538    1.979   .     S
Cu522  N532    2.011   .     S
Cu522  O535    1.965   .     S
N541   H543    1.046   .     S
N541   C551    1.440   .     S
N541   H584    1.046   .     S
H542   N625    1.046   1_455 S
N544   H546    1.046   .     S
N544   C594    1.440   1_455 S
N544   H629    1.046   1_455 S
H545   N586    1.046   .     S
C547   O575    1.291   .     A
C547   C558    1.450   .     S
C547   O577    1.291   .     A
C548   O576    1.291   .     A
C548   C557    1.450   .     S
C548   O578    1.291   .     A
C549   O581    1.291   .     A
C549   O579    1.283   .     A
C549   C551    1.443   .     S
C550   O582    1.291   .     A
C550   O580    1.283   .     A
C550   C552    1.443   .     S
C552   C593    1.359   .     S
C552   N628    1.440   .     S
C553   C558    1.401   .     A
C553   H565    1.083   .     S
C554   H566    1.083   .     S
C554   C557    1.401   .     A
C554   C682    1.383   .     S
C555   C557    1.401   .     A
C555   H567    1.083   .     S
C555   C679    1.383   .     S
C556   H568    1.083   .     S
C556   C558    1.401   .     A
C559   N574    1.367   .     A
C559   H569    1.082   .     S
C560   N573    1.367   .     A
C560   H570    1.082   .     S
C560   C940    1.416   .     S
C561   N573    1.367   .     A
C561   H571    1.082   .     S
C561   C937    1.416   .     S
C562   N574    1.367   .     A
C562   H572    1.082   .     S
Cu563  O582    1.981   .     S
Cu563  O575    1.965   .     S
Cu563  Cu564   2.676   .     S
Cu563  O579    1.979   .     S
Cu563  N573    2.011   .     S
Cu563  O578    1.965   .     S
Cu564  O576    1.965   .     S
Cu564  O581    1.981   .     S
Cu564  O580    1.979   .     S
Cu564  N574    2.011   .     S
Cu564  O577    1.965   .     S
N583   H585    1.046   .     S
N583   C593    1.440   .     S
N583   H626    1.046   .     S
N586   H588    1.046   .     S
H587   N628    1.046   .     S
C589   O617    1.291   .     A
C589   C600    1.450   .     S
C589   O619    1.291   .     A
C590   O618    1.291   .     A
C590   C599    1.450   .     S
C590   O620    1.291   .     A
C591   O623    1.291   .     A
C591   O621    1.283   .     A
C591   C593    1.443   .     S
C592   O624    1.291   .     A
C592   O622    1.283   .     A
C592   C594    1.443   .     S
C594   C509    1.359   1_655 S
C594   N544    1.440   1_655 S
C595   C600    1.401   .     A
C595   H607    1.083   .     S
C596   H608    1.083   .     S
C596   C599    1.401   .     A
C596   C724    1.383   .     S
C597   C599    1.401   .     A
C597   H609    1.083   .     S
C597   C721    1.383   .     S
C598   H610    1.083   .     S
C598   C600    1.401   .     A
C601   N616    1.367   .     A
C601   H611    1.082   .     S
C602   N615    1.367   .     A
C602   H612    1.082   .     S
C602   C982    1.416   .     S
C603   N615    1.367   .     A
C603   H613    1.082   .     S
C603   C979    1.416   .     S
C604   N616    1.367   .     A
C604   H614    1.082   .     S
Cu605  O624    1.981   .     S
Cu605  O617    1.965   .     S
Cu605  Cu606   2.676   .     S
Cu605  O621    1.979   .     S
Cu605  N615    2.011   .     S
Cu605  O620    1.965   .     S
Cu606  O618    1.965   .     S
Cu606  O623    1.981   .     S
Cu606  O622    1.979   .     S
Cu606  N616    2.011   .     S
Cu606  O619    1.965   .     S
N625   H627    1.046   .     S
N625   C509    1.440   1_655 S
N625   H542    1.046   1_655 S
N628   H630    1.046   .     S
H629   N544    1.046   1_655 S
C631   O659    1.291   .     A
C631   C642    1.450   .     S
C631   O661    1.291   .     A
C632   O660    1.291   .     A
C632   C641    1.450   .     S
C632   O662    1.291   .     A
C633   O665    1.291   .     A
C633   O663    1.283   .     A
C633   C635    1.443   .     S
C634   O666    1.291   .     A
C634   O664    1.283   .     A
C634   C636    1.443   .     S
C635   C720    1.359   1_455 S
C635   N751    1.440   1_455 S
C636   C677    1.359   .     S
C636   N712    1.440   .     S
C637   C642    1.401   .     A
C637   H649    1.083   .     S
C638   H650    1.083   .     S
C638   C641    1.401   .     A
C638   C388    1.383   1_565 S
C639   C641    1.401   .     A
C639   H651    1.083   .     S
C639   C385    1.383   1_565 S
C640   H652    1.083   .     S
C640   C642    1.401   .     A
C643   N658    1.367   .     A
C643   H653    1.082   .     S
C644   N657    1.367   .     A
C644   H654    1.082   .     S
C644   C1024   1.416   .     S
C645   N657    1.367   .     A
C645   H655    1.082   .     S
C645   C1021   1.416   .     S
C646   N658    1.367   .     A
C646   H656    1.082   .     S
Cu647  O666    1.981   .     S
Cu647  O659    1.965   .     S
Cu647  Cu648   2.676   .     S
Cu647  O663    1.979   .     S
Cu647  N657    2.011   .     S
Cu647  O662    1.965   .     S
Cu648  O660    1.965   .     S
Cu648  O665    1.981   .     S
Cu648  O664    1.979   .     S
Cu648  N658    2.011   .     S
Cu648  O661    1.965   .     S
N667   H669    1.046   .     S
N667   C677    1.440   .     S
N667   H710    1.046   .     S
H668   N751    1.046   1_455 S
N670   H672    1.046   .     S
N670   C720    1.440   1_455 S
N670   H755    1.046   1_455 S
H671   N712    1.046   .     S
C673   O701    1.291   .     A
C673   C684    1.450   .     S
C673   O703    1.291   .     A
C674   O702    1.291   .     A
C674   C683    1.450   .     S
C674   O704    1.291   .     A
C675   O707    1.291   .     A
C675   O705    1.283   .     A
C675   C677    1.443   .     S
C676   O708    1.291   .     A
C676   O706    1.283   .     A
C676   C678    1.443   .     S
C678   C719    1.359   .     S
C678   N754    1.440   .     S
C679   C684    1.401   .     A
C679   H691    1.083   .     S
C680   H692    1.083   .     S
C680   C683    1.401   .     A
C680   C430    1.383   1_565 S
C681   C683    1.401   .     A
C681   H693    1.083   .     S
C681   C427    1.383   1_565 S
C682   H694    1.083   .     S
C682   C684    1.401   .     A
C685   N700    1.367   .     A
C685   H695    1.082   .     S
C686   N699    1.367   .     A
C686   H696    1.082   .     S
C686   C1066   1.416   .     S
C687   N699    1.367   .     A
C687   H697    1.082   .     S
C687   C1063   1.416   .     S
C688   N700    1.367   .     A
C688   H698    1.082   .     S
Cu689  O708    1.981   .     S
Cu689  O701    1.965   .     S
Cu689  Cu690   2.676   .     S
Cu689  O705    1.979   .     S
Cu689  N699    2.011   .     S
Cu689  O704    1.965   .     S
Cu690  O702    1.965   .     S
Cu690  O707    1.981   .     S
Cu690  O706    1.979   .     S
Cu690  N700    2.011   .     S
Cu690  O703    1.965   .     S
N709   H711    1.046   .     S
N709   C719    1.440   .     S
N709   H752    1.046   .     S
N712   H714    1.046   .     S
H713   N754    1.046   .     S
C715   O743    1.291   .     A
C715   C726    1.450   .     S
C715   O745    1.291   .     A
C716   O744    1.291   .     A
C716   C725    1.450   .     S
C716   O746    1.291   .     A
C717   O749    1.291   .     A
C717   O747    1.283   .     A
C717   C719    1.443   .     S
C718   O750    1.291   .     A
C718   O748    1.283   .     A
C718   C720    1.443   .     S
C720   C635    1.359   1_655 S
C720   N670    1.440   1_655 S
C721   C726    1.401   .     A
C721   H733    1.083   .     S
C722   H734    1.083   .     S
C722   C725    1.401   .     A
C722   C472    1.383   1_565 S
C723   C725    1.401   .     A
C723   H735    1.083   .     S
C723   C469    1.383   1_565 S
C724   H736    1.083   .     S
C724   C726    1.401   .     A
C727   N742    1.367   .     A
C727   H737    1.082   .     S
C728   N741    1.367   .     A
C728   H738    1.082   .     S
C728   C1108   1.416   .     S
C729   N741    1.367   .     A
C729   H739    1.082   .     S
C729   C1105   1.416   .     S
C730   N742    1.367   .     A
C730   H740    1.082   .     S
Cu731  O750    1.981   .     S
Cu731  O743    1.965   .     S
Cu731  Cu732   2.676   .     S
Cu731  O747    1.979   .     S
Cu731  N741    2.011   .     S
Cu731  O746    1.965   .     S
Cu732  O744    1.965   .     S
Cu732  O749    1.981   .     S
Cu732  O748    1.979   .     S
Cu732  N742    2.011   .     S
Cu732  O745    1.965   .     S
N751   H753    1.046   .     S
N751   C635    1.440   1_655 S
N751   H668    1.046   1_655 S
N754   H756    1.046   .     S
H755   N670    1.046   1_655 S
C757   O785    1.291   .     A
C757   C768    1.450   .     S
C757   O787    1.291   .     A
C758   O786    1.291   .     A
C758   C767    1.450   .     S
C758   O788    1.291   .     A
C759   O791    1.291   .     A
C759   O789    1.283   .     A
C759   C761    1.443   .     S
C760   O792    1.291   .     A
C760   O790    1.283   .     A
C760   C762    1.443   .     S
C761   C846    1.359   1_455 S
C761   N877    1.440   1_455 S
C762   C803    1.359   .     S
C762   N838    1.440   .     S
C763   C768    1.401   .     A
C763   H775    1.083   .     S
C763   C1017   1.383   1_545 S
C764   H776    1.083   .     S
C764   C767    1.401   .     A
C764   C892    1.383   .     S
C765   C767    1.401   .     A
C765   H777    1.083   .     S
C765   C889    1.383   .     S
C766   H778    1.083   .     S
C766   C768    1.401   .     A
C766   C1016   1.383   1_545 S
C769   N784    1.367   .     A
C769   H779    1.082   .     S
C770   N783    1.367   .     A
C770   H780    1.082   .     S
C770   C16     1.416   1_556 S
C771   N783    1.367   .     A
C771   H781    1.082   .     S
C771   C13     1.416   1_556 S
C772   N784    1.367   .     A
C772   H782    1.082   .     S
Cu773  O792    1.981   .     S
Cu773  O785    1.965   .     S
Cu773  Cu774   2.676   .     S
Cu773  O789    1.979   .     S
Cu773  N783    2.011   .     S
Cu773  O788    1.965   .     S
Cu774  O786    1.965   .     S
Cu774  O791    1.981   .     S
Cu774  O790    1.979   .     S
Cu774  N784    2.011   .     S
Cu774  O787    1.965   .     S
N793   H795    1.046   .     S
N793   C803    1.440   .     S
N793   H836    1.046   .     S
H794   N877    1.046   1_455 S
N796   H798    1.046   .     S
N796   C846    1.440   1_455 S
N796   H881    1.046   1_455 S
H797   N838    1.046   .     S
C799   O827    1.291   .     A
C799   C810    1.450   .     S
C799   O829    1.291   .     A
C800   O828    1.291   .     A
C800   C809    1.450   .     S
C800   O830    1.291   .     A
C801   O833    1.291   .     A
C801   O831    1.283   .     A
C801   C803    1.443   .     S
C802   O834    1.291   .     A
C802   O832    1.283   .     A
C802   C804    1.443   .     S
C804   C845    1.359   .     S
C804   N880    1.440   .     S
C805   C810    1.401   .     A
C805   H817    1.083   .     S
C805   C1059   1.383   1_545 S
C806   H818    1.083   .     S
C806   C809    1.401   .     A
C806   C934    1.383   .     S
C807   C809    1.401   .     A
C807   H819    1.083   .     S
C807   C931    1.383   .     S
C808   H820    1.083   .     S
C808   C810    1.401   .     A
C808   C1058   1.383   1_545 S
C811   N826    1.367   .     A
C811   H821    1.082   .     S
C812   N825    1.367   .     A
C812   H822    1.082   .     S
C812   C58     1.416   1_556 S
C813   N825    1.367   .     A
C813   H823    1.082   .     S
C813   C55     1.416   1_556 S
C814   N826    1.367   .     A
C814   H824    1.082   .     S
Cu815  O834    1.981   .     S
Cu815  O827    1.965   .     S
Cu815  Cu816   2.676   .     S
Cu815  O831    1.979   .     S
Cu815  N825    2.011   .     S
Cu815  O830    1.965   .     S
Cu816  O828    1.965   .     S
Cu816  O833    1.981   .     S
Cu816  O832    1.979   .     S
Cu816  N826    2.011   .     S
Cu816  O829    1.965   .     S
N835   H837    1.046   .     S
N835   C845    1.440   .     S
N835   H878    1.046   .     S
N838   H840    1.046   .     S
H839   N880    1.046   .     S
C841   O869    1.291   .     A
C841   C852    1.450   .     S
C841   O871    1.291   .     A
C842   O870    1.291   .     A
C842   C851    1.450   .     S
C842   O872    1.291   .     A
C843   O875    1.291   .     A
C843   O873    1.283   .     A
C843   C845    1.443   .     S
C844   O876    1.291   .     A
C844   O874    1.283   .     A
C844   C846    1.443   .     S
C846   C761    1.359   1_655 S
C846   N796    1.440   1_655 S
C847   C852    1.401   .     A
C847   H859    1.083   .     S
C847   C1101   1.383   1_545 S
C848   H860    1.083   .     S
C848   C851    1.401   .     A
C848   C976    1.383   .     S
C849   C851    1.401   .     A
C849   H861    1.083   .     S
C849   C973    1.383   .     S
C850   H862    1.083   .     S
C850   C852    1.401   .     A
C850   C1100   1.383   1_545 S
C853   N868    1.367   .     A
C853   H863    1.082   .     S
C854   N867    1.367   .     A
C854   H864    1.082   .     S
C854   C100    1.416   1_556 S
C855   N867    1.367   .     A
C855   H865    1.082   .     S
C855   C97     1.416   1_556 S
C856   N868    1.367   .     A
C856   H866    1.082   .     S
Cu857  O876    1.981   .     S
Cu857  O869    1.965   .     S
Cu857  Cu858   2.676   .     S
Cu857  O873    1.979   .     S
Cu857  N867    2.011   .     S
Cu857  O872    1.965   .     S
Cu858  O870    1.965   .     S
Cu858  O875    1.981   .     S
Cu858  O874    1.979   .     S
Cu858  N868    2.011   .     S
Cu858  O871    1.965   .     S
N877   H879    1.046   .     S
N877   C761    1.440   1_655 S
N877   H794    1.046   1_655 S
N880   H882    1.046   .     S
H881   N796    1.046   1_655 S
C883   O911    1.291   .     A
C883   C894    1.450   .     S
C883   O913    1.291   .     A
C884   O912    1.291   .     A
C884   C893    1.450   .     S
C884   O914    1.291   .     A
C885   O917    1.291   .     A
C885   O915    1.283   .     A
C885   C887    1.443   .     S
C886   O918    1.291   .     A
C886   O916    1.283   .     A
C886   C888    1.443   .     S
C887   C972    1.359   1_455 S
C887   N1003   1.440   1_455 S
C888   C929    1.359   .     S
C888   N964    1.440   .     S
C889   C894    1.401   .     A
C889   H901    1.083   .     S
C890   H902    1.083   .     S
C890   C893    1.401   .     A
C890   C1018   1.383   .     S
C891   C893    1.401   .     A
C891   H903    1.083   .     S
C891   C1015   1.383   .     S
C892   H904    1.083   .     S
C892   C894    1.401   .     A
C895   N910    1.367   .     A
C895   H905    1.082   .     S
C896   N909    1.367   .     A
C896   H906    1.082   .     S
C896   C142    1.416   1_556 S
C897   N909    1.367   .     A
C897   H907    1.082   .     S
C897   C139    1.416   1_556 S
C898   N910    1.367   .     A
C898   H908    1.082   .     S
Cu899  O918    1.981   .     S
Cu899  O911    1.965   .     S
Cu899  Cu900   2.676   .     S
Cu899  O915    1.979   .     S
Cu899  N909    2.011   .     S
Cu899  O914    1.965   .     S
Cu900  O912    1.965   .     S
Cu900  O917    1.981   .     S
Cu900  O916    1.979   .     S
Cu900  N910    2.011   .     S
Cu900  O913    1.965   .     S
N919   H921    1.046   .     S
N919   C929    1.440   .     S
N919   H962    1.046   .     S
H920   N1003   1.046   1_455 S
N922   H924    1.046   .     S
N922   C972    1.440   1_455 S
N922   H1007   1.046   1_455 S
H923   N964    1.046   .     S
C925   O953    1.291   .     A
C925   C936    1.450   .     S
C925   O955    1.291   .     A
C926   O954    1.291   .     A
C926   C935    1.450   .     S
C926   O956    1.291   .     A
C927   O959    1.291   .     A
C927   O957    1.283   .     A
C927   C929    1.443   .     S
C928   O960    1.291   .     A
C928   O958    1.283   .     A
C928   C930    1.443   .     S
C930   C971    1.359   .     S
C930   N1006   1.440   .     S
C931   C936    1.401   .     A
C931   H943    1.083   .     S
C932   H944    1.083   .     S
C932   C935    1.401   .     A
C932   C1060   1.383   .     S
C933   C935    1.401   .     A
C933   H945    1.083   .     S
C933   C1057   1.383   .     S
C934   H946    1.083   .     S
C934   C936    1.401   .     A
C937   N952    1.367   .     A
C937   H947    1.082   .     S
C938   N951    1.367   .     A
C938   H948    1.082   .     S
C938   C184    1.416   1_556 S
C939   N951    1.367   .     A
C939   H949    1.082   .     S
C939   C181    1.416   1_556 S
C940   N952    1.367   .     A
C940   H950    1.082   .     S
Cu941  O960    1.981   .     S
Cu941  O953    1.965   .     S
Cu941  Cu942   2.676   .     S
Cu941  O957    1.979   .     S
Cu941  N951    2.011   .     S
Cu941  O956    1.965   .     S
Cu942  O954    1.965   .     S
Cu942  O959    1.981   .     S
Cu942  O958    1.979   .     S
Cu942  N952    2.011   .     S
Cu942  O955    1.965   .     S
N961   H963    1.046   .     S
N961   C971    1.440   .     S
N961   H1004   1.046   .     S
N964   H966    1.046   .     S
H965   N1006   1.046   .     S
C967   O995    1.291   .     A
C967   C978    1.450   .     S
C967   O997    1.291   .     A
C968   O996    1.291   .     A
C968   C977    1.450   .     S
C968   O998    1.291   .     A
C969   O1001   1.291   .     A
C969   O999    1.283   .     A
C969   C971    1.443   .     S
C970   O1002   1.291   .     A
C970   O1000   1.283   .     A
C970   C972    1.443   .     S
C972   C887    1.359   1_655 S
C972   N922    1.440   1_655 S
C973   C978    1.401   .     A
C973   H985    1.083   .     S
C974   H986    1.083   .     S
C974   C977    1.401   .     A
C974   C1102   1.383   .     S
C975   C977    1.401   .     A
C975   H987    1.083   .     S
C975   C1099   1.383   .     S
C976   H988    1.083   .     S
C976   C978    1.401   .     A
C979   N994    1.367   .     A
C979   H989    1.082   .     S
C980   N993    1.367   .     A
C980   H990    1.082   .     S
C980   C226    1.416   1_556 S
C981   N993    1.367   .     A
C981   H991    1.082   .     S
C981   C223    1.416   1_556 S
C982   N994    1.367   .     A
C982   H992    1.082   .     S
Cu983  O1002   1.981   .     S
Cu983  O995    1.965   .     S
Cu983  Cu984   2.676   .     S
Cu983  O999    1.979   .     S
Cu983  N993    2.011   .     S
Cu983  O998    1.965   .     S
Cu984  O996    1.965   .     S
Cu984  O1001   1.981   .     S
Cu984  O1000   1.979   .     S
Cu984  N994    2.011   .     S
Cu984  O997    1.965   .     S
N1003  H1005   1.046   .     S
N1003  C887    1.440   1_655 S
N1003  H920    1.046   1_655 S
N1006  H1008   1.046   .     S
H1007  N922    1.046   1_655 S
C1009  O1037   1.291   .     A
C1009  C1020   1.450   .     S
C1009  O1039   1.291   .     A
C1010  O1038   1.291   .     A
C1010  C1019   1.450   .     S
C1010  O1040   1.291   .     A
C1011  O1043   1.291   .     A
C1011  O1041   1.283   .     A
C1011  C1013   1.443   .     S
C1012  O1044   1.291   .     A
C1012  O1042   1.283   .     A
C1012  C1014   1.443   .     S
C1013  C1098   1.359   1_455 S
C1013  N1129   1.440   1_455 S
C1014  C1055   1.359   .     S
C1014  N1090   1.440   .     S
C1015  C1020   1.401   .     A
C1015  H1027   1.083   .     S
C1016  H1028   1.083   .     S
C1016  C1019   1.401   .     A
C1016  C766    1.383   1_565 S
C1017  C1019   1.401   .     A
C1017  H1029   1.083   .     S
C1017  C763    1.383   1_565 S
C1018  H1030   1.083   .     S
C1018  C1020   1.401   .     A
C1021  N1036   1.367   .     A
C1021  H1031   1.082   .     S
C1022  N1035   1.367   .     A
C1022  H1032   1.082   .     S
C1022  C268    1.416   1_556 S
C1023  N1035   1.367   .     A
C1023  H1033   1.082   .     S
C1023  C265    1.416   1_556 S
C1024  N1036   1.367   .     A
C1024  H1034   1.082   .     S
Cu1025 O1044   1.981   .     S
Cu1025 O1037   1.965   .     S
Cu1025 Cu1026  2.676   .     S
Cu1025 O1041   1.979   .     S
Cu1025 N1035   2.011   .     S
Cu1025 O1040   1.965   .     S
Cu1026 O1038   1.965   .     S
Cu1026 O1043   1.981   .     S
Cu1026 O1042   1.979   .     S
Cu1026 N1036   2.011   .     S
Cu1026 O1039   1.965   .     S
N1045  H1047   1.046   .     S
N1045  C1055   1.440   .     S
N1045  H1088   1.046   .     S
H1046  N1129   1.046   1_455 S
N1048  H1050   1.046   .     S
N1048  C1098   1.440   1_455 S
N1048  H1133   1.046   1_455 S
H1049  N1090   1.046   .     S
C1051  O1079   1.291   .     A
C1051  C1062   1.450   .     S
C1051  O1081   1.291   .     A
C1052  O1080   1.291   .     A
C1052  C1061   1.450   .     S
C1052  O1082   1.291   .     A
C1053  O1085   1.291   .     A
C1053  O1083   1.283   .     A
C1053  C1055   1.443   .     S
C1054  O1086   1.291   .     A
C1054  O1084   1.283   .     A
C1054  C1056   1.443   .     S
C1056  C1097   1.359   .     S
C1056  N1132   1.440   .     S
C1057  C1062   1.401   .     A
C1057  H1069   1.083   .     S
C1058  H1070   1.083   .     S
C1058  C1061   1.401   .     A
C1058  C808    1.383   1_565 S
C1059  C1061   1.401   .     A
C1059  H1071   1.083   .     S
C1059  C805    1.383   1_565 S
C1060  H1072   1.083   .     S
C1060  C1062   1.401   .     A
C1063  N1078   1.367   .     A
C1063  H1073   1.082   .     S
C1064  N1077   1.367   .     A
C1064  H1074   1.082   .     S
C1064  C310    1.416   1_556 S
C1065  N1077   1.367   .     A
C1065  H1075   1.082   .     S
C1065  C307    1.416   1_556 S
C1066  N1078   1.367   .     A
C1066  H1076   1.082   .     S
Cu1067 O1086   1.981   .     S
Cu1067 O1079   1.965   .     S
Cu1067 Cu1068  2.676   .     S
Cu1067 O1083   1.979   .     S
Cu1067 N1077   2.011   .     S
Cu1067 O1082   1.965   .     S
Cu1068 O1080   1.965   .     S
Cu1068 O1085   1.981   .     S
Cu1068 O1084   1.979   .     S
Cu1068 N1078   2.011   .     S
Cu1068 O1081   1.965   .     S
N1087  H1089   1.046   .     S
N1087  C1097   1.440   .     S
N1087  H1130   1.046   .     S
N1090  H1092   1.046   .     S
H1091  N1132   1.046   .     S
C1093  O1121   1.291   .     A
C1093  C1104   1.450   .     S
C1093  O1123   1.291   .     A
C1094  O1122   1.291   .     A
C1094  C1103   1.450   .     S
C1094  O1124   1.291   .     A
C1095  O1127   1.291   .     A
C1095  O1125   1.283   .     A
C1095  C1097   1.443   .     S
C1096  O1128   1.291   .     A
C1096  O1126   1.283   .     A
C1096  C1098   1.443   .     S
C1098  C1013   1.359   1_655 S
C1098  N1048   1.440   1_655 S
C1099  C1104   1.401   .     A
C1099  H1111   1.083   .     S
C1100  H1112   1.083   .     S
C1100  C1103   1.401   .     A
C1100  C850    1.383   1_565 S
C1101  C1103   1.401   .     A
C1101  H1113   1.083   .     S
C1101  C847    1.383   1_565 S
C1102  H1114   1.083   .     S
C1102  C1104   1.401   .     A
C1105  N1120   1.367   .     A
C1105  H1115   1.082   .     S
C1106  N1119   1.367   .     A
C1106  H1116   1.082   .     S
C1106  C352    1.416   1_556 S
C1107  N1119   1.367   .     A
C1107  H1117   1.082   .     S
C1107  C349    1.416   1_556 S
C1108  N1120   1.367   .     A
C1108  H1118   1.082   .     S
Cu1109 O1128   1.981   .     S
Cu1109 O1121   1.965   .     S
Cu1109 Cu1110  2.676   .     S
Cu1109 O1125   1.979   .     S
Cu1109 N1119   2.011   .     S
Cu1109 O1124   1.965   .     S
Cu1110 O1122   1.965   .     S
Cu1110 O1127   1.981   .     S
Cu1110 O1126   1.979   .     S
Cu1110 N1120   2.011   .     S
Cu1110 O1123   1.965   .     S
N1129  H1131   1.046   .     S
N1129  C1013   1.440   1_655 S
N1129  H1046   1.046   1_655 S
N1132  H1134   1.046   .     S
H1133  N1048   1.046   1_655 S
