data_str_m1_o10_o18_pcu_sym.225
_audit_creation_date              2020-01-03
_audit_creation_method            'Materials Studio'
_symmetry_space_group_name_H-M    'P1'
_symmetry_Int_Tables_number       1
_symmetry_cell_setting            triclinic
loop_
_symmetry_equiv_pos_as_xyz
  x,y,z
_cell_length_a                    32.5546
_cell_length_b                    32.4459
_cell_length_c                    35.6976
_cell_angle_alpha                 97.9338
_cell_angle_beta                  72.7035
_cell_angle_gamma                 98.4790
loop_
_atom_site_label
_atom_site_type_symbol
_atom_site_fract_x
_atom_site_fract_y
_atom_site_fract_z
_atom_site_U_iso_or_equiv
_atom_site_adp_type
_atom_site_occupancy
C1     C     0.05235   0.15997   0.25924   0.00000  Uiso   1.00
C2     C     0.19215   0.12123   0.46025   0.00000  Uiso   1.00
C3     C     0.22082   0.11200   0.47915   0.00000  Uiso   1.00
C4     C     0.28139   0.17233   0.24002   0.00000  Uiso   1.00
C5     C     0.21453   0.12306   0.01949   0.00000  Uiso   1.00
C6     C     0.17618   0.14076   0.04203   0.00000  Uiso   1.00
C7     C     0.24562   0.11548   0.03750   0.00000  Uiso   1.00
C8     C     0.23731   0.12509   0.07862   0.00000  Uiso   1.00
C9     C     0.16711   0.14515   0.08338   0.00000  Uiso   1.00
C10    C     0.32805   0.16997   0.23283   0.00000  Uiso   1.00
C11    C     0.00714   0.16028   0.26272   0.00000  Uiso   1.00
C12    C     0.09460   0.21016   0.42143   0.00000  Uiso   1.00
C13    C     0.18095   0.32226   0.23798   0.00000  Uiso   1.00
C14    C     0.15164   0.01213   0.26232   0.00000  Uiso   1.00
C15    C     0.15590   0.05616   0.25900   0.00000  Uiso   1.00
C16    C     0.17691   0.27774   0.24131   0.00000  Uiso   1.00
C17    C     0.18824   0.14556   0.14395   0.00000  Uiso   1.00
C18    C     0.14514   0.18747   0.35628   0.00000  Uiso   1.00
C19    C     0.13173   0.19143   0.39968   0.00000  Uiso   1.00
C20    C     0.19748   0.13770   0.10129   0.00000  Uiso   1.00
C21    C     0.08056   0.21029   0.46233   0.00000  Uiso   1.00
C22    C     0.30485   0.07773   0.02993   0.00000  Uiso   1.00
C23    C     0.15446   0.17292   0.41932   0.00000  Uiso   1.00
C24    C     0.01143   0.10241   0.03994   0.00000  Uiso   1.00
C25    C     0.03310   0.07597   0.05905   0.00000  Uiso   1.00
C26    C     0.02334   0.20368   0.17497   0.00000  Uiso   1.00
C27    C     0.00600   0.18742   0.13951   0.00000  Uiso   1.00
C28    C     0.33229   0.22330   0.11948   0.00000  Uiso   1.00
C29    C     0.16124   0.07105   0.42177   0.00000  Uiso   1.00
C30    C     0.17106   0.02940   0.43108   0.00000  Uiso   1.00
C31    C     0.13563   0.32739   0.42705   0.00000  Uiso   1.00
C32    C     0.13899   0.16961   0.46016   0.00000  Uiso   1.00
C33    C     0.10268   0.19056   0.48184   0.00000  Uiso   1.00
C34    C     0.16027   0.14852   0.48030   0.00000  Uiso   1.00
C35    C     0.14939   0.15482   0.02226   0.00000  Uiso   1.00
C36    C     0.11331   0.17658   0.04276   0.00000  Uiso   1.00
C37    C     0.08970   0.19288   0.02281   0.00000  Uiso   1.00
H38    H     0.06219   0.20914   0.03964   0.00000  Uiso   1.00
H39    H     0.18504   0.16249   0.40220   0.00000  Uiso   1.00
H40    H     0.10277   0.18235   0.07437   0.00000  Uiso   1.00
H41    H     0.31593   0.05157   0.00721   0.00000  Uiso   1.00
H42    H     0.28243   0.06249   0.05567   0.00000  Uiso   1.00
H43    H     0.03509   0.11276   0.01242   0.00000  Uiso   1.00
H44    H     0.00213   0.13078   0.06023   0.00000  Uiso   1.00
H45    H     0.01032   0.06597   0.08708   0.00000  Uiso   1.00
H46    H     0.06198   0.09472   0.06565   0.00000  Uiso   1.00
H47    H     0.04365   0.04788   0.03881   0.00000  Uiso   1.00
H48    H     0.05720   0.21814   0.16353   0.00000  Uiso   1.00
H49    H     0.31820   0.15982   0.29223   0.00000  Uiso   1.00
H50    H     0.00552   0.22939   0.19390   0.00000  Uiso   1.00
H51    H     0.02946   0.16797   0.11792   0.00000  Uiso   1.00
H52    H     0.30826   0.16711   0.14885   0.00000  Uiso   1.00
H53    H     0.30760   0.24212   0.14025   0.00000  Uiso   1.00
H54    H     0.32057   0.21042   0.09354   0.00000  Uiso   1.00
H55    H     0.02977   0.24382   0.10939   0.00000  Uiso   1.00
H56    H     0.15733   0.06681   0.39155   0.00000  Uiso   1.00
H57    H     0.12968   0.07970   0.44204   0.00000  Uiso   1.00
H58    H     0.20250   0.02119   0.41057   0.00000  Uiso   1.00
H59    H     0.17362   0.03257   0.46173   0.00000  Uiso   1.00
H60    H     0.20796   0.00292   0.21557   0.00000  Uiso   1.00
H61    H     0.10396   0.00138   0.44769   0.00000  Uiso   1.00
H62    H     0.14361   0.29784   0.43422   0.00000  Uiso   1.00
H63    H     0.13307   0.32271   0.39636   0.00000  Uiso   1.00
H64    H     0.12431   0.33226   0.28488   0.00000  Uiso   1.00
H65    H     0.13722   0.15529   0.10263   0.00000  Uiso   1.00
H66    H     0.26120   0.12230   0.09343   0.00000  Uiso   1.00
H67    H     0.24719   0.09432   0.46210   0.00000  Uiso   1.00
H68    H     0.05238   0.22584   0.47874   0.00000  Uiso   1.00
H69    H     0.07641   0.22462   0.40688   0.00000  Uiso   1.00
O70    O     0.16667   0.16667   0.25000   0.00000  Uiso   1.00
O71    O     0.15693   0.12393   0.16625   0.00000  Uiso   1.00
O72    O     0.12687   0.20646   0.33749   0.00000  Uiso   1.00
O73    O     0.21088   0.17493   0.15877   0.00000  Uiso   1.00
O74    O     0.17198   0.16135   0.33749   0.00000  Uiso   1.00
O75    O     0.28524   0.10373   0.01313   0.00000  Uiso   1.00
O76    O     0.02445   0.16970   0.19541   0.00000  Uiso   1.00
O77    O     0.19620   0.10266   0.42218   0.00000  Uiso   1.00
O78    O     0.17849   0.08101   0.27821   0.00000  Uiso   1.00
O79    O     0.14581   0.26136   0.26767   0.00000  Uiso   1.00
O80    O     0.07452   0.13251   0.23607   0.00000  Uiso   1.00
O81    O     0.26785   0.19179   0.21806   0.00000  Uiso   1.00
O82    O     0.06990   0.18960   0.27820   0.00000  Uiso   1.00
O83    O     0.25440   0.15277   0.26768   0.00000  Uiso   1.00
O84    O     0.13800   0.06903   0.23607   0.00000  Uiso   1.00
O85    O     0.20437   0.25527   0.21806   0.00000  Uiso   1.00
Zn86   Zn    0.19244   0.14090   0.28278   0.00000  Uiso   1.00
Zn87   Zn    0.13459   0.12378   0.22258   0.00000  Uiso   1.00
Zn88   Zn    0.21166   0.19664   0.21188   0.00000  Uiso   1.00
Zn89   Zn    0.12798   0.20535   0.28277   0.00000  Uiso   1.00
C90    C     0.38569   0.15997   0.25924   0.00000  Uiso   1.00
C91    C     0.52548   0.12123   0.46025   0.00000  Uiso   1.00
C92    C     0.55416   0.11200   0.47915   0.00000  Uiso   1.00
C93    C     0.61473   0.17233   0.24002   0.00000  Uiso   1.00
C94    C     0.54787   0.12306   0.01949   0.00000  Uiso   1.00
C95    C     0.50951   0.14076   0.04203   0.00000  Uiso   1.00
C96    C     0.57895   0.11548   0.03750   0.00000  Uiso   1.00
C97    C     0.57065   0.12509   0.07862   0.00000  Uiso   1.00
C98    C     0.50044   0.14515   0.08338   0.00000  Uiso   1.00
C99    C     0.66139   0.16997   0.23283   0.00000  Uiso   1.00
C100   C     0.34047   0.16028   0.26272   0.00000  Uiso   1.00
C101   C     0.42793   0.21016   0.42143   0.00000  Uiso   1.00
C102   C     0.51428   0.32226   0.23798   0.00000  Uiso   1.00
C103   C     0.48497   0.01213   0.26232   0.00000  Uiso   1.00
C104   C     0.48924   0.05616   0.25900   0.00000  Uiso   1.00
C105   C     0.51024   0.27774   0.24131   0.00000  Uiso   1.00
C106   C     0.52158   0.14556   0.14395   0.00000  Uiso   1.00
C107   C     0.47847   0.18747   0.35628   0.00000  Uiso   1.00
C108   C     0.46506   0.19143   0.39968   0.00000  Uiso   1.00
C109   C     0.53082   0.13770   0.10129   0.00000  Uiso   1.00
C110   C     0.41389   0.21029   0.46233   0.00000  Uiso   1.00
C111   C     0.63819   0.07773   0.02993   0.00000  Uiso   1.00
C112   C     0.48779   0.17292   0.41932   0.00000  Uiso   1.00
C113   C     0.34477   0.10241   0.03994   0.00000  Uiso   1.00
C114   C     0.36643   0.07597   0.05905   0.00000  Uiso   1.00
C115   C     0.35667   0.20368   0.17497   0.00000  Uiso   1.00
C116   C     0.33933   0.18742   0.13951   0.00000  Uiso   1.00
C117   C     0.66562   0.22330   0.11948   0.00000  Uiso   1.00
C118   C     0.49458   0.07105   0.42177   0.00000  Uiso   1.00
C119   C     0.50439   0.02940   0.43108   0.00000  Uiso   1.00
C120   C     0.46896   0.32739   0.42705   0.00000  Uiso   1.00
C121   C     0.47232   0.16961   0.46016   0.00000  Uiso   1.00
C122   C     0.43602   0.19056   0.48184   0.00000  Uiso   1.00
C123   C     0.49361   0.14852   0.48030   0.00000  Uiso   1.00
C124   C     0.48272   0.15482   0.02226   0.00000  Uiso   1.00
C125   C     0.44665   0.17658   0.04276   0.00000  Uiso   1.00
C126   C     0.42303   0.19288   0.02281   0.00000  Uiso   1.00
H127   H     0.39553   0.20914   0.03964   0.00000  Uiso   1.00
H128   H     0.51837   0.16249   0.40220   0.00000  Uiso   1.00
H129   H     0.43611   0.18235   0.07437   0.00000  Uiso   1.00
H130   H     0.64926   0.05157   0.00721   0.00000  Uiso   1.00
H131   H     0.61576   0.06249   0.05567   0.00000  Uiso   1.00
H132   H     0.36842   0.11276   0.01242   0.00000  Uiso   1.00
H133   H     0.33546   0.13078   0.06023   0.00000  Uiso   1.00
H134   H     0.34366   0.06597   0.08708   0.00000  Uiso   1.00
H135   H     0.39531   0.09472   0.06565   0.00000  Uiso   1.00
H136   H     0.37699   0.04788   0.03881   0.00000  Uiso   1.00
H137   H     0.39054   0.21814   0.16353   0.00000  Uiso   1.00
H138   H     0.65153   0.15982   0.29223   0.00000  Uiso   1.00
H139   H     0.33886   0.22939   0.19390   0.00000  Uiso   1.00
H140   H     0.36279   0.16797   0.11792   0.00000  Uiso   1.00
H141   H     0.64159   0.16711   0.14885   0.00000  Uiso   1.00
H142   H     0.64094   0.24212   0.14025   0.00000  Uiso   1.00
H143   H     0.65390   0.21042   0.09354   0.00000  Uiso   1.00
H144   H     0.36310   0.24382   0.10939   0.00000  Uiso   1.00
H145   H     0.49066   0.06681   0.39155   0.00000  Uiso   1.00
H146   H     0.46301   0.07970   0.44204   0.00000  Uiso   1.00
H147   H     0.53583   0.02119   0.41057   0.00000  Uiso   1.00
H148   H     0.50695   0.03257   0.46173   0.00000  Uiso   1.00
H149   H     0.54130   0.00292   0.21557   0.00000  Uiso   1.00
H150   H     0.43730   0.00138   0.44769   0.00000  Uiso   1.00
H151   H     0.47695   0.29784   0.43422   0.00000  Uiso   1.00
H152   H     0.46640   0.32271   0.39636   0.00000  Uiso   1.00
H153   H     0.45764   0.33226   0.28488   0.00000  Uiso   1.00
H154   H     0.47056   0.15529   0.10263   0.00000  Uiso   1.00
H155   H     0.59453   0.12230   0.09343   0.00000  Uiso   1.00
H156   H     0.58053   0.09432   0.46210   0.00000  Uiso   1.00
H157   H     0.38571   0.22584   0.47874   0.00000  Uiso   1.00
H158   H     0.40974   0.22462   0.40688   0.00000  Uiso   1.00
O159   O     0.50000   0.16667   0.25000   0.00000  Uiso   1.00
O160   O     0.49027   0.12393   0.16625   0.00000  Uiso   1.00
O161   O     0.46020   0.20646   0.33749   0.00000  Uiso   1.00
O162   O     0.54421   0.17493   0.15877   0.00000  Uiso   1.00
O163   O     0.50532   0.16135   0.33749   0.00000  Uiso   1.00
O164   O     0.61857   0.10373   0.01313   0.00000  Uiso   1.00
O165   O     0.35779   0.16970   0.19541   0.00000  Uiso   1.00
O166   O     0.52953   0.10266   0.42218   0.00000  Uiso   1.00
O167   O     0.51182   0.08101   0.27821   0.00000  Uiso   1.00
O168   O     0.47914   0.26136   0.26767   0.00000  Uiso   1.00
O169   O     0.40785   0.13251   0.23607   0.00000  Uiso   1.00
O170   O     0.60119   0.19179   0.21806   0.00000  Uiso   1.00
O171   O     0.40323   0.18960   0.27820   0.00000  Uiso   1.00
O172   O     0.58773   0.15277   0.26768   0.00000  Uiso   1.00
O173   O     0.47133   0.06903   0.23607   0.00000  Uiso   1.00
O174   O     0.53771   0.25527   0.21806   0.00000  Uiso   1.00
Zn175  Zn    0.52577   0.14090   0.28278   0.00000  Uiso   1.00
Zn176  Zn    0.46792   0.12378   0.22258   0.00000  Uiso   1.00
Zn177  Zn    0.54500   0.19664   0.21188   0.00000  Uiso   1.00
Zn178  Zn    0.46131   0.20535   0.28277   0.00000  Uiso   1.00
C179   C     0.71902   0.15997   0.25924   0.00000  Uiso   1.00
C180   C     0.85882   0.12123   0.46025   0.00000  Uiso   1.00
C181   C     0.88749   0.11200   0.47915   0.00000  Uiso   1.00
C182   C     0.94806   0.17233   0.24002   0.00000  Uiso   1.00
C183   C     0.88120   0.12306   0.01949   0.00000  Uiso   1.00
C184   C     0.84285   0.14076   0.04203   0.00000  Uiso   1.00
C185   C     0.91229   0.11548   0.03750   0.00000  Uiso   1.00
C186   C     0.90398   0.12509   0.07862   0.00000  Uiso   1.00
C187   C     0.83377   0.14515   0.08338   0.00000  Uiso   1.00
C188   C     0.99472   0.16997   0.23283   0.00000  Uiso   1.00
C189   C     0.67380   0.16028   0.26272   0.00000  Uiso   1.00
C190   C     0.76126   0.21016   0.42143   0.00000  Uiso   1.00
C191   C     0.84761   0.32226   0.23798   0.00000  Uiso   1.00
C192   C     0.81830   0.01213   0.26232   0.00000  Uiso   1.00
C193   C     0.82257   0.05616   0.25900   0.00000  Uiso   1.00
C194   C     0.84358   0.27774   0.24131   0.00000  Uiso   1.00
C195   C     0.85491   0.14556   0.14395   0.00000  Uiso   1.00
C196   C     0.81181   0.18747   0.35628   0.00000  Uiso   1.00
C197   C     0.79839   0.19143   0.39968   0.00000  Uiso   1.00
C198   C     0.86415   0.13770   0.10129   0.00000  Uiso   1.00
C199   C     0.74722   0.21029   0.46233   0.00000  Uiso   1.00
C200   C     0.97152   0.07773   0.02993   0.00000  Uiso   1.00
C201   C     0.82113   0.17292   0.41932   0.00000  Uiso   1.00
C202   C     0.67810   0.10241   0.03994   0.00000  Uiso   1.00
C203   C     0.69977   0.07597   0.05905   0.00000  Uiso   1.00
C204   C     0.69001   0.20368   0.17497   0.00000  Uiso   1.00
C205   C     0.67266   0.18742   0.13951   0.00000  Uiso   1.00
C206   C     0.99895   0.22330   0.11948   0.00000  Uiso   1.00
C207   C     0.82791   0.07105   0.42177   0.00000  Uiso   1.00
C208   C     0.83773   0.02940   0.43108   0.00000  Uiso   1.00
C209   C     0.80230   0.32739   0.42705   0.00000  Uiso   1.00
C210   C     0.80566   0.16961   0.46016   0.00000  Uiso   1.00
C211   C     0.76935   0.19056   0.48184   0.00000  Uiso   1.00
C212   C     0.82694   0.14852   0.48030   0.00000  Uiso   1.00
C213   C     0.81605   0.15482   0.02226   0.00000  Uiso   1.00
C214   C     0.77998   0.17658   0.04276   0.00000  Uiso   1.00
C215   C     0.75636   0.19288   0.02281   0.00000  Uiso   1.00
H216   H     0.72886   0.20914   0.03964   0.00000  Uiso   1.00
H217   H     0.85170   0.16249   0.40220   0.00000  Uiso   1.00
H218   H     0.76944   0.18235   0.07437   0.00000  Uiso   1.00
H219   H     0.98259   0.05157   0.00721   0.00000  Uiso   1.00
H220   H     0.94909   0.06249   0.05567   0.00000  Uiso   1.00
H221   H     0.70175   0.11276   0.01242   0.00000  Uiso   1.00
H222   H     0.66879   0.13078   0.06023   0.00000  Uiso   1.00
H223   H     0.67699   0.06597   0.08708   0.00000  Uiso   1.00
H224   H     0.72865   0.09472   0.06565   0.00000  Uiso   1.00
H225   H     0.71032   0.04788   0.03881   0.00000  Uiso   1.00
H226   H     0.72387   0.21814   0.16353   0.00000  Uiso   1.00
H227   H     0.98486   0.15982   0.29223   0.00000  Uiso   1.00
H228   H     0.67219   0.22939   0.19390   0.00000  Uiso   1.00
H229   H     0.69612   0.16797   0.11792   0.00000  Uiso   1.00
H230   H     0.97492   0.16711   0.14885   0.00000  Uiso   1.00
H231   H     0.97427   0.24212   0.14025   0.00000  Uiso   1.00
H232   H     0.98724   0.21042   0.09354   0.00000  Uiso   1.00
H233   H     0.69643   0.24382   0.10939   0.00000  Uiso   1.00
H234   H     0.82399   0.06681   0.39155   0.00000  Uiso   1.00
H235   H     0.79634   0.07970   0.44204   0.00000  Uiso   1.00
H236   H     0.86916   0.02119   0.41057   0.00000  Uiso   1.00
H237   H     0.84028   0.03257   0.46173   0.00000  Uiso   1.00
H238   H     0.87463   0.00292   0.21557   0.00000  Uiso   1.00
H239   H     0.77063   0.00138   0.44769   0.00000  Uiso   1.00
H240   H     0.81028   0.29784   0.43422   0.00000  Uiso   1.00
H241   H     0.79973   0.32271   0.39636   0.00000  Uiso   1.00
H242   H     0.79097   0.33226   0.28488   0.00000  Uiso   1.00
H243   H     0.80389   0.15529   0.10263   0.00000  Uiso   1.00
H244   H     0.92786   0.12230   0.09343   0.00000  Uiso   1.00
H245   H     0.91386   0.09432   0.46210   0.00000  Uiso   1.00
H246   H     0.71905   0.22584   0.47874   0.00000  Uiso   1.00
H247   H     0.74307   0.22462   0.40688   0.00000  Uiso   1.00
O248   O     0.83333   0.16667   0.25000   0.00000  Uiso   1.00
O249   O     0.82360   0.12393   0.16625   0.00000  Uiso   1.00
O250   O     0.79354   0.20646   0.33749   0.00000  Uiso   1.00
O251   O     0.87755   0.17493   0.15877   0.00000  Uiso   1.00
O252   O     0.83865   0.16135   0.33749   0.00000  Uiso   1.00
O253   O     0.95191   0.10373   0.01313   0.00000  Uiso   1.00
O254   O     0.69112   0.16970   0.19541   0.00000  Uiso   1.00
O255   O     0.86287   0.10266   0.42218   0.00000  Uiso   1.00
O256   O     0.84515   0.08101   0.27821   0.00000  Uiso   1.00
O257   O     0.81247   0.26136   0.26767   0.00000  Uiso   1.00
O258   O     0.74119   0.13251   0.23607   0.00000  Uiso   1.00
O259   O     0.93452   0.19179   0.21806   0.00000  Uiso   1.00
O260   O     0.73656   0.18960   0.27820   0.00000  Uiso   1.00
O261   O     0.92106   0.15277   0.26768   0.00000  Uiso   1.00
O262   O     0.80467   0.06903   0.23607   0.00000  Uiso   1.00
O263   O     0.87104   0.25527   0.21806   0.00000  Uiso   1.00
Zn264  Zn    0.85910   0.14090   0.28278   0.00000  Uiso   1.00
Zn265  Zn    0.80125   0.12378   0.22258   0.00000  Uiso   1.00
Zn266  Zn    0.87833   0.19664   0.21188   0.00000  Uiso   1.00
Zn267  Zn    0.79465   0.20535   0.28277   0.00000  Uiso   1.00
C268   C     0.05235   0.49331   0.25924   0.00000  Uiso   1.00
C269   C     0.19215   0.45456   0.46025   0.00000  Uiso   1.00
C270   C     0.22082   0.44533   0.47915   0.00000  Uiso   1.00
C271   C     0.28139   0.50566   0.24002   0.00000  Uiso   1.00
C272   C     0.21453   0.45640   0.01949   0.00000  Uiso   1.00
C273   C     0.17618   0.47409   0.04203   0.00000  Uiso   1.00
C274   C     0.24562   0.44881   0.03750   0.00000  Uiso   1.00
C275   C     0.23731   0.45843   0.07862   0.00000  Uiso   1.00
C276   C     0.16711   0.47848   0.08338   0.00000  Uiso   1.00
C277   C     0.32805   0.50330   0.23283   0.00000  Uiso   1.00
C278   C     0.00714   0.49361   0.26272   0.00000  Uiso   1.00
C279   C     0.09460   0.54349   0.42143   0.00000  Uiso   1.00
C280   C     0.18095   0.65559   0.23798   0.00000  Uiso   1.00
C281   C     0.15164   0.34546   0.26232   0.00000  Uiso   1.00
C282   C     0.15590   0.38949   0.25900   0.00000  Uiso   1.00
C283   C     0.17691   0.61107   0.24131   0.00000  Uiso   1.00
C284   C     0.18824   0.47890   0.14395   0.00000  Uiso   1.00
C285   C     0.14514   0.52081   0.35628   0.00000  Uiso   1.00
C286   C     0.13173   0.52477   0.39968   0.00000  Uiso   1.00
C287   C     0.19748   0.47103   0.10129   0.00000  Uiso   1.00
C288   C     0.08056   0.54362   0.46233   0.00000  Uiso   1.00
C289   C     0.30485   0.41106   0.02993   0.00000  Uiso   1.00
C290   C     0.15446   0.50626   0.41932   0.00000  Uiso   1.00
C291   C     0.01143   0.43575   0.03994   0.00000  Uiso   1.00
C292   C     0.03310   0.40930   0.05905   0.00000  Uiso   1.00
C293   C     0.02334   0.53701   0.17497   0.00000  Uiso   1.00
C294   C     0.00600   0.52075   0.13951   0.00000  Uiso   1.00
C295   C     0.33229   0.55663   0.11948   0.00000  Uiso   1.00
C296   C     0.16124   0.40438   0.42177   0.00000  Uiso   1.00
C297   C     0.17106   0.36273   0.43108   0.00000  Uiso   1.00
C298   C     0.13563   0.66072   0.42705   0.00000  Uiso   1.00
C299   C     0.13899   0.50294   0.46016   0.00000  Uiso   1.00
C300   C     0.10268   0.52390   0.48184   0.00000  Uiso   1.00
C301   C     0.16027   0.48185   0.48030   0.00000  Uiso   1.00
C302   C     0.14939   0.48816   0.02226   0.00000  Uiso   1.00
C303   C     0.11331   0.50992   0.04276   0.00000  Uiso   1.00
C304   C     0.08970   0.52621   0.02281   0.00000  Uiso   1.00
H305   H     0.06219   0.54247   0.03964   0.00000  Uiso   1.00
H306   H     0.18504   0.49583   0.40220   0.00000  Uiso   1.00
H307   H     0.10277   0.51569   0.07437   0.00000  Uiso   1.00
H308   H     0.31593   0.38490   0.00721   0.00000  Uiso   1.00
H309   H     0.28243   0.39582   0.05567   0.00000  Uiso   1.00
H310   H     0.03509   0.44610   0.01242   0.00000  Uiso   1.00
H311   H     0.00213   0.46411   0.06023   0.00000  Uiso   1.00
H312   H     0.01032   0.39931   0.08708   0.00000  Uiso   1.00
H313   H     0.06198   0.42805   0.06565   0.00000  Uiso   1.00
H314   H     0.04365   0.38121   0.03881   0.00000  Uiso   1.00
H315   H     0.05720   0.55148   0.16353   0.00000  Uiso   1.00
H316   H     0.31820   0.49316   0.29223   0.00000  Uiso   1.00
H317   H     0.00552   0.56272   0.19390   0.00000  Uiso   1.00
H318   H     0.02946   0.50130   0.11792   0.00000  Uiso   1.00
H319   H     0.30826   0.50045   0.14885   0.00000  Uiso   1.00
H320   H     0.30760   0.57546   0.14025   0.00000  Uiso   1.00
H321   H     0.32057   0.54375   0.09354   0.00000  Uiso   1.00
H322   H     0.02977   0.57715   0.10939   0.00000  Uiso   1.00
H323   H     0.15733   0.40015   0.39155   0.00000  Uiso   1.00
H324   H     0.12968   0.41303   0.44204   0.00000  Uiso   1.00
H325   H     0.20250   0.35452   0.41057   0.00000  Uiso   1.00
H326   H     0.17362   0.36591   0.46173   0.00000  Uiso   1.00
H327   H     0.20796   0.33625   0.21557   0.00000  Uiso   1.00
H328   H     0.10396   0.33471   0.44769   0.00000  Uiso   1.00
H329   H     0.14361   0.63117   0.43422   0.00000  Uiso   1.00
H330   H     0.13307   0.65605   0.39636   0.00000  Uiso   1.00
H331   H     0.12431   0.66559   0.28488   0.00000  Uiso   1.00
H332   H     0.13722   0.48863   0.10263   0.00000  Uiso   1.00
H333   H     0.26120   0.45564   0.09343   0.00000  Uiso   1.00
H334   H     0.24719   0.42765   0.46210   0.00000  Uiso   1.00
H335   H     0.05238   0.55918   0.47874   0.00000  Uiso   1.00
H336   H     0.07641   0.55795   0.40688   0.00000  Uiso   1.00
O337   O     0.16667   0.50000   0.25000   0.00000  Uiso   1.00
O338   O     0.15693   0.45726   0.16625   0.00000  Uiso   1.00
O339   O     0.12687   0.53979   0.33749   0.00000  Uiso   1.00
O340   O     0.21088   0.50826   0.15877   0.00000  Uiso   1.00
O341   O     0.17198   0.49468   0.33749   0.00000  Uiso   1.00
O342   O     0.28524   0.43706   0.01313   0.00000  Uiso   1.00
O343   O     0.02445   0.50304   0.19541   0.00000  Uiso   1.00
O344   O     0.19620   0.43599   0.42218   0.00000  Uiso   1.00
O345   O     0.17849   0.41434   0.27821   0.00000  Uiso   1.00
O346   O     0.14581   0.59469   0.26767   0.00000  Uiso   1.00
O347   O     0.07452   0.46584   0.23607   0.00000  Uiso   1.00
O348   O     0.26785   0.52512   0.21806   0.00000  Uiso   1.00
O349   O     0.06990   0.52293   0.27820   0.00000  Uiso   1.00
O350   O     0.25440   0.48610   0.26768   0.00000  Uiso   1.00
O351   O     0.13800   0.40236   0.23607   0.00000  Uiso   1.00
O352   O     0.20437   0.58860   0.21806   0.00000  Uiso   1.00
Zn353  Zn    0.19244   0.47423   0.28278   0.00000  Uiso   1.00
Zn354  Zn    0.13459   0.45711   0.22258   0.00000  Uiso   1.00
Zn355  Zn    0.21166   0.52997   0.21188   0.00000  Uiso   1.00
Zn356  Zn    0.12798   0.53868   0.28277   0.00000  Uiso   1.00
C357   C     0.38569   0.49331   0.25924   0.00000  Uiso   1.00
C358   C     0.52548   0.45456   0.46025   0.00000  Uiso   1.00
C359   C     0.55416   0.44533   0.47915   0.00000  Uiso   1.00
C360   C     0.61473   0.50566   0.24002   0.00000  Uiso   1.00
C361   C     0.54787   0.45640   0.01949   0.00000  Uiso   1.00
C362   C     0.50951   0.47409   0.04203   0.00000  Uiso   1.00
C363   C     0.57895   0.44881   0.03750   0.00000  Uiso   1.00
C364   C     0.57065   0.45843   0.07862   0.00000  Uiso   1.00
C365   C     0.50044   0.47848   0.08338   0.00000  Uiso   1.00
C366   C     0.66139   0.50330   0.23283   0.00000  Uiso   1.00
C367   C     0.34047   0.49361   0.26272   0.00000  Uiso   1.00
C368   C     0.42793   0.54349   0.42143   0.00000  Uiso   1.00
C369   C     0.51428   0.65559   0.23798   0.00000  Uiso   1.00
C370   C     0.48497   0.34546   0.26232   0.00000  Uiso   1.00
C371   C     0.48924   0.38949   0.25900   0.00000  Uiso   1.00
C372   C     0.51024   0.61107   0.24131   0.00000  Uiso   1.00
C373   C     0.52158   0.47890   0.14395   0.00000  Uiso   1.00
C374   C     0.47847   0.52081   0.35628   0.00000  Uiso   1.00
C375   C     0.46506   0.52477   0.39968   0.00000  Uiso   1.00
C376   C     0.53082   0.47103   0.10129   0.00000  Uiso   1.00
C377   C     0.41389   0.54362   0.46233   0.00000  Uiso   1.00
C378   C     0.63819   0.41106   0.02993   0.00000  Uiso   1.00
C379   C     0.48779   0.50626   0.41932   0.00000  Uiso   1.00
C380   C     0.34477   0.43575   0.03994   0.00000  Uiso   1.00
C381   C     0.36643   0.40930   0.05905   0.00000  Uiso   1.00
C382   C     0.35667   0.53701   0.17497   0.00000  Uiso   1.00
C383   C     0.33933   0.52075   0.13951   0.00000  Uiso   1.00
C384   C     0.66562   0.55663   0.11948   0.00000  Uiso   1.00
C385   C     0.49458   0.40438   0.42177   0.00000  Uiso   1.00
C386   C     0.50439   0.36273   0.43108   0.00000  Uiso   1.00
C387   C     0.46896   0.66072   0.42705   0.00000  Uiso   1.00
C388   C     0.47232   0.50294   0.46016   0.00000  Uiso   1.00
C389   C     0.43602   0.52390   0.48184   0.00000  Uiso   1.00
C390   C     0.49361   0.48185   0.48030   0.00000  Uiso   1.00
C391   C     0.48272   0.48816   0.02226   0.00000  Uiso   1.00
C392   C     0.44665   0.50992   0.04276   0.00000  Uiso   1.00
C393   C     0.42303   0.52621   0.02281   0.00000  Uiso   1.00
H394   H     0.39553   0.54247   0.03964   0.00000  Uiso   1.00
H395   H     0.51837   0.49583   0.40220   0.00000  Uiso   1.00
H396   H     0.43611   0.51569   0.07437   0.00000  Uiso   1.00
H397   H     0.64926   0.38490   0.00721   0.00000  Uiso   1.00
H398   H     0.61576   0.39582   0.05567   0.00000  Uiso   1.00
H399   H     0.36842   0.44610   0.01242   0.00000  Uiso   1.00
H400   H     0.33546   0.46411   0.06023   0.00000  Uiso   1.00
H401   H     0.34366   0.39931   0.08708   0.00000  Uiso   1.00
H402   H     0.39531   0.42805   0.06565   0.00000  Uiso   1.00
H403   H     0.37699   0.38121   0.03881   0.00000  Uiso   1.00
H404   H     0.39054   0.55148   0.16353   0.00000  Uiso   1.00
H405   H     0.65153   0.49316   0.29223   0.00000  Uiso   1.00
H406   H     0.33886   0.56272   0.19390   0.00000  Uiso   1.00
H407   H     0.36279   0.50130   0.11792   0.00000  Uiso   1.00
H408   H     0.64159   0.50045   0.14885   0.00000  Uiso   1.00
H409   H     0.64094   0.57546   0.14025   0.00000  Uiso   1.00
H410   H     0.65390   0.54375   0.09354   0.00000  Uiso   1.00
H411   H     0.36310   0.57715   0.10939   0.00000  Uiso   1.00
H412   H     0.49066   0.40015   0.39155   0.00000  Uiso   1.00
H413   H     0.46301   0.41303   0.44204   0.00000  Uiso   1.00
H414   H     0.53583   0.35452   0.41057   0.00000  Uiso   1.00
H415   H     0.50695   0.36591   0.46173   0.00000  Uiso   1.00
H416   H     0.54130   0.33625   0.21557   0.00000  Uiso   1.00
H417   H     0.43730   0.33471   0.44769   0.00000  Uiso   1.00
H418   H     0.47695   0.63117   0.43422   0.00000  Uiso   1.00
H419   H     0.46640   0.65605   0.39636   0.00000  Uiso   1.00
H420   H     0.45764   0.66559   0.28488   0.00000  Uiso   1.00
H421   H     0.47056   0.48863   0.10263   0.00000  Uiso   1.00
H422   H     0.59453   0.45564   0.09343   0.00000  Uiso   1.00
H423   H     0.58053   0.42765   0.46210   0.00000  Uiso   1.00
H424   H     0.38571   0.55918   0.47874   0.00000  Uiso   1.00
H425   H     0.40974   0.55795   0.40688   0.00000  Uiso   1.00
O426   O     0.50000   0.50000   0.25000   0.00000  Uiso   1.00
O427   O     0.49027   0.45726   0.16625   0.00000  Uiso   1.00
O428   O     0.46020   0.53979   0.33749   0.00000  Uiso   1.00
O429   O     0.54421   0.50826   0.15877   0.00000  Uiso   1.00
O430   O     0.50532   0.49468   0.33749   0.00000  Uiso   1.00
O431   O     0.61857   0.43706   0.01313   0.00000  Uiso   1.00
O432   O     0.35779   0.50304   0.19541   0.00000  Uiso   1.00
O433   O     0.52953   0.43599   0.42218   0.00000  Uiso   1.00
O434   O     0.51182   0.41434   0.27821   0.00000  Uiso   1.00
O435   O     0.47914   0.59469   0.26767   0.00000  Uiso   1.00
O436   O     0.40785   0.46584   0.23607   0.00000  Uiso   1.00
O437   O     0.60119   0.52512   0.21806   0.00000  Uiso   1.00
O438   O     0.40323   0.52293   0.27820   0.00000  Uiso   1.00
O439   O     0.58773   0.48610   0.26768   0.00000  Uiso   1.00
O440   O     0.47133   0.40236   0.23607   0.00000  Uiso   1.00
O441   O     0.53771   0.58860   0.21806   0.00000  Uiso   1.00
Zn442  Zn    0.52577   0.47423   0.28278   0.00000  Uiso   1.00
Zn443  Zn    0.46792   0.45711   0.22258   0.00000  Uiso   1.00
Zn444  Zn    0.54500   0.52997   0.21188   0.00000  Uiso   1.00
Zn445  Zn    0.46131   0.53868   0.28277   0.00000  Uiso   1.00
C446   C     0.71902   0.49331   0.25924   0.00000  Uiso   1.00
C447   C     0.85882   0.45456   0.46025   0.00000  Uiso   1.00
C448   C     0.88749   0.44533   0.47915   0.00000  Uiso   1.00
C449   C     0.94806   0.50566   0.24002   0.00000  Uiso   1.00
C450   C     0.88120   0.45640   0.01949   0.00000  Uiso   1.00
C451   C     0.84285   0.47409   0.04203   0.00000  Uiso   1.00
C452   C     0.91229   0.44881   0.03750   0.00000  Uiso   1.00
C453   C     0.90398   0.45843   0.07862   0.00000  Uiso   1.00
C454   C     0.83377   0.47848   0.08338   0.00000  Uiso   1.00
C455   C     0.99472   0.50330   0.23283   0.00000  Uiso   1.00
C456   C     0.67380   0.49361   0.26272   0.00000  Uiso   1.00
C457   C     0.76126   0.54349   0.42143   0.00000  Uiso   1.00
C458   C     0.84761   0.65559   0.23798   0.00000  Uiso   1.00
C459   C     0.81830   0.34546   0.26232   0.00000  Uiso   1.00
C460   C     0.82257   0.38949   0.25900   0.00000  Uiso   1.00
C461   C     0.84358   0.61107   0.24131   0.00000  Uiso   1.00
C462   C     0.85491   0.47890   0.14395   0.00000  Uiso   1.00
C463   C     0.81181   0.52081   0.35628   0.00000  Uiso   1.00
C464   C     0.79839   0.52477   0.39968   0.00000  Uiso   1.00
C465   C     0.86415   0.47103   0.10129   0.00000  Uiso   1.00
C466   C     0.74722   0.54362   0.46233   0.00000  Uiso   1.00
C467   C     0.97152   0.41106   0.02993   0.00000  Uiso   1.00
C468   C     0.82113   0.50626   0.41932   0.00000  Uiso   1.00
C469   C     0.67810   0.43575   0.03994   0.00000  Uiso   1.00
C470   C     0.69977   0.40930   0.05905   0.00000  Uiso   1.00
C471   C     0.69001   0.53701   0.17497   0.00000  Uiso   1.00
C472   C     0.67266   0.52075   0.13951   0.00000  Uiso   1.00
C473   C     0.99895   0.55663   0.11948   0.00000  Uiso   1.00
C474   C     0.82791   0.40438   0.42177   0.00000  Uiso   1.00
C475   C     0.83773   0.36273   0.43108   0.00000  Uiso   1.00
C476   C     0.80230   0.66072   0.42705   0.00000  Uiso   1.00
C477   C     0.80566   0.50294   0.46016   0.00000  Uiso   1.00
C478   C     0.76935   0.52390   0.48184   0.00000  Uiso   1.00
C479   C     0.82694   0.48185   0.48030   0.00000  Uiso   1.00
C480   C     0.81605   0.48816   0.02226   0.00000  Uiso   1.00
C481   C     0.77998   0.50992   0.04276   0.00000  Uiso   1.00
C482   C     0.75636   0.52621   0.02281   0.00000  Uiso   1.00
H483   H     0.72886   0.54247   0.03964   0.00000  Uiso   1.00
H484   H     0.85170   0.49583   0.40220   0.00000  Uiso   1.00
H485   H     0.76944   0.51569   0.07437   0.00000  Uiso   1.00
H486   H     0.98259   0.38490   0.00721   0.00000  Uiso   1.00
H487   H     0.94909   0.39582   0.05567   0.00000  Uiso   1.00
H488   H     0.70175   0.44610   0.01242   0.00000  Uiso   1.00
H489   H     0.66879   0.46411   0.06023   0.00000  Uiso   1.00
H490   H     0.67699   0.39931   0.08708   0.00000  Uiso   1.00
H491   H     0.72865   0.42805   0.06565   0.00000  Uiso   1.00
H492   H     0.71032   0.38121   0.03881   0.00000  Uiso   1.00
H493   H     0.72387   0.55148   0.16353   0.00000  Uiso   1.00
H494   H     0.98486   0.49316   0.29223   0.00000  Uiso   1.00
H495   H     0.67219   0.56272   0.19390   0.00000  Uiso   1.00
H496   H     0.69612   0.50130   0.11792   0.00000  Uiso   1.00
H497   H     0.97492   0.50045   0.14885   0.00000  Uiso   1.00
H498   H     0.97427   0.57546   0.14025   0.00000  Uiso   1.00
H499   H     0.98724   0.54375   0.09354   0.00000  Uiso   1.00
H500   H     0.69643   0.57715   0.10939   0.00000  Uiso   1.00
H501   H     0.82399   0.40015   0.39155   0.00000  Uiso   1.00
H502   H     0.79634   0.41303   0.44204   0.00000  Uiso   1.00
H503   H     0.86916   0.35452   0.41057   0.00000  Uiso   1.00
H504   H     0.84028   0.36591   0.46173   0.00000  Uiso   1.00
H505   H     0.87463   0.33625   0.21557   0.00000  Uiso   1.00
H506   H     0.77063   0.33471   0.44769   0.00000  Uiso   1.00
H507   H     0.81028   0.63117   0.43422   0.00000  Uiso   1.00
H508   H     0.79973   0.65605   0.39636   0.00000  Uiso   1.00
H509   H     0.79097   0.66559   0.28488   0.00000  Uiso   1.00
H510   H     0.80389   0.48863   0.10263   0.00000  Uiso   1.00
H511   H     0.92786   0.45564   0.09343   0.00000  Uiso   1.00
H512   H     0.91386   0.42765   0.46210   0.00000  Uiso   1.00
H513   H     0.71905   0.55918   0.47874   0.00000  Uiso   1.00
H514   H     0.74307   0.55795   0.40688   0.00000  Uiso   1.00
O515   O     0.83333   0.50000   0.25000   0.00000  Uiso   1.00
O516   O     0.82360   0.45726   0.16625   0.00000  Uiso   1.00
O517   O     0.79354   0.53979   0.33749   0.00000  Uiso   1.00
O518   O     0.87755   0.50826   0.15877   0.00000  Uiso   1.00
O519   O     0.83865   0.49468   0.33749   0.00000  Uiso   1.00
O520   O     0.95191   0.43706   0.01313   0.00000  Uiso   1.00
O521   O     0.69112   0.50304   0.19541   0.00000  Uiso   1.00
O522   O     0.86287   0.43599   0.42218   0.00000  Uiso   1.00
O523   O     0.84515   0.41434   0.27821   0.00000  Uiso   1.00
O524   O     0.81247   0.59469   0.26767   0.00000  Uiso   1.00
O525   O     0.74119   0.46584   0.23607   0.00000  Uiso   1.00
O526   O     0.93452   0.52512   0.21806   0.00000  Uiso   1.00
O527   O     0.73656   0.52293   0.27820   0.00000  Uiso   1.00
O528   O     0.92106   0.48610   0.26768   0.00000  Uiso   1.00
O529   O     0.80467   0.40236   0.23607   0.00000  Uiso   1.00
O530   O     0.87104   0.58860   0.21806   0.00000  Uiso   1.00
Zn531  Zn    0.85910   0.47423   0.28278   0.00000  Uiso   1.00
Zn532  Zn    0.80125   0.45711   0.22258   0.00000  Uiso   1.00
Zn533  Zn    0.87833   0.52997   0.21188   0.00000  Uiso   1.00
Zn534  Zn    0.79465   0.53868   0.28277   0.00000  Uiso   1.00
C535   C     0.05235   0.82664   0.25924   0.00000  Uiso   1.00
C536   C     0.19215   0.78790   0.46025   0.00000  Uiso   1.00
C537   C     0.22082   0.77866   0.47915   0.00000  Uiso   1.00
C538   C     0.28139   0.83900   0.24002   0.00000  Uiso   1.00
C539   C     0.21453   0.78973   0.01949   0.00000  Uiso   1.00
C540   C     0.17618   0.80743   0.04203   0.00000  Uiso   1.00
C541   C     0.24562   0.78215   0.03750   0.00000  Uiso   1.00
C542   C     0.23731   0.79176   0.07862   0.00000  Uiso   1.00
C543   C     0.16711   0.81182   0.08338   0.00000  Uiso   1.00
C544   C     0.32805   0.83663   0.23283   0.00000  Uiso   1.00
C545   C     0.00714   0.82694   0.26272   0.00000  Uiso   1.00
C546   C     0.09460   0.87683   0.42143   0.00000  Uiso   1.00
C547   C     0.18095   0.98892   0.23798   0.00000  Uiso   1.00
C548   C     0.15164   0.67879   0.26232   0.00000  Uiso   1.00
C549   C     0.15590   0.72283   0.25900   0.00000  Uiso   1.00
C550   C     0.17691   0.94441   0.24131   0.00000  Uiso   1.00
C551   C     0.18824   0.81223   0.14395   0.00000  Uiso   1.00
C552   C     0.14514   0.85414   0.35628   0.00000  Uiso   1.00
C553   C     0.13173   0.85810   0.39968   0.00000  Uiso   1.00
C554   C     0.19748   0.80437   0.10129   0.00000  Uiso   1.00
C555   C     0.08056   0.87695   0.46233   0.00000  Uiso   1.00
C556   C     0.30485   0.74439   0.02993   0.00000  Uiso   1.00
C557   C     0.15446   0.83959   0.41932   0.00000  Uiso   1.00
C558   C     0.01143   0.76908   0.03994   0.00000  Uiso   1.00
C559   C     0.03310   0.74263   0.05905   0.00000  Uiso   1.00
C560   C     0.02334   0.87035   0.17497   0.00000  Uiso   1.00
C561   C     0.00600   0.85409   0.13951   0.00000  Uiso   1.00
C562   C     0.33229   0.88997   0.11948   0.00000  Uiso   1.00
C563   C     0.16124   0.73772   0.42177   0.00000  Uiso   1.00
C564   C     0.17106   0.69607   0.43108   0.00000  Uiso   1.00
C565   C     0.13563   0.99406   0.42705   0.00000  Uiso   1.00
C566   C     0.13899   0.83628   0.46016   0.00000  Uiso   1.00
C567   C     0.10268   0.85723   0.48184   0.00000  Uiso   1.00
C568   C     0.16027   0.81519   0.48030   0.00000  Uiso   1.00
C569   C     0.14939   0.82149   0.02226   0.00000  Uiso   1.00
C570   C     0.11331   0.84325   0.04276   0.00000  Uiso   1.00
C571   C     0.08970   0.85954   0.02281   0.00000  Uiso   1.00
H572   H     0.06219   0.87581   0.03964   0.00000  Uiso   1.00
H573   H     0.18504   0.82916   0.40220   0.00000  Uiso   1.00
H574   H     0.10277   0.84902   0.07437   0.00000  Uiso   1.00
H575   H     0.31593   0.71823   0.00721   0.00000  Uiso   1.00
H576   H     0.28243   0.72915   0.05567   0.00000  Uiso   1.00
H577   H     0.03509   0.77943   0.01242   0.00000  Uiso   1.00
H578   H     0.00213   0.79745   0.06023   0.00000  Uiso   1.00
H579   H     0.01032   0.73264   0.08708   0.00000  Uiso   1.00
H580   H     0.06198   0.76139   0.06565   0.00000  Uiso   1.00
H581   H     0.04365   0.71454   0.03881   0.00000  Uiso   1.00
H582   H     0.05720   0.88481   0.16353   0.00000  Uiso   1.00
H583   H     0.31820   0.82649   0.29223   0.00000  Uiso   1.00
H584   H     0.00552   0.89605   0.19390   0.00000  Uiso   1.00
H585   H     0.02946   0.83463   0.11792   0.00000  Uiso   1.00
H586   H     0.30826   0.83378   0.14885   0.00000  Uiso   1.00
H587   H     0.30760   0.90879   0.14025   0.00000  Uiso   1.00
H588   H     0.32057   0.87708   0.09354   0.00000  Uiso   1.00
H589   H     0.02977   0.91049   0.10939   0.00000  Uiso   1.00
H590   H     0.15733   0.73348   0.39155   0.00000  Uiso   1.00
H591   H     0.12968   0.74636   0.44204   0.00000  Uiso   1.00
H592   H     0.20250   0.68785   0.41057   0.00000  Uiso   1.00
H593   H     0.17362   0.69924   0.46173   0.00000  Uiso   1.00
H594   H     0.20796   0.66959   0.21557   0.00000  Uiso   1.00
H595   H     0.10396   0.66804   0.44769   0.00000  Uiso   1.00
H596   H     0.14361   0.96451   0.43422   0.00000  Uiso   1.00
H597   H     0.13307   0.98938   0.39636   0.00000  Uiso   1.00
H598   H     0.12431   0.99892   0.28488   0.00000  Uiso   1.00
H599   H     0.13722   0.82196   0.10263   0.00000  Uiso   1.00
H600   H     0.26120   0.78897   0.09343   0.00000  Uiso   1.00
H601   H     0.24719   0.76098   0.46210   0.00000  Uiso   1.00
H602   H     0.05238   0.89251   0.47874   0.00000  Uiso   1.00
H603   H     0.07641   0.89128   0.40688   0.00000  Uiso   1.00
O604   O     0.16667   0.83333   0.25000   0.00000  Uiso   1.00
O605   O     0.15693   0.79060   0.16625   0.00000  Uiso   1.00
O606   O     0.12687   0.87313   0.33749   0.00000  Uiso   1.00
O607   O     0.21088   0.84159   0.15877   0.00000  Uiso   1.00
O608   O     0.17198   0.82802   0.33749   0.00000  Uiso   1.00
O609   O     0.28524   0.77040   0.01313   0.00000  Uiso   1.00
O610   O     0.02445   0.83637   0.19541   0.00000  Uiso   1.00
O611   O     0.19620   0.76933   0.42218   0.00000  Uiso   1.00
O612   O     0.17849   0.74768   0.27821   0.00000  Uiso   1.00
O613   O     0.14581   0.92803   0.26767   0.00000  Uiso   1.00
O614   O     0.07452   0.79917   0.23607   0.00000  Uiso   1.00
O615   O     0.26785   0.85845   0.21806   0.00000  Uiso   1.00
O616   O     0.06990   0.85627   0.27820   0.00000  Uiso   1.00
O617   O     0.25440   0.81944   0.26768   0.00000  Uiso   1.00
O618   O     0.13800   0.73570   0.23607   0.00000  Uiso   1.00
O619   O     0.20437   0.92193   0.21806   0.00000  Uiso   1.00
Zn620  Zn    0.19244   0.80756   0.28278   0.00000  Uiso   1.00
Zn621  Zn    0.13459   0.79044   0.22258   0.00000  Uiso   1.00
Zn622  Zn    0.21166   0.86331   0.21188   0.00000  Uiso   1.00
Zn623  Zn    0.12798   0.87202   0.28277   0.00000  Uiso   1.00
C624   C     0.38569   0.82664   0.25924   0.00000  Uiso   1.00
C625   C     0.52548   0.78790   0.46025   0.00000  Uiso   1.00
C626   C     0.55416   0.77866   0.47915   0.00000  Uiso   1.00
C627   C     0.61473   0.83900   0.24002   0.00000  Uiso   1.00
C628   C     0.54787   0.78973   0.01949   0.00000  Uiso   1.00
C629   C     0.50951   0.80743   0.04203   0.00000  Uiso   1.00
C630   C     0.57895   0.78215   0.03750   0.00000  Uiso   1.00
C631   C     0.57065   0.79176   0.07862   0.00000  Uiso   1.00
C632   C     0.50044   0.81182   0.08338   0.00000  Uiso   1.00
C633   C     0.66139   0.83663   0.23283   0.00000  Uiso   1.00
C634   C     0.34047   0.82694   0.26272   0.00000  Uiso   1.00
C635   C     0.42793   0.87683   0.42143   0.00000  Uiso   1.00
C636   C     0.51428   0.98892   0.23798   0.00000  Uiso   1.00
C637   C     0.48497   0.67879   0.26232   0.00000  Uiso   1.00
C638   C     0.48924   0.72283   0.25900   0.00000  Uiso   1.00
C639   C     0.51024   0.94441   0.24131   0.00000  Uiso   1.00
C640   C     0.52158   0.81223   0.14395   0.00000  Uiso   1.00
C641   C     0.47847   0.85414   0.35628   0.00000  Uiso   1.00
C642   C     0.46506   0.85810   0.39968   0.00000  Uiso   1.00
C643   C     0.53082   0.80437   0.10129   0.00000  Uiso   1.00
C644   C     0.41389   0.87695   0.46233   0.00000  Uiso   1.00
C645   C     0.63819   0.74439   0.02993   0.00000  Uiso   1.00
C646   C     0.48779   0.83959   0.41932   0.00000  Uiso   1.00
C647   C     0.34477   0.76908   0.03994   0.00000  Uiso   1.00
C648   C     0.36643   0.74263   0.05905   0.00000  Uiso   1.00
C649   C     0.35667   0.87035   0.17497   0.00000  Uiso   1.00
C650   C     0.33933   0.85409   0.13951   0.00000  Uiso   1.00
C651   C     0.66562   0.88997   0.11948   0.00000  Uiso   1.00
C652   C     0.49458   0.73772   0.42177   0.00000  Uiso   1.00
C653   C     0.50439   0.69607   0.43108   0.00000  Uiso   1.00
C654   C     0.46896   0.99406   0.42705   0.00000  Uiso   1.00
C655   C     0.47232   0.83628   0.46016   0.00000  Uiso   1.00
C656   C     0.43602   0.85723   0.48184   0.00000  Uiso   1.00
C657   C     0.49361   0.81519   0.48030   0.00000  Uiso   1.00
C658   C     0.48272   0.82149   0.02226   0.00000  Uiso   1.00
C659   C     0.44665   0.84325   0.04276   0.00000  Uiso   1.00
C660   C     0.42303   0.85954   0.02281   0.00000  Uiso   1.00
H661   H     0.39553   0.87581   0.03964   0.00000  Uiso   1.00
H662   H     0.51837   0.82916   0.40220   0.00000  Uiso   1.00
H663   H     0.43611   0.84902   0.07437   0.00000  Uiso   1.00
H664   H     0.64926   0.71823   0.00721   0.00000  Uiso   1.00
H665   H     0.61576   0.72915   0.05567   0.00000  Uiso   1.00
H666   H     0.36842   0.77943   0.01242   0.00000  Uiso   1.00
H667   H     0.33546   0.79745   0.06023   0.00000  Uiso   1.00
H668   H     0.34366   0.73264   0.08708   0.00000  Uiso   1.00
H669   H     0.39531   0.76139   0.06565   0.00000  Uiso   1.00
H670   H     0.37699   0.71454   0.03881   0.00000  Uiso   1.00
H671   H     0.39054   0.88481   0.16353   0.00000  Uiso   1.00
H672   H     0.65153   0.82649   0.29223   0.00000  Uiso   1.00
H673   H     0.33886   0.89605   0.19390   0.00000  Uiso   1.00
H674   H     0.36279   0.83463   0.11792   0.00000  Uiso   1.00
H675   H     0.64159   0.83378   0.14885   0.00000  Uiso   1.00
H676   H     0.64094   0.90879   0.14025   0.00000  Uiso   1.00
H677   H     0.65390   0.87708   0.09354   0.00000  Uiso   1.00
H678   H     0.36310   0.91049   0.10939   0.00000  Uiso   1.00
H679   H     0.49066   0.73348   0.39155   0.00000  Uiso   1.00
H680   H     0.46301   0.74636   0.44204   0.00000  Uiso   1.00
H681   H     0.53583   0.68785   0.41057   0.00000  Uiso   1.00
H682   H     0.50695   0.69924   0.46173   0.00000  Uiso   1.00
H683   H     0.54130   0.66959   0.21557   0.00000  Uiso   1.00
H684   H     0.43730   0.66804   0.44769   0.00000  Uiso   1.00
H685   H     0.47695   0.96451   0.43422   0.00000  Uiso   1.00
H686   H     0.46640   0.98938   0.39636   0.00000  Uiso   1.00
H687   H     0.45764   0.99892   0.28488   0.00000  Uiso   1.00
H688   H     0.47056   0.82196   0.10263   0.00000  Uiso   1.00
H689   H     0.59453   0.78897   0.09343   0.00000  Uiso   1.00
H690   H     0.58053   0.76098   0.46210   0.00000  Uiso   1.00
H691   H     0.38571   0.89251   0.47874   0.00000  Uiso   1.00
H692   H     0.40974   0.89128   0.40688   0.00000  Uiso   1.00
O693   O     0.50000   0.83333   0.25000   0.00000  Uiso   1.00
O694   O     0.49027   0.79060   0.16625   0.00000  Uiso   1.00
O695   O     0.46020   0.87313   0.33749   0.00000  Uiso   1.00
O696   O     0.54421   0.84159   0.15877   0.00000  Uiso   1.00
O697   O     0.50532   0.82802   0.33749   0.00000  Uiso   1.00
O698   O     0.61857   0.77040   0.01313   0.00000  Uiso   1.00
O699   O     0.35779   0.83637   0.19541   0.00000  Uiso   1.00
O700   O     0.52953   0.76933   0.42218   0.00000  Uiso   1.00
O701   O     0.51182   0.74768   0.27821   0.00000  Uiso   1.00
O702   O     0.47914   0.92803   0.26767   0.00000  Uiso   1.00
O703   O     0.40785   0.79917   0.23607   0.00000  Uiso   1.00
O704   O     0.60119   0.85845   0.21806   0.00000  Uiso   1.00
O705   O     0.40323   0.85627   0.27820   0.00000  Uiso   1.00
O706   O     0.58773   0.81944   0.26768   0.00000  Uiso   1.00
O707   O     0.47133   0.73570   0.23607   0.00000  Uiso   1.00
O708   O     0.53771   0.92193   0.21806   0.00000  Uiso   1.00
Zn709  Zn    0.52577   0.80756   0.28278   0.00000  Uiso   1.00
Zn710  Zn    0.46792   0.79044   0.22258   0.00000  Uiso   1.00
Zn711  Zn    0.54500   0.86331   0.21188   0.00000  Uiso   1.00
Zn712  Zn    0.46131   0.87202   0.28277   0.00000  Uiso   1.00
C713   C     0.71902   0.82664   0.25924   0.00000  Uiso   1.00
C714   C     0.85882   0.78790   0.46025   0.00000  Uiso   1.00
C715   C     0.88749   0.77866   0.47915   0.00000  Uiso   1.00
C716   C     0.94806   0.83900   0.24002   0.00000  Uiso   1.00
C717   C     0.88120   0.78973   0.01949   0.00000  Uiso   1.00
C718   C     0.84285   0.80743   0.04203   0.00000  Uiso   1.00
C719   C     0.91229   0.78215   0.03750   0.00000  Uiso   1.00
C720   C     0.90398   0.79176   0.07862   0.00000  Uiso   1.00
C721   C     0.83377   0.81182   0.08338   0.00000  Uiso   1.00
C722   C     0.99472   0.83663   0.23283   0.00000  Uiso   1.00
C723   C     0.67380   0.82694   0.26272   0.00000  Uiso   1.00
C724   C     0.76126   0.87683   0.42143   0.00000  Uiso   1.00
C725   C     0.84761   0.98892   0.23798   0.00000  Uiso   1.00
C726   C     0.81830   0.67879   0.26232   0.00000  Uiso   1.00
C727   C     0.82257   0.72283   0.25900   0.00000  Uiso   1.00
C728   C     0.84358   0.94441   0.24131   0.00000  Uiso   1.00
C729   C     0.85491   0.81223   0.14395   0.00000  Uiso   1.00
C730   C     0.81181   0.85414   0.35628   0.00000  Uiso   1.00
C731   C     0.79839   0.85810   0.39968   0.00000  Uiso   1.00
C732   C     0.86415   0.80437   0.10129   0.00000  Uiso   1.00
C733   C     0.74722   0.87695   0.46233   0.00000  Uiso   1.00
C734   C     0.97152   0.74439   0.02993   0.00000  Uiso   1.00
C735   C     0.82113   0.83959   0.41932   0.00000  Uiso   1.00
C736   C     0.67810   0.76908   0.03994   0.00000  Uiso   1.00
C737   C     0.69977   0.74263   0.05905   0.00000  Uiso   1.00
C738   C     0.69001   0.87035   0.17497   0.00000  Uiso   1.00
C739   C     0.67266   0.85409   0.13951   0.00000  Uiso   1.00
C740   C     0.99895   0.88997   0.11948   0.00000  Uiso   1.00
C741   C     0.82791   0.73772   0.42177   0.00000  Uiso   1.00
C742   C     0.83773   0.69607   0.43108   0.00000  Uiso   1.00
C743   C     0.80230   0.99406   0.42705   0.00000  Uiso   1.00
C744   C     0.80566   0.83628   0.46016   0.00000  Uiso   1.00
C745   C     0.76935   0.85723   0.48184   0.00000  Uiso   1.00
C746   C     0.82694   0.81519   0.48030   0.00000  Uiso   1.00
C747   C     0.81605   0.82149   0.02226   0.00000  Uiso   1.00
C748   C     0.77998   0.84325   0.04276   0.00000  Uiso   1.00
C749   C     0.75636   0.85954   0.02281   0.00000  Uiso   1.00
H750   H     0.72886   0.87581   0.03964   0.00000  Uiso   1.00
H751   H     0.85170   0.82916   0.40220   0.00000  Uiso   1.00
H752   H     0.76944   0.84902   0.07437   0.00000  Uiso   1.00
H753   H     0.98259   0.71823   0.00721   0.00000  Uiso   1.00
H754   H     0.94909   0.72915   0.05567   0.00000  Uiso   1.00
H755   H     0.70175   0.77943   0.01242   0.00000  Uiso   1.00
H756   H     0.66879   0.79745   0.06023   0.00000  Uiso   1.00
H757   H     0.67699   0.73264   0.08708   0.00000  Uiso   1.00
H758   H     0.72865   0.76139   0.06565   0.00000  Uiso   1.00
H759   H     0.71032   0.71454   0.03881   0.00000  Uiso   1.00
H760   H     0.72387   0.88481   0.16353   0.00000  Uiso   1.00
H761   H     0.98486   0.82649   0.29223   0.00000  Uiso   1.00
H762   H     0.67219   0.89605   0.19390   0.00000  Uiso   1.00
H763   H     0.69612   0.83463   0.11792   0.00000  Uiso   1.00
H764   H     0.97492   0.83378   0.14885   0.00000  Uiso   1.00
H765   H     0.97427   0.90879   0.14025   0.00000  Uiso   1.00
H766   H     0.98724   0.87708   0.09354   0.00000  Uiso   1.00
H767   H     0.69643   0.91049   0.10939   0.00000  Uiso   1.00
H768   H     0.82399   0.73348   0.39155   0.00000  Uiso   1.00
H769   H     0.79634   0.74636   0.44204   0.00000  Uiso   1.00
H770   H     0.86916   0.68785   0.41057   0.00000  Uiso   1.00
H771   H     0.84028   0.69924   0.46173   0.00000  Uiso   1.00
H772   H     0.87463   0.66959   0.21557   0.00000  Uiso   1.00
H773   H     0.77063   0.66804   0.44769   0.00000  Uiso   1.00
H774   H     0.81028   0.96451   0.43422   0.00000  Uiso   1.00
H775   H     0.79973   0.98938   0.39636   0.00000  Uiso   1.00
H776   H     0.79097   0.99892   0.28488   0.00000  Uiso   1.00
H777   H     0.80389   0.82196   0.10263   0.00000  Uiso   1.00
H778   H     0.92786   0.78897   0.09343   0.00000  Uiso   1.00
H779   H     0.91386   0.76098   0.46210   0.00000  Uiso   1.00
H780   H     0.71905   0.89251   0.47874   0.00000  Uiso   1.00
H781   H     0.74307   0.89128   0.40688   0.00000  Uiso   1.00
O782   O     0.83333   0.83333   0.25000   0.00000  Uiso   1.00
O783   O     0.82360   0.79060   0.16625   0.00000  Uiso   1.00
O784   O     0.79354   0.87313   0.33749   0.00000  Uiso   1.00
O785   O     0.87755   0.84159   0.15877   0.00000  Uiso   1.00
O786   O     0.83865   0.82802   0.33749   0.00000  Uiso   1.00
O787   O     0.95191   0.77040   0.01313   0.00000  Uiso   1.00
O788   O     0.69112   0.83637   0.19541   0.00000  Uiso   1.00
O789   O     0.86287   0.76933   0.42218   0.00000  Uiso   1.00
O790   O     0.84515   0.74768   0.27821   0.00000  Uiso   1.00
O791   O     0.81247   0.92803   0.26767   0.00000  Uiso   1.00
O792   O     0.74119   0.79917   0.23607   0.00000  Uiso   1.00
O793   O     0.93452   0.85845   0.21806   0.00000  Uiso   1.00
O794   O     0.73656   0.85627   0.27820   0.00000  Uiso   1.00
O795   O     0.92106   0.81944   0.26768   0.00000  Uiso   1.00
O796   O     0.80467   0.73570   0.23607   0.00000  Uiso   1.00
O797   O     0.87104   0.92193   0.21806   0.00000  Uiso   1.00
Zn798  Zn    0.85910   0.80756   0.28278   0.00000  Uiso   1.00
Zn799  Zn    0.80125   0.79044   0.22258   0.00000  Uiso   1.00
Zn800  Zn    0.87833   0.86331   0.21188   0.00000  Uiso   1.00
Zn801  Zn    0.79465   0.87202   0.28277   0.00000  Uiso   1.00
C802   C     0.05235   0.15997   0.75924   0.00000  Uiso   1.00
C803   C     0.19215   0.12123   0.96025   0.00000  Uiso   1.00
C804   C     0.22082   0.11200   0.97915   0.00000  Uiso   1.00
C805   C     0.28139   0.17233   0.74002   0.00000  Uiso   1.00
C806   C     0.21453   0.12306   0.51949   0.00000  Uiso   1.00
C807   C     0.17618   0.14076   0.54203   0.00000  Uiso   1.00
C808   C     0.24562   0.11548   0.53750   0.00000  Uiso   1.00
C809   C     0.23731   0.12509   0.57862   0.00000  Uiso   1.00
C810   C     0.16711   0.14515   0.58338   0.00000  Uiso   1.00
C811   C     0.32805   0.16997   0.73283   0.00000  Uiso   1.00
C812   C     0.00714   0.16028   0.76272   0.00000  Uiso   1.00
C813   C     0.09460   0.21016   0.92143   0.00000  Uiso   1.00
C814   C     0.18095   0.32226   0.73798   0.00000  Uiso   1.00
C815   C     0.15164   0.01213   0.76232   0.00000  Uiso   1.00
C816   C     0.15590   0.05616   0.75900   0.00000  Uiso   1.00
C817   C     0.17691   0.27774   0.74131   0.00000  Uiso   1.00
C818   C     0.18824   0.14556   0.64395   0.00000  Uiso   1.00
C819   C     0.14514   0.18747   0.85628   0.00000  Uiso   1.00
C820   C     0.13173   0.19143   0.89968   0.00000  Uiso   1.00
C821   C     0.19748   0.13770   0.60129   0.00000  Uiso   1.00
C822   C     0.08056   0.21029   0.96233   0.00000  Uiso   1.00
C823   C     0.30485   0.07773   0.52993   0.00000  Uiso   1.00
C824   C     0.15446   0.17292   0.91932   0.00000  Uiso   1.00
C825   C     0.01143   0.10241   0.53994   0.00000  Uiso   1.00
C826   C     0.03310   0.07597   0.55905   0.00000  Uiso   1.00
C827   C     0.02334   0.20368   0.67497   0.00000  Uiso   1.00
C828   C     0.00600   0.18742   0.63951   0.00000  Uiso   1.00
C829   C     0.33229   0.22330   0.61948   0.00000  Uiso   1.00
C830   C     0.16124   0.07105   0.92177   0.00000  Uiso   1.00
C831   C     0.17106   0.02940   0.93108   0.00000  Uiso   1.00
C832   C     0.13563   0.32739   0.92705   0.00000  Uiso   1.00
C833   C     0.13899   0.16961   0.96016   0.00000  Uiso   1.00
C834   C     0.10268   0.19056   0.98184   0.00000  Uiso   1.00
C835   C     0.16027   0.14852   0.98030   0.00000  Uiso   1.00
C836   C     0.14939   0.15482   0.52226   0.00000  Uiso   1.00
C837   C     0.11331   0.17658   0.54276   0.00000  Uiso   1.00
C838   C     0.08970   0.19288   0.52281   0.00000  Uiso   1.00
H839   H     0.06219   0.20914   0.53964   0.00000  Uiso   1.00
H840   H     0.18504   0.16249   0.90220   0.00000  Uiso   1.00
H841   H     0.10277   0.18235   0.57437   0.00000  Uiso   1.00
H842   H     0.31593   0.05157   0.50721   0.00000  Uiso   1.00
H843   H     0.28243   0.06249   0.55567   0.00000  Uiso   1.00
H844   H     0.03509   0.11276   0.51242   0.00000  Uiso   1.00
H845   H     0.00213   0.13078   0.56023   0.00000  Uiso   1.00
H846   H     0.01032   0.06597   0.58708   0.00000  Uiso   1.00
H847   H     0.06198   0.09472   0.56565   0.00000  Uiso   1.00
H848   H     0.04365   0.04788   0.53881   0.00000  Uiso   1.00
H849   H     0.05720   0.21814   0.66353   0.00000  Uiso   1.00
H850   H     0.31820   0.15982   0.79223   0.00000  Uiso   1.00
H851   H     0.00552   0.22939   0.69390   0.00000  Uiso   1.00
H852   H     0.02946   0.16797   0.61792   0.00000  Uiso   1.00
H853   H     0.30826   0.16711   0.64885   0.00000  Uiso   1.00
H854   H     0.30760   0.24212   0.64025   0.00000  Uiso   1.00
H855   H     0.32057   0.21042   0.59354   0.00000  Uiso   1.00
H856   H     0.02977   0.24382   0.60939   0.00000  Uiso   1.00
H857   H     0.15733   0.06681   0.89155   0.00000  Uiso   1.00
H858   H     0.12968   0.07970   0.94204   0.00000  Uiso   1.00
H859   H     0.20250   0.02119   0.91057   0.00000  Uiso   1.00
H860   H     0.17362   0.03257   0.96173   0.00000  Uiso   1.00
H861   H     0.20796   0.00292   0.71557   0.00000  Uiso   1.00
H862   H     0.10396   0.00138   0.94769   0.00000  Uiso   1.00
H863   H     0.14361   0.29784   0.93422   0.00000  Uiso   1.00
H864   H     0.13307   0.32271   0.89636   0.00000  Uiso   1.00
H865   H     0.12431   0.33226   0.78488   0.00000  Uiso   1.00
H866   H     0.13722   0.15529   0.60263   0.00000  Uiso   1.00
H867   H     0.26120   0.12230   0.59343   0.00000  Uiso   1.00
H868   H     0.24719   0.09432   0.96210   0.00000  Uiso   1.00
H869   H     0.05238   0.22584   0.97874   0.00000  Uiso   1.00
H870   H     0.07641   0.22462   0.90688   0.00000  Uiso   1.00
O871   O     0.16667   0.16667   0.75000   0.00000  Uiso   1.00
O872   O     0.15693   0.12393   0.66625   0.00000  Uiso   1.00
O873   O     0.12687   0.20646   0.83749   0.00000  Uiso   1.00
O874   O     0.21088   0.17493   0.65877   0.00000  Uiso   1.00
O875   O     0.17198   0.16135   0.83749   0.00000  Uiso   1.00
O876   O     0.28524   0.10373   0.51313   0.00000  Uiso   1.00
O877   O     0.02445   0.16970   0.69541   0.00000  Uiso   1.00
O878   O     0.19620   0.10266   0.92218   0.00000  Uiso   1.00
O879   O     0.17849   0.08101   0.77821   0.00000  Uiso   1.00
O880   O     0.14581   0.26136   0.76767   0.00000  Uiso   1.00
O881   O     0.07452   0.13251   0.73607   0.00000  Uiso   1.00
O882   O     0.26785   0.19179   0.71806   0.00000  Uiso   1.00
O883   O     0.06990   0.18960   0.77820   0.00000  Uiso   1.00
O884   O     0.25440   0.15277   0.76768   0.00000  Uiso   1.00
O885   O     0.13800   0.06903   0.73607   0.00000  Uiso   1.00
O886   O     0.20437   0.25527   0.71806   0.00000  Uiso   1.00
Zn887  Zn    0.19244   0.14090   0.78278   0.00000  Uiso   1.00
Zn888  Zn    0.13459   0.12378   0.72258   0.00000  Uiso   1.00
Zn889  Zn    0.21166   0.19664   0.71188   0.00000  Uiso   1.00
Zn890  Zn    0.12798   0.20535   0.78277   0.00000  Uiso   1.00
C891   C     0.38569   0.15997   0.75924   0.00000  Uiso   1.00
C892   C     0.52548   0.12123   0.96025   0.00000  Uiso   1.00
C893   C     0.55416   0.11200   0.97915   0.00000  Uiso   1.00
C894   C     0.61473   0.17233   0.74002   0.00000  Uiso   1.00
C895   C     0.54787   0.12306   0.51949   0.00000  Uiso   1.00
C896   C     0.50951   0.14076   0.54203   0.00000  Uiso   1.00
C897   C     0.57895   0.11548   0.53750   0.00000  Uiso   1.00
C898   C     0.57065   0.12509   0.57862   0.00000  Uiso   1.00
C899   C     0.50044   0.14515   0.58338   0.00000  Uiso   1.00
C900   C     0.66139   0.16997   0.73283   0.00000  Uiso   1.00
C901   C     0.34047   0.16028   0.76272   0.00000  Uiso   1.00
C902   C     0.42793   0.21016   0.92143   0.00000  Uiso   1.00
C903   C     0.51428   0.32226   0.73798   0.00000  Uiso   1.00
C904   C     0.48497   0.01213   0.76232   0.00000  Uiso   1.00
C905   C     0.48924   0.05616   0.75900   0.00000  Uiso   1.00
C906   C     0.51024   0.27774   0.74131   0.00000  Uiso   1.00
C907   C     0.52158   0.14556   0.64395   0.00000  Uiso   1.00
C908   C     0.47847   0.18747   0.85628   0.00000  Uiso   1.00
C909   C     0.46506   0.19143   0.89968   0.00000  Uiso   1.00
C910   C     0.53082   0.13770   0.60129   0.00000  Uiso   1.00
C911   C     0.41389   0.21029   0.96233   0.00000  Uiso   1.00
C912   C     0.63819   0.07773   0.52993   0.00000  Uiso   1.00
C913   C     0.48779   0.17292   0.91932   0.00000  Uiso   1.00
C914   C     0.34477   0.10241   0.53994   0.00000  Uiso   1.00
C915   C     0.36643   0.07597   0.55905   0.00000  Uiso   1.00
C916   C     0.35667   0.20368   0.67497   0.00000  Uiso   1.00
C917   C     0.33933   0.18742   0.63951   0.00000  Uiso   1.00
C918   C     0.66562   0.22330   0.61948   0.00000  Uiso   1.00
C919   C     0.49458   0.07105   0.92177   0.00000  Uiso   1.00
C920   C     0.50439   0.02940   0.93108   0.00000  Uiso   1.00
C921   C     0.46896   0.32739   0.92705   0.00000  Uiso   1.00
C922   C     0.47232   0.16961   0.96016   0.00000  Uiso   1.00
C923   C     0.43602   0.19056   0.98184   0.00000  Uiso   1.00
C924   C     0.49361   0.14852   0.98030   0.00000  Uiso   1.00
C925   C     0.48272   0.15482   0.52226   0.00000  Uiso   1.00
C926   C     0.44665   0.17658   0.54276   0.00000  Uiso   1.00
C927   C     0.42303   0.19288   0.52281   0.00000  Uiso   1.00
H928   H     0.39553   0.20914   0.53964   0.00000  Uiso   1.00
H929   H     0.51837   0.16249   0.90220   0.00000  Uiso   1.00
H930   H     0.43611   0.18235   0.57437   0.00000  Uiso   1.00
H931   H     0.64926   0.05157   0.50721   0.00000  Uiso   1.00
H932   H     0.61576   0.06249   0.55567   0.00000  Uiso   1.00
H933   H     0.36842   0.11276   0.51242   0.00000  Uiso   1.00
H934   H     0.33546   0.13078   0.56023   0.00000  Uiso   1.00
H935   H     0.34366   0.06597   0.58708   0.00000  Uiso   1.00
H936   H     0.39531   0.09472   0.56565   0.00000  Uiso   1.00
H937   H     0.37699   0.04788   0.53881   0.00000  Uiso   1.00
H938   H     0.39054   0.21814   0.66353   0.00000  Uiso   1.00
H939   H     0.65153   0.15982   0.79223   0.00000  Uiso   1.00
H940   H     0.33886   0.22939   0.69390   0.00000  Uiso   1.00
H941   H     0.36279   0.16797   0.61792   0.00000  Uiso   1.00
H942   H     0.64159   0.16711   0.64885   0.00000  Uiso   1.00
H943   H     0.64094   0.24212   0.64025   0.00000  Uiso   1.00
H944   H     0.65390   0.21042   0.59354   0.00000  Uiso   1.00
H945   H     0.36310   0.24382   0.60939   0.00000  Uiso   1.00
H946   H     0.49066   0.06681   0.89155   0.00000  Uiso   1.00
H947   H     0.46301   0.07970   0.94204   0.00000  Uiso   1.00
H948   H     0.53583   0.02119   0.91057   0.00000  Uiso   1.00
H949   H     0.50695   0.03257   0.96173   0.00000  Uiso   1.00
H950   H     0.54130   0.00292   0.71557   0.00000  Uiso   1.00
H951   H     0.43730   0.00138   0.94769   0.00000  Uiso   1.00
H952   H     0.47695   0.29784   0.93422   0.00000  Uiso   1.00
H953   H     0.46640   0.32271   0.89636   0.00000  Uiso   1.00
H954   H     0.45764   0.33226   0.78488   0.00000  Uiso   1.00
H955   H     0.47056   0.15529   0.60263   0.00000  Uiso   1.00
H956   H     0.59453   0.12230   0.59343   0.00000  Uiso   1.00
H957   H     0.58053   0.09432   0.96210   0.00000  Uiso   1.00
H958   H     0.38571   0.22584   0.97874   0.00000  Uiso   1.00
H959   H     0.40974   0.22462   0.90688   0.00000  Uiso   1.00
O960   O     0.50000   0.16667   0.75000   0.00000  Uiso   1.00
O961   O     0.49027   0.12393   0.66625   0.00000  Uiso   1.00
O962   O     0.46020   0.20646   0.83749   0.00000  Uiso   1.00
O963   O     0.54421   0.17493   0.65877   0.00000  Uiso   1.00
O964   O     0.50532   0.16135   0.83749   0.00000  Uiso   1.00
O965   O     0.61857   0.10373   0.51313   0.00000  Uiso   1.00
O966   O     0.35779   0.16970   0.69541   0.00000  Uiso   1.00
O967   O     0.52953   0.10266   0.92218   0.00000  Uiso   1.00
O968   O     0.51182   0.08101   0.77821   0.00000  Uiso   1.00
O969   O     0.47914   0.26136   0.76767   0.00000  Uiso   1.00
O970   O     0.40785   0.13251   0.73607   0.00000  Uiso   1.00
O971   O     0.60119   0.19179   0.71806   0.00000  Uiso   1.00
O972   O     0.40323   0.18960   0.77820   0.00000  Uiso   1.00
O973   O     0.58773   0.15277   0.76768   0.00000  Uiso   1.00
O974   O     0.47133   0.06903   0.73607   0.00000  Uiso   1.00
O975   O     0.53771   0.25527   0.71806   0.00000  Uiso   1.00
Zn976  Zn    0.52577   0.14090   0.78278   0.00000  Uiso   1.00
Zn977  Zn    0.46792   0.12378   0.72258   0.00000  Uiso   1.00
Zn978  Zn    0.54500   0.19664   0.71188   0.00000  Uiso   1.00
Zn979  Zn    0.46131   0.20535   0.78277   0.00000  Uiso   1.00
C980   C     0.71902   0.15997   0.75924   0.00000  Uiso   1.00
C981   C     0.85882   0.12123   0.96025   0.00000  Uiso   1.00
C982   C     0.88749   0.11200   0.97915   0.00000  Uiso   1.00
C983   C     0.94806   0.17233   0.74002   0.00000  Uiso   1.00
C984   C     0.88120   0.12306   0.51949   0.00000  Uiso   1.00
C985   C     0.84285   0.14076   0.54203   0.00000  Uiso   1.00
C986   C     0.91229   0.11548   0.53750   0.00000  Uiso   1.00
C987   C     0.90398   0.12509   0.57862   0.00000  Uiso   1.00
C988   C     0.83377   0.14515   0.58338   0.00000  Uiso   1.00
C989   C     0.99472   0.16997   0.73283   0.00000  Uiso   1.00
C990   C     0.67380   0.16028   0.76272   0.00000  Uiso   1.00
C991   C     0.76126   0.21016   0.92143   0.00000  Uiso   1.00
C992   C     0.84761   0.32226   0.73798   0.00000  Uiso   1.00
C993   C     0.81830   0.01213   0.76232   0.00000  Uiso   1.00
C994   C     0.82257   0.05616   0.75900   0.00000  Uiso   1.00
C995   C     0.84358   0.27774   0.74131   0.00000  Uiso   1.00
C996   C     0.85491   0.14556   0.64395   0.00000  Uiso   1.00
C997   C     0.81181   0.18747   0.85628   0.00000  Uiso   1.00
C998   C     0.79839   0.19143   0.89968   0.00000  Uiso   1.00
C999   C     0.86415   0.13770   0.60129   0.00000  Uiso   1.00
C1000  C     0.74722   0.21029   0.96233   0.00000  Uiso   1.00
C1001  C     0.97152   0.07773   0.52993   0.00000  Uiso   1.00
C1002  C     0.82113   0.17292   0.91932   0.00000  Uiso   1.00
C1003  C     0.67810   0.10241   0.53994   0.00000  Uiso   1.00
C1004  C     0.69977   0.07597   0.55905   0.00000  Uiso   1.00
C1005  C     0.69001   0.20368   0.67497   0.00000  Uiso   1.00
C1006  C     0.67266   0.18742   0.63951   0.00000  Uiso   1.00
C1007  C     0.99895   0.22330   0.61948   0.00000  Uiso   1.00
C1008  C     0.82791   0.07105   0.92177   0.00000  Uiso   1.00
C1009  C     0.83773   0.02940   0.93108   0.00000  Uiso   1.00
C1010  C     0.80230   0.32739   0.92705   0.00000  Uiso   1.00
C1011  C     0.80566   0.16961   0.96016   0.00000  Uiso   1.00
C1012  C     0.76935   0.19056   0.98184   0.00000  Uiso   1.00
C1013  C     0.82694   0.14852   0.98030   0.00000  Uiso   1.00
C1014  C     0.81605   0.15482   0.52226   0.00000  Uiso   1.00
C1015  C     0.77998   0.17658   0.54276   0.00000  Uiso   1.00
C1016  C     0.75636   0.19288   0.52281   0.00000  Uiso   1.00
H1017  H     0.72886   0.20914   0.53964   0.00000  Uiso   1.00
H1018  H     0.85170   0.16249   0.90220   0.00000  Uiso   1.00
H1019  H     0.76944   0.18235   0.57437   0.00000  Uiso   1.00
H1020  H     0.98259   0.05157   0.50721   0.00000  Uiso   1.00
H1021  H     0.94909   0.06249   0.55567   0.00000  Uiso   1.00
H1022  H     0.70175   0.11276   0.51242   0.00000  Uiso   1.00
H1023  H     0.66879   0.13078   0.56023   0.00000  Uiso   1.00
H1024  H     0.67699   0.06597   0.58708   0.00000  Uiso   1.00
H1025  H     0.72865   0.09472   0.56565   0.00000  Uiso   1.00
H1026  H     0.71032   0.04788   0.53881   0.00000  Uiso   1.00
H1027  H     0.72387   0.21814   0.66353   0.00000  Uiso   1.00
H1028  H     0.98486   0.15982   0.79223   0.00000  Uiso   1.00
H1029  H     0.67219   0.22939   0.69390   0.00000  Uiso   1.00
H1030  H     0.69612   0.16797   0.61792   0.00000  Uiso   1.00
H1031  H     0.97492   0.16711   0.64885   0.00000  Uiso   1.00
H1032  H     0.97427   0.24212   0.64025   0.00000  Uiso   1.00
H1033  H     0.98724   0.21042   0.59354   0.00000  Uiso   1.00
H1034  H     0.69643   0.24382   0.60939   0.00000  Uiso   1.00
H1035  H     0.82399   0.06681   0.89155   0.00000  Uiso   1.00
H1036  H     0.79634   0.07970   0.94204   0.00000  Uiso   1.00
H1037  H     0.86916   0.02119   0.91057   0.00000  Uiso   1.00
H1038  H     0.84028   0.03257   0.96173   0.00000  Uiso   1.00
H1039  H     0.87463   0.00292   0.71557   0.00000  Uiso   1.00
H1040  H     0.77063   0.00138   0.94769   0.00000  Uiso   1.00
H1041  H     0.81028   0.29784   0.93422   0.00000  Uiso   1.00
H1042  H     0.79973   0.32271   0.89636   0.00000  Uiso   1.00
H1043  H     0.79097   0.33226   0.78488   0.00000  Uiso   1.00
H1044  H     0.80389   0.15529   0.60263   0.00000  Uiso   1.00
H1045  H     0.92786   0.12230   0.59343   0.00000  Uiso   1.00
H1046  H     0.91386   0.09432   0.96210   0.00000  Uiso   1.00
H1047  H     0.71905   0.22584   0.97874   0.00000  Uiso   1.00
H1048  H     0.74307   0.22462   0.90688   0.00000  Uiso   1.00
O1049  O     0.83333   0.16667   0.75000   0.00000  Uiso   1.00
O1050  O     0.82360   0.12393   0.66625   0.00000  Uiso   1.00
O1051  O     0.79354   0.20646   0.83749   0.00000  Uiso   1.00
O1052  O     0.87755   0.17493   0.65877   0.00000  Uiso   1.00
O1053  O     0.83865   0.16135   0.83749   0.00000  Uiso   1.00
O1054  O     0.95191   0.10373   0.51313   0.00000  Uiso   1.00
O1055  O     0.69112   0.16970   0.69541   0.00000  Uiso   1.00
O1056  O     0.86287   0.10266   0.92218   0.00000  Uiso   1.00
O1057  O     0.84515   0.08101   0.77821   0.00000  Uiso   1.00
O1058  O     0.81247   0.26136   0.76767   0.00000  Uiso   1.00
O1059  O     0.74119   0.13251   0.73607   0.00000  Uiso   1.00
O1060  O     0.93452   0.19179   0.71806   0.00000  Uiso   1.00
O1061  O     0.73656   0.18960   0.77820   0.00000  Uiso   1.00
O1062  O     0.92106   0.15277   0.76768   0.00000  Uiso   1.00
O1063  O     0.80467   0.06903   0.73607   0.00000  Uiso   1.00
O1064  O     0.87104   0.25527   0.71806   0.00000  Uiso   1.00
Zn1065 Zn    0.85910   0.14090   0.78278   0.00000  Uiso   1.00
Zn1066 Zn    0.80125   0.12378   0.72258   0.00000  Uiso   1.00
Zn1067 Zn    0.87833   0.19664   0.71188   0.00000  Uiso   1.00
Zn1068 Zn    0.79465   0.20535   0.78277   0.00000  Uiso   1.00
C1069  C     0.05235   0.49331   0.75924   0.00000  Uiso   1.00
C1070  C     0.19215   0.45456   0.96025   0.00000  Uiso   1.00
C1071  C     0.22082   0.44533   0.97915   0.00000  Uiso   1.00
C1072  C     0.28139   0.50566   0.74002   0.00000  Uiso   1.00
C1073  C     0.21453   0.45640   0.51949   0.00000  Uiso   1.00
C1074  C     0.17618   0.47409   0.54203   0.00000  Uiso   1.00
C1075  C     0.24562   0.44881   0.53750   0.00000  Uiso   1.00
C1076  C     0.23731   0.45843   0.57862   0.00000  Uiso   1.00
C1077  C     0.16711   0.47848   0.58338   0.00000  Uiso   1.00
C1078  C     0.32805   0.50330   0.73283   0.00000  Uiso   1.00
C1079  C     0.00714   0.49361   0.76272   0.00000  Uiso   1.00
C1080  C     0.09460   0.54349   0.92143   0.00000  Uiso   1.00
C1081  C     0.18095   0.65559   0.73798   0.00000  Uiso   1.00
C1082  C     0.15164   0.34546   0.76232   0.00000  Uiso   1.00
C1083  C     0.15590   0.38949   0.75900   0.00000  Uiso   1.00
C1084  C     0.17691   0.61107   0.74131   0.00000  Uiso   1.00
C1085  C     0.18824   0.47890   0.64395   0.00000  Uiso   1.00
C1086  C     0.14514   0.52081   0.85628   0.00000  Uiso   1.00
C1087  C     0.13173   0.52477   0.89968   0.00000  Uiso   1.00
C1088  C     0.19748   0.47103   0.60129   0.00000  Uiso   1.00
C1089  C     0.08056   0.54362   0.96233   0.00000  Uiso   1.00
C1090  C     0.30485   0.41106   0.52993   0.00000  Uiso   1.00
C1091  C     0.15446   0.50626   0.91932   0.00000  Uiso   1.00
C1092  C     0.01143   0.43575   0.53994   0.00000  Uiso   1.00
C1093  C     0.03310   0.40930   0.55905   0.00000  Uiso   1.00
C1094  C     0.02334   0.53701   0.67497   0.00000  Uiso   1.00
C1095  C     0.00600   0.52075   0.63951   0.00000  Uiso   1.00
C1096  C     0.33229   0.55663   0.61948   0.00000  Uiso   1.00
C1097  C     0.16124   0.40438   0.92177   0.00000  Uiso   1.00
C1098  C     0.17106   0.36273   0.93108   0.00000  Uiso   1.00
C1099  C     0.13563   0.66072   0.92705   0.00000  Uiso   1.00
C1100  C     0.13899   0.50294   0.96016   0.00000  Uiso   1.00
C1101  C     0.10268   0.52390   0.98184   0.00000  Uiso   1.00
C1102  C     0.16027   0.48185   0.98030   0.00000  Uiso   1.00
C1103  C     0.14939   0.48816   0.52226   0.00000  Uiso   1.00
C1104  C     0.11331   0.50992   0.54276   0.00000  Uiso   1.00
C1105  C     0.08970   0.52621   0.52281   0.00000  Uiso   1.00
H1106  H     0.06219   0.54247   0.53964   0.00000  Uiso   1.00
H1107  H     0.18504   0.49583   0.90220   0.00000  Uiso   1.00
H1108  H     0.10277   0.51569   0.57437   0.00000  Uiso   1.00
H1109  H     0.31593   0.38490   0.50721   0.00000  Uiso   1.00
H1110  H     0.28243   0.39582   0.55567   0.00000  Uiso   1.00
H1111  H     0.03509   0.44610   0.51242   0.00000  Uiso   1.00
H1112  H     0.00213   0.46411   0.56023   0.00000  Uiso   1.00
H1113  H     0.01032   0.39931   0.58708   0.00000  Uiso   1.00
H1114  H     0.06198   0.42805   0.56565   0.00000  Uiso   1.00
H1115  H     0.04365   0.38121   0.53881   0.00000  Uiso   1.00
H1116  H     0.05720   0.55148   0.66353   0.00000  Uiso   1.00
H1117  H     0.31820   0.49316   0.79223   0.00000  Uiso   1.00
H1118  H     0.00552   0.56272   0.69390   0.00000  Uiso   1.00
H1119  H     0.02946   0.50130   0.61792   0.00000  Uiso   1.00
H1120  H     0.30826   0.50045   0.64885   0.00000  Uiso   1.00
H1121  H     0.30760   0.57546   0.64025   0.00000  Uiso   1.00
H1122  H     0.32057   0.54375   0.59354   0.00000  Uiso   1.00
H1123  H     0.02977   0.57715   0.60939   0.00000  Uiso   1.00
H1124  H     0.15733   0.40015   0.89155   0.00000  Uiso   1.00
H1125  H     0.12968   0.41303   0.94204   0.00000  Uiso   1.00
H1126  H     0.20250   0.35452   0.91057   0.00000  Uiso   1.00
H1127  H     0.17362   0.36591   0.96173   0.00000  Uiso   1.00
H1128  H     0.20796   0.33625   0.71557   0.00000  Uiso   1.00
H1129  H     0.10396   0.33471   0.94769   0.00000  Uiso   1.00
H1130  H     0.14361   0.63117   0.93422   0.00000  Uiso   1.00
H1131  H     0.13307   0.65605   0.89636   0.00000  Uiso   1.00
H1132  H     0.12431   0.66559   0.78488   0.00000  Uiso   1.00
H1133  H     0.13722   0.48863   0.60263   0.00000  Uiso   1.00
H1134  H     0.26120   0.45564   0.59343   0.00000  Uiso   1.00
H1135  H     0.24719   0.42765   0.96210   0.00000  Uiso   1.00
H1136  H     0.05238   0.55918   0.97874   0.00000  Uiso   1.00
H1137  H     0.07641   0.55795   0.90688   0.00000  Uiso   1.00
O1138  O     0.16667   0.50000   0.75000   0.00000  Uiso   1.00
O1139  O     0.15693   0.45726   0.66625   0.00000  Uiso   1.00
O1140  O     0.12687   0.53979   0.83749   0.00000  Uiso   1.00
O1141  O     0.21088   0.50826   0.65877   0.00000  Uiso   1.00
O1142  O     0.17198   0.49468   0.83749   0.00000  Uiso   1.00
O1143  O     0.28524   0.43706   0.51313   0.00000  Uiso   1.00
O1144  O     0.02445   0.50304   0.69541   0.00000  Uiso   1.00
O1145  O     0.19620   0.43599   0.92218   0.00000  Uiso   1.00
O1146  O     0.17849   0.41434   0.77821   0.00000  Uiso   1.00
O1147  O     0.14581   0.59469   0.76767   0.00000  Uiso   1.00
O1148  O     0.07452   0.46584   0.73607   0.00000  Uiso   1.00
O1149  O     0.26785   0.52512   0.71806   0.00000  Uiso   1.00
O1150  O     0.06990   0.52293   0.77820   0.00000  Uiso   1.00
O1151  O     0.25440   0.48610   0.76768   0.00000  Uiso   1.00
O1152  O     0.13800   0.40236   0.73607   0.00000  Uiso   1.00
O1153  O     0.20437   0.58860   0.71806   0.00000  Uiso   1.00
Zn1154 Zn    0.19244   0.47423   0.78278   0.00000  Uiso   1.00
Zn1155 Zn    0.13459   0.45711   0.72258   0.00000  Uiso   1.00
Zn1156 Zn    0.21166   0.52997   0.71188   0.00000  Uiso   1.00
Zn1157 Zn    0.12798   0.53868   0.78277   0.00000  Uiso   1.00
C1158  C     0.38569   0.49331   0.75924   0.00000  Uiso   1.00
C1159  C     0.52548   0.45456   0.96025   0.00000  Uiso   1.00
C1160  C     0.55416   0.44533   0.97915   0.00000  Uiso   1.00
C1161  C     0.61473   0.50566   0.74002   0.00000  Uiso   1.00
C1162  C     0.54787   0.45640   0.51949   0.00000  Uiso   1.00
C1163  C     0.50951   0.47409   0.54203   0.00000  Uiso   1.00
C1164  C     0.57895   0.44881   0.53750   0.00000  Uiso   1.00
C1165  C     0.57065   0.45843   0.57862   0.00000  Uiso   1.00
C1166  C     0.50044   0.47848   0.58338   0.00000  Uiso   1.00
C1167  C     0.66139   0.50330   0.73283   0.00000  Uiso   1.00
C1168  C     0.34047   0.49361   0.76272   0.00000  Uiso   1.00
C1169  C     0.42793   0.54349   0.92143   0.00000  Uiso   1.00
C1170  C     0.51428   0.65559   0.73798   0.00000  Uiso   1.00
C1171  C     0.48497   0.34546   0.76232   0.00000  Uiso   1.00
C1172  C     0.48924   0.38949   0.75900   0.00000  Uiso   1.00
C1173  C     0.51024   0.61107   0.74131   0.00000  Uiso   1.00
C1174  C     0.52158   0.47890   0.64395   0.00000  Uiso   1.00
C1175  C     0.47847   0.52081   0.85628   0.00000  Uiso   1.00
C1176  C     0.46506   0.52477   0.89968   0.00000  Uiso   1.00
C1177  C     0.53082   0.47103   0.60129   0.00000  Uiso   1.00
C1178  C     0.41389   0.54362   0.96233   0.00000  Uiso   1.00
C1179  C     0.63819   0.41106   0.52993   0.00000  Uiso   1.00
C1180  C     0.48779   0.50626   0.91932   0.00000  Uiso   1.00
C1181  C     0.34477   0.43575   0.53994   0.00000  Uiso   1.00
C1182  C     0.36643   0.40930   0.55905   0.00000  Uiso   1.00
C1183  C     0.35667   0.53701   0.67497   0.00000  Uiso   1.00
C1184  C     0.33933   0.52075   0.63951   0.00000  Uiso   1.00
C1185  C     0.66562   0.55663   0.61948   0.00000  Uiso   1.00
C1186  C     0.49458   0.40438   0.92177   0.00000  Uiso   1.00
C1187  C     0.50439   0.36273   0.93108   0.00000  Uiso   1.00
C1188  C     0.46896   0.66072   0.92705   0.00000  Uiso   1.00
C1189  C     0.47232   0.50294   0.96016   0.00000  Uiso   1.00
C1190  C     0.43602   0.52390   0.98184   0.00000  Uiso   1.00
C1191  C     0.49361   0.48185   0.98030   0.00000  Uiso   1.00
C1192  C     0.48272   0.48816   0.52226   0.00000  Uiso   1.00
C1193  C     0.44665   0.50992   0.54276   0.00000  Uiso   1.00
C1194  C     0.42303   0.52621   0.52281   0.00000  Uiso   1.00
H1195  H     0.39553   0.54247   0.53964   0.00000  Uiso   1.00
H1196  H     0.51837   0.49583   0.90220   0.00000  Uiso   1.00
H1197  H     0.43611   0.51569   0.57437   0.00000  Uiso   1.00
H1198  H     0.64926   0.38490   0.50721   0.00000  Uiso   1.00
H1199  H     0.61576   0.39582   0.55567   0.00000  Uiso   1.00
H1200  H     0.36842   0.44610   0.51242   0.00000  Uiso   1.00
H1201  H     0.33546   0.46411   0.56023   0.00000  Uiso   1.00
H1202  H     0.34366   0.39931   0.58708   0.00000  Uiso   1.00
H1203  H     0.39531   0.42805   0.56565   0.00000  Uiso   1.00
H1204  H     0.37699   0.38121   0.53881   0.00000  Uiso   1.00
H1205  H     0.39054   0.55148   0.66353   0.00000  Uiso   1.00
H1206  H     0.65153   0.49316   0.79223   0.00000  Uiso   1.00
H1207  H     0.33886   0.56272   0.69390   0.00000  Uiso   1.00
H1208  H     0.36279   0.50130   0.61792   0.00000  Uiso   1.00
H1209  H     0.64159   0.50045   0.64885   0.00000  Uiso   1.00
H1210  H     0.64094   0.57546   0.64025   0.00000  Uiso   1.00
H1211  H     0.65390   0.54375   0.59354   0.00000  Uiso   1.00
H1212  H     0.36310   0.57715   0.60939   0.00000  Uiso   1.00
H1213  H     0.49066   0.40015   0.89155   0.00000  Uiso   1.00
H1214  H     0.46301   0.41303   0.94204   0.00000  Uiso   1.00
H1215  H     0.53583   0.35452   0.91057   0.00000  Uiso   1.00
H1216  H     0.50695   0.36591   0.96173   0.00000  Uiso   1.00
H1217  H     0.54130   0.33625   0.71557   0.00000  Uiso   1.00
H1218  H     0.43730   0.33471   0.94769   0.00000  Uiso   1.00
H1219  H     0.47695   0.63117   0.93422   0.00000  Uiso   1.00
H1220  H     0.46640   0.65605   0.89636   0.00000  Uiso   1.00
H1221  H     0.45764   0.66559   0.78488   0.00000  Uiso   1.00
H1222  H     0.47056   0.48863   0.60263   0.00000  Uiso   1.00
H1223  H     0.59453   0.45564   0.59343   0.00000  Uiso   1.00
H1224  H     0.58053   0.42765   0.96210   0.00000  Uiso   1.00
H1225  H     0.38571   0.55918   0.97874   0.00000  Uiso   1.00
H1226  H     0.40974   0.55795   0.90688   0.00000  Uiso   1.00
O1227  O     0.50000   0.50000   0.75000   0.00000  Uiso   1.00
O1228  O     0.49027   0.45726   0.66625   0.00000  Uiso   1.00
O1229  O     0.46020   0.53979   0.83749   0.00000  Uiso   1.00
O1230  O     0.54421   0.50826   0.65877   0.00000  Uiso   1.00
O1231  O     0.50532   0.49468   0.83749   0.00000  Uiso   1.00
O1232  O     0.61857   0.43706   0.51313   0.00000  Uiso   1.00
O1233  O     0.35779   0.50304   0.69541   0.00000  Uiso   1.00
O1234  O     0.52953   0.43599   0.92218   0.00000  Uiso   1.00
O1235  O     0.51182   0.41434   0.77821   0.00000  Uiso   1.00
O1236  O     0.47914   0.59469   0.76767   0.00000  Uiso   1.00
O1237  O     0.40785   0.46584   0.73607   0.00000  Uiso   1.00
O1238  O     0.60119   0.52512   0.71806   0.00000  Uiso   1.00
O1239  O     0.40323   0.52293   0.77820   0.00000  Uiso   1.00
O1240  O     0.58773   0.48610   0.76768   0.00000  Uiso   1.00
O1241  O     0.47133   0.40236   0.73607   0.00000  Uiso   1.00
O1242  O     0.53771   0.58860   0.71806   0.00000  Uiso   1.00
Zn1243 Zn    0.52577   0.47423   0.78278   0.00000  Uiso   1.00
Zn1244 Zn    0.46792   0.45711   0.72258   0.00000  Uiso   1.00
Zn1245 Zn    0.54500   0.52997   0.71188   0.00000  Uiso   1.00
Zn1246 Zn    0.46131   0.53868   0.78277   0.00000  Uiso   1.00
C1247  C     0.71902   0.49331   0.75924   0.00000  Uiso   1.00
C1248  C     0.85882   0.45456   0.96025   0.00000  Uiso   1.00
C1249  C     0.88749   0.44533   0.97915   0.00000  Uiso   1.00
C1250  C     0.94806   0.50566   0.74002   0.00000  Uiso   1.00
C1251  C     0.88120   0.45640   0.51949   0.00000  Uiso   1.00
C1252  C     0.84285   0.47409   0.54203   0.00000  Uiso   1.00
C1253  C     0.91229   0.44881   0.53750   0.00000  Uiso   1.00
C1254  C     0.90398   0.45843   0.57862   0.00000  Uiso   1.00
C1255  C     0.83377   0.47848   0.58338   0.00000  Uiso   1.00
C1256  C     0.99472   0.50330   0.73283   0.00000  Uiso   1.00
C1257  C     0.67380   0.49361   0.76272   0.00000  Uiso   1.00
C1258  C     0.76126   0.54349   0.92143   0.00000  Uiso   1.00
C1259  C     0.84761   0.65559   0.73798   0.00000  Uiso   1.00
C1260  C     0.81830   0.34546   0.76232   0.00000  Uiso   1.00
C1261  C     0.82257   0.38949   0.75900   0.00000  Uiso   1.00
C1262  C     0.84358   0.61107   0.74131   0.00000  Uiso   1.00
C1263  C     0.85491   0.47890   0.64395   0.00000  Uiso   1.00
C1264  C     0.81181   0.52081   0.85628   0.00000  Uiso   1.00
C1265  C     0.79839   0.52477   0.89968   0.00000  Uiso   1.00
C1266  C     0.86415   0.47103   0.60129   0.00000  Uiso   1.00
C1267  C     0.74722   0.54362   0.96233   0.00000  Uiso   1.00
C1268  C     0.97152   0.41106   0.52993   0.00000  Uiso   1.00
C1269  C     0.82113   0.50626   0.91932   0.00000  Uiso   1.00
C1270  C     0.67810   0.43575   0.53994   0.00000  Uiso   1.00
C1271  C     0.69977   0.40930   0.55905   0.00000  Uiso   1.00
C1272  C     0.69001   0.53701   0.67497   0.00000  Uiso   1.00
C1273  C     0.67266   0.52075   0.63951   0.00000  Uiso   1.00
C1274  C     0.99895   0.55663   0.61948   0.00000  Uiso   1.00
C1275  C     0.82791   0.40438   0.92177   0.00000  Uiso   1.00
C1276  C     0.83773   0.36273   0.93108   0.00000  Uiso   1.00
C1277  C     0.80230   0.66072   0.92705   0.00000  Uiso   1.00
C1278  C     0.80566   0.50294   0.96016   0.00000  Uiso   1.00
C1279  C     0.76935   0.52390   0.98184   0.00000  Uiso   1.00
C1280  C     0.82694   0.48185   0.98030   0.00000  Uiso   1.00
C1281  C     0.81605   0.48816   0.52226   0.00000  Uiso   1.00
C1282  C     0.77998   0.50992   0.54276   0.00000  Uiso   1.00
C1283  C     0.75636   0.52621   0.52281   0.00000  Uiso   1.00
H1284  H     0.72886   0.54247   0.53964   0.00000  Uiso   1.00
H1285  H     0.85170   0.49583   0.90220   0.00000  Uiso   1.00
H1286  H     0.76944   0.51569   0.57437   0.00000  Uiso   1.00
H1287  H     0.98259   0.38490   0.50721   0.00000  Uiso   1.00
H1288  H     0.94909   0.39582   0.55567   0.00000  Uiso   1.00
H1289  H     0.70175   0.44610   0.51242   0.00000  Uiso   1.00
H1290  H     0.66879   0.46411   0.56023   0.00000  Uiso   1.00
H1291  H     0.67699   0.39931   0.58708   0.00000  Uiso   1.00
H1292  H     0.72865   0.42805   0.56565   0.00000  Uiso   1.00
H1293  H     0.71032   0.38121   0.53881   0.00000  Uiso   1.00
H1294  H     0.72387   0.55148   0.66353   0.00000  Uiso   1.00
H1295  H     0.98486   0.49316   0.79223   0.00000  Uiso   1.00
H1296  H     0.67219   0.56272   0.69390   0.00000  Uiso   1.00
H1297  H     0.69612   0.50130   0.61792   0.00000  Uiso   1.00
H1298  H     0.97492   0.50045   0.64885   0.00000  Uiso   1.00
H1299  H     0.97427   0.57546   0.64025   0.00000  Uiso   1.00
H1300  H     0.98724   0.54375   0.59354   0.00000  Uiso   1.00
H1301  H     0.69643   0.57715   0.60939   0.00000  Uiso   1.00
H1302  H     0.82399   0.40015   0.89155   0.00000  Uiso   1.00
H1303  H     0.79634   0.41303   0.94204   0.00000  Uiso   1.00
H1304  H     0.86916   0.35452   0.91057   0.00000  Uiso   1.00
H1305  H     0.84028   0.36591   0.96173   0.00000  Uiso   1.00
H1306  H     0.87463   0.33625   0.71557   0.00000  Uiso   1.00
H1307  H     0.77063   0.33471   0.94769   0.00000  Uiso   1.00
H1308  H     0.81028   0.63117   0.93422   0.00000  Uiso   1.00
H1309  H     0.79973   0.65605   0.89636   0.00000  Uiso   1.00
H1310  H     0.79097   0.66559   0.78488   0.00000  Uiso   1.00
H1311  H     0.80389   0.48863   0.60263   0.00000  Uiso   1.00
H1312  H     0.92786   0.45564   0.59343   0.00000  Uiso   1.00
H1313  H     0.91386   0.42765   0.96210   0.00000  Uiso   1.00
H1314  H     0.71905   0.55918   0.97874   0.00000  Uiso   1.00
H1315  H     0.74307   0.55795   0.90688   0.00000  Uiso   1.00
O1316  O     0.83333   0.50000   0.75000   0.00000  Uiso   1.00
O1317  O     0.82360   0.45726   0.66625   0.00000  Uiso   1.00
O1318  O     0.79354   0.53979   0.83749   0.00000  Uiso   1.00
O1319  O     0.87755   0.50826   0.65877   0.00000  Uiso   1.00
O1320  O     0.83865   0.49468   0.83749   0.00000  Uiso   1.00
O1321  O     0.95191   0.43706   0.51313   0.00000  Uiso   1.00
O1322  O     0.69112   0.50304   0.69541   0.00000  Uiso   1.00
O1323  O     0.86287   0.43599   0.92218   0.00000  Uiso   1.00
O1324  O     0.84515   0.41434   0.77821   0.00000  Uiso   1.00
O1325  O     0.81247   0.59469   0.76767   0.00000  Uiso   1.00
O1326  O     0.74119   0.46584   0.73607   0.00000  Uiso   1.00
O1327  O     0.93452   0.52512   0.71806   0.00000  Uiso   1.00
O1328  O     0.73656   0.52293   0.77820   0.00000  Uiso   1.00
O1329  O     0.92106   0.48610   0.76768   0.00000  Uiso   1.00
O1330  O     0.80467   0.40236   0.73607   0.00000  Uiso   1.00
O1331  O     0.87104   0.58860   0.71806   0.00000  Uiso   1.00
Zn1332 Zn    0.85910   0.47423   0.78278   0.00000  Uiso   1.00
Zn1333 Zn    0.80125   0.45711   0.72258   0.00000  Uiso   1.00
Zn1334 Zn    0.87833   0.52997   0.71188   0.00000  Uiso   1.00
Zn1335 Zn    0.79465   0.53868   0.78277   0.00000  Uiso   1.00
C1336  C     0.05235   0.82664   0.75924   0.00000  Uiso   1.00
C1337  C     0.19215   0.78790   0.96025   0.00000  Uiso   1.00
C1338  C     0.22082   0.77866   0.97915   0.00000  Uiso   1.00
C1339  C     0.28139   0.83900   0.74002   0.00000  Uiso   1.00
C1340  C     0.21453   0.78973   0.51949   0.00000  Uiso   1.00
C1341  C     0.17618   0.80743   0.54203   0.00000  Uiso   1.00
C1342  C     0.24562   0.78215   0.53750   0.00000  Uiso   1.00
C1343  C     0.23731   0.79176   0.57862   0.00000  Uiso   1.00
C1344  C     0.16711   0.81182   0.58338   0.00000  Uiso   1.00
C1345  C     0.32805   0.83663   0.73283   0.00000  Uiso   1.00
C1346  C     0.00714   0.82694   0.76272   0.00000  Uiso   1.00
C1347  C     0.09460   0.87683   0.92143   0.00000  Uiso   1.00
C1348  C     0.18095   0.98892   0.73798   0.00000  Uiso   1.00
C1349  C     0.15164   0.67879   0.76232   0.00000  Uiso   1.00
C1350  C     0.15590   0.72283   0.75900   0.00000  Uiso   1.00
C1351  C     0.17691   0.94441   0.74131   0.00000  Uiso   1.00
C1352  C     0.18824   0.81223   0.64395   0.00000  Uiso   1.00
C1353  C     0.14514   0.85414   0.85628   0.00000  Uiso   1.00
C1354  C     0.13173   0.85810   0.89968   0.00000  Uiso   1.00
C1355  C     0.19748   0.80437   0.60129   0.00000  Uiso   1.00
C1356  C     0.08056   0.87695   0.96233   0.00000  Uiso   1.00
C1357  C     0.30485   0.74439   0.52993   0.00000  Uiso   1.00
C1358  C     0.15446   0.83959   0.91932   0.00000  Uiso   1.00
C1359  C     0.01143   0.76908   0.53994   0.00000  Uiso   1.00
C1360  C     0.03310   0.74263   0.55905   0.00000  Uiso   1.00
C1361  C     0.02334   0.87035   0.67497   0.00000  Uiso   1.00
C1362  C     0.00600   0.85409   0.63951   0.00000  Uiso   1.00
C1363  C     0.33229   0.88997   0.61948   0.00000  Uiso   1.00
C1364  C     0.16124   0.73772   0.92177   0.00000  Uiso   1.00
C1365  C     0.17106   0.69607   0.93108   0.00000  Uiso   1.00
C1366  C     0.13563   0.99406   0.92705   0.00000  Uiso   1.00
C1367  C     0.13899   0.83628   0.96016   0.00000  Uiso   1.00
C1368  C     0.10268   0.85723   0.98184   0.00000  Uiso   1.00
C1369  C     0.16027   0.81519   0.98030   0.00000  Uiso   1.00
C1370  C     0.14939   0.82149   0.52226   0.00000  Uiso   1.00
C1371  C     0.11331   0.84325   0.54276   0.00000  Uiso   1.00
C1372  C     0.08970   0.85954   0.52281   0.00000  Uiso   1.00
H1373  H     0.06219   0.87581   0.53964   0.00000  Uiso   1.00
H1374  H     0.18504   0.82916   0.90220   0.00000  Uiso   1.00
H1375  H     0.10277   0.84902   0.57437   0.00000  Uiso   1.00
H1376  H     0.31593   0.71823   0.50721   0.00000  Uiso   1.00
H1377  H     0.28243   0.72915   0.55567   0.00000  Uiso   1.00
H1378  H     0.03509   0.77943   0.51242   0.00000  Uiso   1.00
H1379  H     0.00213   0.79745   0.56023   0.00000  Uiso   1.00
H1380  H     0.01032   0.73264   0.58708   0.00000  Uiso   1.00
H1381  H     0.06198   0.76139   0.56565   0.00000  Uiso   1.00
H1382  H     0.04365   0.71454   0.53881   0.00000  Uiso   1.00
H1383  H     0.05720   0.88481   0.66353   0.00000  Uiso   1.00
H1384  H     0.31820   0.82649   0.79223   0.00000  Uiso   1.00
H1385  H     0.00552   0.89605   0.69390   0.00000  Uiso   1.00
H1386  H     0.02946   0.83463   0.61792   0.00000  Uiso   1.00
H1387  H     0.30826   0.83378   0.64885   0.00000  Uiso   1.00
H1388  H     0.30760   0.90879   0.64025   0.00000  Uiso   1.00
H1389  H     0.32057   0.87708   0.59354   0.00000  Uiso   1.00
H1390  H     0.02977   0.91049   0.60939   0.00000  Uiso   1.00
H1391  H     0.15733   0.73348   0.89155   0.00000  Uiso   1.00
H1392  H     0.12968   0.74636   0.94204   0.00000  Uiso   1.00
H1393  H     0.20250   0.68785   0.91057   0.00000  Uiso   1.00
H1394  H     0.17362   0.69924   0.96173   0.00000  Uiso   1.00
H1395  H     0.20796   0.66959   0.71557   0.00000  Uiso   1.00
H1396  H     0.10396   0.66804   0.94769   0.00000  Uiso   1.00
H1397  H     0.14361   0.96451   0.93422   0.00000  Uiso   1.00
H1398  H     0.13307   0.98938   0.89636   0.00000  Uiso   1.00
H1399  H     0.12431   0.99892   0.78488   0.00000  Uiso   1.00
H1400  H     0.13722   0.82196   0.60263   0.00000  Uiso   1.00
H1401  H     0.26120   0.78897   0.59343   0.00000  Uiso   1.00
H1402  H     0.24719   0.76098   0.96210   0.00000  Uiso   1.00
H1403  H     0.05238   0.89251   0.97874   0.00000  Uiso   1.00
H1404  H     0.07641   0.89128   0.90688   0.00000  Uiso   1.00
O1405  O     0.16667   0.83333   0.75000   0.00000  Uiso   1.00
O1406  O     0.15693   0.79060   0.66625   0.00000  Uiso   1.00
O1407  O     0.12687   0.87313   0.83749   0.00000  Uiso   1.00
O1408  O     0.21088   0.84159   0.65877   0.00000  Uiso   1.00
O1409  O     0.17198   0.82802   0.83749   0.00000  Uiso   1.00
O1410  O     0.28524   0.77040   0.51313   0.00000  Uiso   1.00
O1411  O     0.02445   0.83637   0.69541   0.00000  Uiso   1.00
O1412  O     0.19620   0.76933   0.92218   0.00000  Uiso   1.00
O1413  O     0.17849   0.74768   0.77821   0.00000  Uiso   1.00
O1414  O     0.14581   0.92803   0.76767   0.00000  Uiso   1.00
O1415  O     0.07452   0.79917   0.73607   0.00000  Uiso   1.00
O1416  O     0.26785   0.85845   0.71806   0.00000  Uiso   1.00
O1417  O     0.06990   0.85627   0.77820   0.00000  Uiso   1.00
O1418  O     0.25440   0.81944   0.76768   0.00000  Uiso   1.00
O1419  O     0.13800   0.73570   0.73607   0.00000  Uiso   1.00
O1420  O     0.20437   0.92193   0.71806   0.00000  Uiso   1.00
Zn1421 Zn    0.19244   0.80756   0.78278   0.00000  Uiso   1.00
Zn1422 Zn    0.13459   0.79044   0.72258   0.00000  Uiso   1.00
Zn1423 Zn    0.21166   0.86331   0.71188   0.00000  Uiso   1.00
Zn1424 Zn    0.12798   0.87202   0.78277   0.00000  Uiso   1.00
C1425  C     0.38569   0.82664   0.75924   0.00000  Uiso   1.00
C1426  C     0.52548   0.78790   0.96025   0.00000  Uiso   1.00
C1427  C     0.55416   0.77866   0.97915   0.00000  Uiso   1.00
C1428  C     0.61473   0.83900   0.74002   0.00000  Uiso   1.00
C1429  C     0.54787   0.78973   0.51949   0.00000  Uiso   1.00
C1430  C     0.50951   0.80743   0.54203   0.00000  Uiso   1.00
C1431  C     0.57895   0.78215   0.53750   0.00000  Uiso   1.00
C1432  C     0.57065   0.79176   0.57862   0.00000  Uiso   1.00
C1433  C     0.50044   0.81182   0.58338   0.00000  Uiso   1.00
C1434  C     0.66139   0.83663   0.73283   0.00000  Uiso   1.00
C1435  C     0.34047   0.82694   0.76272   0.00000  Uiso   1.00
C1436  C     0.42793   0.87683   0.92143   0.00000  Uiso   1.00
C1437  C     0.51428   0.98892   0.73798   0.00000  Uiso   1.00
C1438  C     0.48497   0.67879   0.76232   0.00000  Uiso   1.00
C1439  C     0.48924   0.72283   0.75900   0.00000  Uiso   1.00
C1440  C     0.51024   0.94441   0.74131   0.00000  Uiso   1.00
C1441  C     0.52158   0.81223   0.64395   0.00000  Uiso   1.00
C1442  C     0.47847   0.85414   0.85628   0.00000  Uiso   1.00
C1443  C     0.46506   0.85810   0.89968   0.00000  Uiso   1.00
C1444  C     0.53082   0.80437   0.60129   0.00000  Uiso   1.00
C1445  C     0.41389   0.87695   0.96233   0.00000  Uiso   1.00
C1446  C     0.63819   0.74439   0.52993   0.00000  Uiso   1.00
C1447  C     0.48779   0.83959   0.91932   0.00000  Uiso   1.00
C1448  C     0.34477   0.76908   0.53994   0.00000  Uiso   1.00
C1449  C     0.36643   0.74263   0.55905   0.00000  Uiso   1.00
C1450  C     0.35667   0.87035   0.67497   0.00000  Uiso   1.00
C1451  C     0.33933   0.85409   0.63951   0.00000  Uiso   1.00
C1452  C     0.66562   0.88997   0.61948   0.00000  Uiso   1.00
C1453  C     0.49458   0.73772   0.92177   0.00000  Uiso   1.00
C1454  C     0.50439   0.69607   0.93108   0.00000  Uiso   1.00
C1455  C     0.46896   0.99406   0.92705   0.00000  Uiso   1.00
C1456  C     0.47232   0.83628   0.96016   0.00000  Uiso   1.00
C1457  C     0.43602   0.85723   0.98184   0.00000  Uiso   1.00
C1458  C     0.49361   0.81519   0.98030   0.00000  Uiso   1.00
C1459  C     0.48272   0.82149   0.52226   0.00000  Uiso   1.00
C1460  C     0.44665   0.84325   0.54276   0.00000  Uiso   1.00
C1461  C     0.42303   0.85954   0.52281   0.00000  Uiso   1.00
H1462  H     0.39553   0.87581   0.53964   0.00000  Uiso   1.00
H1463  H     0.51837   0.82916   0.90220   0.00000  Uiso   1.00
H1464  H     0.43611   0.84902   0.57437   0.00000  Uiso   1.00
H1465  H     0.64926   0.71823   0.50721   0.00000  Uiso   1.00
H1466  H     0.61576   0.72915   0.55567   0.00000  Uiso   1.00
H1467  H     0.36842   0.77943   0.51242   0.00000  Uiso   1.00
H1468  H     0.33546   0.79745   0.56023   0.00000  Uiso   1.00
H1469  H     0.34366   0.73264   0.58708   0.00000  Uiso   1.00
H1470  H     0.39531   0.76139   0.56565   0.00000  Uiso   1.00
H1471  H     0.37699   0.71454   0.53881   0.00000  Uiso   1.00
H1472  H     0.39054   0.88481   0.66353   0.00000  Uiso   1.00
H1473  H     0.65153   0.82649   0.79223   0.00000  Uiso   1.00
H1474  H     0.33886   0.89605   0.69390   0.00000  Uiso   1.00
H1475  H     0.36279   0.83463   0.61792   0.00000  Uiso   1.00
H1476  H     0.64159   0.83378   0.64885   0.00000  Uiso   1.00
H1477  H     0.64094   0.90879   0.64025   0.00000  Uiso   1.00
H1478  H     0.65390   0.87708   0.59354   0.00000  Uiso   1.00
H1479  H     0.36310   0.91049   0.60939   0.00000  Uiso   1.00
H1480  H     0.49066   0.73348   0.89155   0.00000  Uiso   1.00
H1481  H     0.46301   0.74636   0.94204   0.00000  Uiso   1.00
H1482  H     0.53583   0.68785   0.91057   0.00000  Uiso   1.00
H1483  H     0.50695   0.69924   0.96173   0.00000  Uiso   1.00
H1484  H     0.54130   0.66959   0.71557   0.00000  Uiso   1.00
H1485  H     0.43730   0.66804   0.94769   0.00000  Uiso   1.00
H1486  H     0.47695   0.96451   0.93422   0.00000  Uiso   1.00
H1487  H     0.46640   0.98938   0.89636   0.00000  Uiso   1.00
H1488  H     0.45764   0.99892   0.78488   0.00000  Uiso   1.00
H1489  H     0.47056   0.82196   0.60263   0.00000  Uiso   1.00
H1490  H     0.59453   0.78897   0.59343   0.00000  Uiso   1.00
H1491  H     0.58053   0.76098   0.96210   0.00000  Uiso   1.00
H1492  H     0.38571   0.89251   0.97874   0.00000  Uiso   1.00
H1493  H     0.40974   0.89128   0.90688   0.00000  Uiso   1.00
O1494  O     0.50000   0.83333   0.75000   0.00000  Uiso   1.00
O1495  O     0.49027   0.79060   0.66625   0.00000  Uiso   1.00
O1496  O     0.46020   0.87313   0.83749   0.00000  Uiso   1.00
O1497  O     0.54421   0.84159   0.65877   0.00000  Uiso   1.00
O1498  O     0.50532   0.82802   0.83749   0.00000  Uiso   1.00
O1499  O     0.61857   0.77040   0.51313   0.00000  Uiso   1.00
O1500  O     0.35779   0.83637   0.69541   0.00000  Uiso   1.00
O1501  O     0.52953   0.76933   0.92218   0.00000  Uiso   1.00
O1502  O     0.51182   0.74768   0.77821   0.00000  Uiso   1.00
O1503  O     0.47914   0.92803   0.76767   0.00000  Uiso   1.00
O1504  O     0.40785   0.79917   0.73607   0.00000  Uiso   1.00
O1505  O     0.60119   0.85845   0.71806   0.00000  Uiso   1.00
O1506  O     0.40323   0.85627   0.77820   0.00000  Uiso   1.00
O1507  O     0.58773   0.81944   0.76768   0.00000  Uiso   1.00
O1508  O     0.47133   0.73570   0.73607   0.00000  Uiso   1.00
O1509  O     0.53771   0.92193   0.71806   0.00000  Uiso   1.00
Zn1510 Zn    0.52577   0.80756   0.78278   0.00000  Uiso   1.00
Zn1511 Zn    0.46792   0.79044   0.72258   0.00000  Uiso   1.00
Zn1512 Zn    0.54500   0.86331   0.71188   0.00000  Uiso   1.00
Zn1513 Zn    0.46131   0.87202   0.78277   0.00000  Uiso   1.00
C1514  C     0.71902   0.82664   0.75924   0.00000  Uiso   1.00
C1515  C     0.85882   0.78790   0.96025   0.00000  Uiso   1.00
C1516  C     0.88749   0.77866   0.97915   0.00000  Uiso   1.00
C1517  C     0.94806   0.83900   0.74002   0.00000  Uiso   1.00
C1518  C     0.88120   0.78973   0.51949   0.00000  Uiso   1.00
C1519  C     0.84285   0.80743   0.54203   0.00000  Uiso   1.00
C1520  C     0.91229   0.78215   0.53750   0.00000  Uiso   1.00
C1521  C     0.90398   0.79176   0.57862   0.00000  Uiso   1.00
C1522  C     0.83377   0.81182   0.58338   0.00000  Uiso   1.00
C1523  C     0.99472   0.83663   0.73283   0.00000  Uiso   1.00
C1524  C     0.67380   0.82694   0.76272   0.00000  Uiso   1.00
C1525  C     0.76126   0.87683   0.92143   0.00000  Uiso   1.00
C1526  C     0.84761   0.98892   0.73798   0.00000  Uiso   1.00
C1527  C     0.81830   0.67879   0.76232   0.00000  Uiso   1.00
C1528  C     0.82257   0.72283   0.75900   0.00000  Uiso   1.00
C1529  C     0.84358   0.94441   0.74131   0.00000  Uiso   1.00
C1530  C     0.85491   0.81223   0.64395   0.00000  Uiso   1.00
C1531  C     0.81181   0.85414   0.85628   0.00000  Uiso   1.00
C1532  C     0.79839   0.85810   0.89968   0.00000  Uiso   1.00
C1533  C     0.86415   0.80437   0.60129   0.00000  Uiso   1.00
C1534  C     0.74722   0.87695   0.96233   0.00000  Uiso   1.00
C1535  C     0.97152   0.74439   0.52993   0.00000  Uiso   1.00
C1536  C     0.82113   0.83959   0.91932   0.00000  Uiso   1.00
C1537  C     0.67810   0.76908   0.53994   0.00000  Uiso   1.00
C1538  C     0.69977   0.74263   0.55905   0.00000  Uiso   1.00
C1539  C     0.69001   0.87035   0.67497   0.00000  Uiso   1.00
C1540  C     0.67266   0.85409   0.63951   0.00000  Uiso   1.00
C1541  C     0.99895   0.88997   0.61948   0.00000  Uiso   1.00
C1542  C     0.82791   0.73772   0.92177   0.00000  Uiso   1.00
C1543  C     0.83773   0.69607   0.93108   0.00000  Uiso   1.00
C1544  C     0.80230   0.99406   0.92705   0.00000  Uiso   1.00
C1545  C     0.80566   0.83628   0.96016   0.00000  Uiso   1.00
C1546  C     0.76935   0.85723   0.98184   0.00000  Uiso   1.00
C1547  C     0.82694   0.81519   0.98030   0.00000  Uiso   1.00
C1548  C     0.81605   0.82149   0.52226   0.00000  Uiso   1.00
C1549  C     0.77998   0.84325   0.54276   0.00000  Uiso   1.00
C1550  C     0.75636   0.85954   0.52281   0.00000  Uiso   1.00
H1551  H     0.72886   0.87581   0.53964   0.00000  Uiso   1.00
H1552  H     0.85170   0.82916   0.90220   0.00000  Uiso   1.00
H1553  H     0.76944   0.84902   0.57437   0.00000  Uiso   1.00
H1554  H     0.98259   0.71823   0.50721   0.00000  Uiso   1.00
H1555  H     0.94909   0.72915   0.55567   0.00000  Uiso   1.00
H1556  H     0.70175   0.77943   0.51242   0.00000  Uiso   1.00
H1557  H     0.66879   0.79745   0.56023   0.00000  Uiso   1.00
H1558  H     0.67699   0.73264   0.58708   0.00000  Uiso   1.00
H1559  H     0.72865   0.76139   0.56565   0.00000  Uiso   1.00
H1560  H     0.71032   0.71454   0.53881   0.00000  Uiso   1.00
H1561  H     0.72387   0.88481   0.66353   0.00000  Uiso   1.00
H1562  H     0.98486   0.82649   0.79223   0.00000  Uiso   1.00
H1563  H     0.67219   0.89605   0.69390   0.00000  Uiso   1.00
H1564  H     0.69612   0.83463   0.61792   0.00000  Uiso   1.00
H1565  H     0.97492   0.83378   0.64885   0.00000  Uiso   1.00
H1566  H     0.97427   0.90879   0.64025   0.00000  Uiso   1.00
H1567  H     0.98724   0.87708   0.59354   0.00000  Uiso   1.00
H1568  H     0.69643   0.91049   0.60939   0.00000  Uiso   1.00
H1569  H     0.82399   0.73348   0.89155   0.00000  Uiso   1.00
H1570  H     0.79634   0.74636   0.94204   0.00000  Uiso   1.00
H1571  H     0.86916   0.68785   0.91057   0.00000  Uiso   1.00
H1572  H     0.84028   0.69924   0.96173   0.00000  Uiso   1.00
H1573  H     0.87463   0.66959   0.71557   0.00000  Uiso   1.00
H1574  H     0.77063   0.66804   0.94769   0.00000  Uiso   1.00
H1575  H     0.81028   0.96451   0.93422   0.00000  Uiso   1.00
H1576  H     0.79973   0.98938   0.89636   0.00000  Uiso   1.00
H1577  H     0.79097   0.99892   0.78488   0.00000  Uiso   1.00
H1578  H     0.80389   0.82196   0.60263   0.00000  Uiso   1.00
H1579  H     0.92786   0.78897   0.59343   0.00000  Uiso   1.00
H1580  H     0.91386   0.76098   0.96210   0.00000  Uiso   1.00
H1581  H     0.71905   0.89251   0.97874   0.00000  Uiso   1.00
H1582  H     0.74307   0.89128   0.90688   0.00000  Uiso   1.00
O1583  O     0.83333   0.83333   0.75000   0.00000  Uiso   1.00
O1584  O     0.82360   0.79060   0.66625   0.00000  Uiso   1.00
O1585  O     0.79354   0.87313   0.83749   0.00000  Uiso   1.00
O1586  O     0.87755   0.84159   0.65877   0.00000  Uiso   1.00
O1587  O     0.83865   0.82802   0.83749   0.00000  Uiso   1.00
O1588  O     0.95191   0.77040   0.51313   0.00000  Uiso   1.00
O1589  O     0.69112   0.83637   0.69541   0.00000  Uiso   1.00
O1590  O     0.86287   0.76933   0.92218   0.00000  Uiso   1.00
O1591  O     0.84515   0.74768   0.77821   0.00000  Uiso   1.00
O1592  O     0.81247   0.92803   0.76767   0.00000  Uiso   1.00
O1593  O     0.74119   0.79917   0.73607   0.00000  Uiso   1.00
O1594  O     0.93452   0.85845   0.71806   0.00000  Uiso   1.00
O1595  O     0.73656   0.85627   0.77820   0.00000  Uiso   1.00
O1596  O     0.92106   0.81944   0.76768   0.00000  Uiso   1.00
O1597  O     0.80467   0.73570   0.73607   0.00000  Uiso   1.00
O1598  O     0.87104   0.92193   0.71806   0.00000  Uiso   1.00
Zn1599 Zn    0.85910   0.80756   0.78278   0.00000  Uiso   1.00
Zn1600 Zn    0.80125   0.79044   0.72258   0.00000  Uiso   1.00
Zn1601 Zn    0.87833   0.86331   0.71188   0.00000  Uiso   1.00
Zn1602 Zn    0.79465   0.87202   0.78277   0.00000  Uiso   1.00
loop_
_geom_bond_atom_site_label_1
_geom_bond_atom_site_label_2
_geom_bond_distance
_geom_bond_site_symmetry_2
_ccdc_geom_bond_type
C1     C11     1.441   .     S
C1     O82     1.264   .     A
C1     O80     1.277   .     A
C2     C3      1.389   .     A
C2     O77     1.385   .     S
C2     C34     1.424   .     A
C3     H67     1.084   .     S
C3     C806    1.396   .     S
C4     O81     1.278   .     A
C4     C10     1.475   .     S
C4     O83     1.281   .     A
C5     C6      1.422   .     A
C5     C7      1.415   .     A
C5     C804    1.396   1_554 S
C6     C9      1.408   .     A
C6     C35     1.428   .     A
C7     C8      1.410   .     A
C7     O75     1.397   .     S
C8     H66     1.082   .     S
C8     C20     1.394   .     A
C9     C20     1.391   .     A
C9     H65     1.078   .     S
C10    C100    1.337   .     S
C10    O165    1.397   .     S
C11    C188    1.337   1_455 S
C11    H227    1.087   1_455 S
C12    H69     1.083   .     S
C12    C21     1.394   .     A
C12    C19     1.400   .     A
C13    C16     1.449   .     S
C13    C281    1.331   .     S
C13    H327    1.088   .     S
C14    C15     1.433   .     S
C14    C547    1.331   1_545 S
C14    H598    1.086   1_545 S
C15    O84     1.278   .     A
C15    O78     1.278   .     A
C16    O85     1.267   .     A
C16    O79     1.267   .     A
C17    C20     1.455   .     S
C17    O73     1.271   .     A
C17    O71     1.275   .     A
C18    C19     1.472   .     S
C18    O74     1.282   .     A
C18    O72     1.282   .     A
C19    C23     1.399   .     A
C21    C33     1.404   .     A
C21    H68     1.084   .     S
C22    H41     1.111   .     S
C22    O75     1.416   .     S
C22    H42     1.114   .     S
C22    C113    1.532   .     S
C23    C32     1.408   .     A
C23    H39     1.077   .     S
C24    C25     1.525   .     S
C24    H44     1.110   .     S
C24    H43     1.111   .     S
C24    C200    1.532   1_455 S
C25    H47     1.111   .     S
C25    H45     1.111   .     S
C25    H46     1.110   .     S
C26    C27     1.534   .     S
C26    H50     1.115   .     S
C26    O76     1.414   .     S
C26    H48     1.111   .     S
C27    H51     1.111   .     S
C27    C206    1.525   1_455 S
C27    H230    1.110   1_455 S
C28    H54     1.111   .     S
C28    H53     1.111   .     S
C28    C116    1.525   .     S
C28    H144    1.111   .     S
C29    C30     1.534   .     S
C29    H57     1.116   .     S
C29    H56     1.111   .     S
C29    O77     1.417   .     S
C30    H59     1.111   .     S
C30    H58     1.112   .     S
C30    C565    1.526   1_545 S
C31    H62     1.111   .     S
C31    H63     1.111   .     S
C31    C297    1.526   .     S
C31    H328    1.111   .     S
C32    C34     1.427   .     A
C32    C33     1.416   .     A
C33    C838    1.391   .     S
C34    C836    1.425   .     S
C35    C36     1.416   .     A
C35    C835    1.425   1_554 S
C36    C37     1.388   .     A
C36    H40     1.075   .     S
C37    H38     1.083   .     S
C37    C834    1.391   1_554 S
H49    C100    1.087   .     S
H52    C116    1.110   .     S
H55    C206    1.111   1_455 S
H60    C547    1.088   1_545 S
H61    C565    1.111   1_545 S
H64    C281    1.086   .     S
O70    Zn88    1.924   .     S
O70    Zn87    1.947   .     S
O70    Zn89    1.927   .     S
O70    Zn86    1.958   .     S
O71    Zn87    1.925   .     S
O72    Zn89    1.938   .     S
O73    Zn88    1.935   .     S
O74    Zn86    1.923   .     S
O76    C188    1.397   1_455 S
O78    Zn86    1.925   .     S
O79    Zn89    1.924   .     S
O80    Zn87    1.924   .     S
O81    Zn88    1.937   .     S
O82    Zn89    1.934   .     S
O83    Zn86    1.921   .     S
O84    Zn87    1.930   .     S
O85    Zn88    1.926   .     S
C90    C100    1.441   .     S
C90    O171    1.264   .     A
C90    O169    1.277   .     A
C91    C92     1.389   .     A
C91    O166    1.385   .     S
C91    C123    1.424   .     A
C92    H156    1.084   .     S
C92    C895    1.396   .     S
C93    O170    1.278   .     A
C93    C99     1.475   .     S
C93    O172    1.281   .     A
C94    C95     1.422   .     A
C94    C96     1.415   .     A
C94    C893    1.396   1_554 S
C95    C98     1.408   .     A
C95    C124    1.428   .     A
C96    C97     1.410   .     A
C96    O164    1.397   .     S
C97    H155    1.082   .     S
C97    C109    1.394   .     A
C98    C109    1.391   .     A
C98    H154    1.078   .     S
C99    C189    1.337   .     S
C99    O254    1.397   .     S
C101   H158    1.083   .     S
C101   C110    1.394   .     A
C101   C108    1.400   .     A
C102   C105    1.449   .     S
C102   C370    1.331   .     S
C102   H416    1.088   .     S
C103   C104    1.433   .     S
C103   C636    1.331   1_545 S
C103   H687    1.086   1_545 S
C104   O173    1.278   .     A
C104   O167    1.278   .     A
C105   O174    1.267   .     A
C105   O168    1.267   .     A
C106   C109    1.455   .     S
C106   O162    1.271   .     A
C106   O160    1.275   .     A
C107   C108    1.472   .     S
C107   O163    1.282   .     A
C107   O161    1.282   .     A
C108   C112    1.399   .     A
C110   C122    1.404   .     A
C110   H157    1.084   .     S
C111   H130    1.111   .     S
C111   O164    1.416   .     S
C111   H131    1.114   .     S
C111   C202    1.532   .     S
C112   C121    1.408   .     A
C112   H128    1.077   .     S
C113   C114    1.525   .     S
C113   H133    1.110   .     S
C113   H132    1.111   .     S
C114   H136    1.111   .     S
C114   H134    1.111   .     S
C114   H135    1.110   .     S
C115   C116    1.534   .     S
C115   H139    1.115   .     S
C115   O165    1.414   .     S
C115   H137    1.111   .     S
C116   H140    1.111   .     S
C117   H143    1.111   .     S
C117   H142    1.111   .     S
C117   C205    1.525   .     S
C117   H233    1.111   .     S
C118   C119    1.534   .     S
C118   H146    1.116   .     S
C118   H145    1.111   .     S
C118   O166    1.417   .     S
C119   H148    1.111   .     S
C119   H147    1.112   .     S
C119   C654    1.526   1_545 S
C120   H151    1.111   .     S
C120   H152    1.111   .     S
C120   C386    1.526   .     S
C120   H417    1.111   .     S
C121   C123    1.427   .     A
C121   C122    1.416   .     A
C122   C927    1.391   .     S
C123   C925    1.425   .     S
C124   C125    1.416   .     A
C124   C924    1.425   1_554 S
C125   C126    1.388   .     A
C125   H129    1.075   .     S
C126   H127    1.083   .     S
C126   C923    1.391   1_554 S
H138   C189    1.087   .     S
H141   C205    1.110   .     S
H149   C636    1.088   1_545 S
H150   C654    1.111   1_545 S
H153   C370    1.086   .     S
O159   Zn177   1.924   .     S
O159   Zn176   1.947   .     S
O159   Zn178   1.927   .     S
O159   Zn175   1.958   .     S
O160   Zn176   1.925   .     S
O161   Zn178   1.938   .     S
O162   Zn177   1.935   .     S
O163   Zn175   1.923   .     S
O167   Zn175   1.925   .     S
O168   Zn178   1.924   .     S
O169   Zn176   1.924   .     S
O170   Zn177   1.937   .     S
O171   Zn178   1.934   .     S
O172   Zn175   1.921   .     S
O173   Zn176   1.930   .     S
O174   Zn177   1.926   .     S
C179   C189    1.441   .     S
C179   O260    1.264   .     A
C179   O258    1.277   .     A
C180   C181    1.389   .     A
C180   O255    1.385   .     S
C180   C212    1.424   .     A
C181   H245    1.084   .     S
C181   C984    1.396   .     S
C182   O259    1.278   .     A
C182   C188    1.475   .     S
C182   O261    1.281   .     A
C183   C184    1.422   .     A
C183   C185    1.415   .     A
C183   C982    1.396   1_554 S
C184   C187    1.408   .     A
C184   C213    1.428   .     A
C185   C186    1.410   .     A
C185   O253    1.397   .     S
C186   H244    1.082   .     S
C186   C198    1.394   .     A
C187   C198    1.391   .     A
C187   H243    1.078   .     S
C188   C11     1.337   1_655 S
C188   O76     1.397   1_655 S
C190   H247    1.083   .     S
C190   C199    1.394   .     A
C190   C197    1.400   .     A
C191   C194    1.449   .     S
C191   C459    1.331   .     S
C191   H505    1.088   .     S
C192   C193    1.433   .     S
C192   C725    1.331   1_545 S
C192   H776    1.086   1_545 S
C193   O262    1.278   .     A
C193   O256    1.278   .     A
C194   O263    1.267   .     A
C194   O257    1.267   .     A
C195   C198    1.455   .     S
C195   O251    1.271   .     A
C195   O249    1.275   .     A
C196   C197    1.472   .     S
C196   O252    1.282   .     A
C196   O250    1.282   .     A
C197   C201    1.399   .     A
C199   C211    1.404   .     A
C199   H246    1.084   .     S
C200   H219    1.111   .     S
C200   O253    1.416   .     S
C200   H220    1.114   .     S
C200   C24     1.532   1_655 S
C201   C210    1.408   .     A
C201   H217    1.077   .     S
C202   C203    1.525   .     S
C202   H222    1.110   .     S
C202   H221    1.111   .     S
C203   H225    1.111   .     S
C203   H223    1.111   .     S
C203   H224    1.110   .     S
C204   C205    1.534   .     S
C204   H228    1.115   .     S
C204   O254    1.414   .     S
C204   H226    1.111   .     S
C205   H229    1.111   .     S
C206   H232    1.111   .     S
C206   H231    1.111   .     S
C206   C27     1.525   1_655 S
C206   H55     1.111   1_655 S
C207   C208    1.534   .     S
C207   H235    1.116   .     S
C207   H234    1.111   .     S
C207   O255    1.417   .     S
C208   H237    1.111   .     S
C208   H236    1.112   .     S
C208   C743    1.526   1_545 S
C209   H240    1.111   .     S
C209   H241    1.111   .     S
C209   C475    1.526   .     S
C209   H506    1.111   .     S
C210   C212    1.427   .     A
C210   C211    1.416   .     A
C211   C1016   1.391   .     S
C212   C1014   1.425   .     S
C213   C214    1.416   .     A
C213   C1013   1.425   1_554 S
C214   C215    1.388   .     A
C214   H218    1.075   .     S
C215   H216    1.083   .     S
C215   C1012   1.391   1_554 S
H227   C11     1.087   1_655 S
H230   C27     1.110   1_655 S
H238   C725    1.088   1_545 S
H239   C743    1.111   1_545 S
H242   C459    1.086   .     S
O248   Zn266   1.924   .     S
O248   Zn265   1.947   .     S
O248   Zn267   1.927   .     S
O248   Zn264   1.958   .     S
O249   Zn265   1.925   .     S
O250   Zn267   1.938   .     S
O251   Zn266   1.935   .     S
O252   Zn264   1.923   .     S
O256   Zn264   1.925   .     S
O257   Zn267   1.924   .     S
O258   Zn265   1.924   .     S
O259   Zn266   1.937   .     S
O260   Zn267   1.934   .     S
O261   Zn264   1.921   .     S
O262   Zn265   1.930   .     S
O263   Zn266   1.926   .     S
C268   C278    1.441   .     S
C268   O349    1.264   .     A
C268   O347    1.277   .     A
C269   C270    1.389   .     A
C269   O344    1.385   .     S
C269   C301    1.424   .     A
C270   H334    1.084   .     S
C270   C1073   1.396   .     S
C271   O348    1.278   .     A
C271   C277    1.475   .     S
C271   O350    1.281   .     A
C272   C273    1.422   .     A
C272   C274    1.415   .     A
C272   C1071   1.396   1_554 S
C273   C276    1.408   .     A
C273   C302    1.428   .     A
C274   C275    1.410   .     A
C274   O342    1.397   .     S
C275   H333    1.082   .     S
C275   C287    1.394   .     A
C276   C287    1.391   .     A
C276   H332    1.078   .     S
C277   C367    1.337   .     S
C277   O432    1.397   .     S
C278   C455    1.337   1_455 S
C278   H494    1.087   1_455 S
C279   H336    1.083   .     S
C279   C288    1.394   .     A
C279   C286    1.400   .     A
C280   C283    1.449   .     S
C280   C548    1.331   .     S
C280   H594    1.088   .     S
C281   C282    1.433   .     S
C282   O351    1.278   .     A
C282   O345    1.278   .     A
C283   O352    1.267   .     A
C283   O346    1.267   .     A
C284   C287    1.455   .     S
C284   O340    1.271   .     A
C284   O338    1.275   .     A
C285   C286    1.472   .     S
C285   O341    1.282   .     A
C285   O339    1.282   .     A
C286   C290    1.399   .     A
C288   C300    1.404   .     A
C288   H335    1.084   .     S
C289   H308    1.111   .     S
C289   O342    1.416   .     S
C289   H309    1.114   .     S
C289   C380    1.532   .     S
C290   C299    1.408   .     A
C290   H306    1.077   .     S
C291   C292    1.525   .     S
C291   H311    1.110   .     S
C291   H310    1.111   .     S
C291   C467    1.532   1_455 S
C292   H314    1.111   .     S
C292   H312    1.111   .     S
C292   H313    1.110   .     S
C293   C294    1.534   .     S
C293   H317    1.115   .     S
C293   O343    1.414   .     S
C293   H315    1.111   .     S
C294   H318    1.111   .     S
C294   C473    1.525   1_455 S
C294   H497    1.110   1_455 S
C295   H321    1.111   .     S
C295   H320    1.111   .     S
C295   C383    1.525   .     S
C295   H411    1.111   .     S
C296   C297    1.534   .     S
C296   H324    1.116   .     S
C296   H323    1.111   .     S
C296   O344    1.417   .     S
C297   H326    1.111   .     S
C297   H325    1.112   .     S
C298   H329    1.111   .     S
C298   H330    1.111   .     S
C298   C564    1.526   .     S
C298   H595    1.111   .     S
C299   C301    1.427   .     A
C299   C300    1.416   .     A
C300   C1105   1.391   .     S
C301   C1103   1.425   .     S
C302   C303    1.416   .     A
C302   C1102   1.425   1_554 S
C303   C304    1.388   .     A
C303   H307    1.075   .     S
C304   H305    1.083   .     S
C304   C1101   1.391   1_554 S
H316   C367    1.087   .     S
H319   C383    1.110   .     S
H322   C473    1.111   1_455 S
H331   C548    1.086   .     S
O337   Zn355   1.924   .     S
O337   Zn354   1.947   .     S
O337   Zn356   1.927   .     S
O337   Zn353   1.958   .     S
O338   Zn354   1.925   .     S
O339   Zn356   1.938   .     S
O340   Zn355   1.935   .     S
O341   Zn353   1.923   .     S
O343   C455    1.397   1_455 S
O345   Zn353   1.925   .     S
O346   Zn356   1.924   .     S
O347   Zn354   1.924   .     S
O348   Zn355   1.937   .     S
O349   Zn356   1.934   .     S
O350   Zn353   1.921   .     S
O351   Zn354   1.930   .     S
O352   Zn355   1.926   .     S
C357   C367    1.441   .     S
C357   O438    1.264   .     A
C357   O436    1.277   .     A
C358   C359    1.389   .     A
C358   O433    1.385   .     S
C358   C390    1.424   .     A
C359   H423    1.084   .     S
C359   C1162   1.396   .     S
C360   O437    1.278   .     A
C360   C366    1.475   .     S
C360   O439    1.281   .     A
C361   C362    1.422   .     A
C361   C363    1.415   .     A
C361   C1160   1.396   1_554 S
C362   C365    1.408   .     A
C362   C391    1.428   .     A
C363   C364    1.410   .     A
C363   O431    1.397   .     S
C364   H422    1.082   .     S
C364   C376    1.394   .     A
C365   C376    1.391   .     A
C365   H421    1.078   .     S
C366   C456    1.337   .     S
C366   O521    1.397   .     S
C368   H425    1.083   .     S
C368   C377    1.394   .     A
C368   C375    1.400   .     A
C369   C372    1.449   .     S
C369   C637    1.331   .     S
C369   H683    1.088   .     S
C370   C371    1.433   .     S
C371   O440    1.278   .     A
C371   O434    1.278   .     A
C372   O441    1.267   .     A
C372   O435    1.267   .     A
C373   C376    1.455   .     S
C373   O429    1.271   .     A
C373   O427    1.275   .     A
C374   C375    1.472   .     S
C374   O430    1.282   .     A
C374   O428    1.282   .     A
C375   C379    1.399   .     A
C377   C389    1.404   .     A
C377   H424    1.084   .     S
C378   H397    1.111   .     S
C378   O431    1.416   .     S
C378   H398    1.114   .     S
C378   C469    1.532   .     S
C379   C388    1.408   .     A
C379   H395    1.077   .     S
C380   C381    1.525   .     S
C380   H400    1.110   .     S
C380   H399    1.111   .     S
C381   H403    1.111   .     S
C381   H401    1.111   .     S
C381   H402    1.110   .     S
C382   C383    1.534   .     S
C382   H406    1.115   .     S
C382   O432    1.414   .     S
C382   H404    1.111   .     S
C383   H407    1.111   .     S
C384   H410    1.111   .     S
C384   H409    1.111   .     S
C384   C472    1.525   .     S
C384   H500    1.111   .     S
C385   C386    1.534   .     S
C385   H413    1.116   .     S
C385   H412    1.111   .     S
C385   O433    1.417   .     S
C386   H415    1.111   .     S
C386   H414    1.112   .     S
C387   H418    1.111   .     S
C387   H419    1.111   .     S
C387   C653    1.526   .     S
C387   H684    1.111   .     S
C388   C390    1.427   .     A
C388   C389    1.416   .     A
C389   C1194   1.391   .     S
C390   C1192   1.425   .     S
C391   C392    1.416   .     A
C391   C1191   1.425   1_554 S
C392   C393    1.388   .     A
C392   H396    1.075   .     S
C393   H394    1.083   .     S
C393   C1190   1.391   1_554 S
H405   C456    1.087   .     S
H408   C472    1.110   .     S
H420   C637    1.086   .     S
O426   Zn444   1.924   .     S
O426   Zn443   1.947   .     S
O426   Zn445   1.927   .     S
O426   Zn442   1.958   .     S
O427   Zn443   1.925   .     S
O428   Zn445   1.938   .     S
O429   Zn444   1.935   .     S
O430   Zn442   1.923   .     S
O434   Zn442   1.925   .     S
O435   Zn445   1.924   .     S
O436   Zn443   1.924   .     S
O437   Zn444   1.937   .     S
O438   Zn445   1.934   .     S
O439   Zn442   1.921   .     S
O440   Zn443   1.930   .     S
O441   Zn444   1.926   .     S
C446   C456    1.441   .     S
C446   O527    1.264   .     A
C446   O525    1.277   .     A
C447   C448    1.389   .     A
C447   O522    1.385   .     S
C447   C479    1.424   .     A
C448   H512    1.084   .     S
C448   C1251   1.396   .     S
C449   O526    1.278   .     A
C449   C455    1.475   .     S
C449   O528    1.281   .     A
C450   C451    1.422   .     A
C450   C452    1.415   .     A
C450   C1249   1.396   1_554 S
C451   C454    1.408   .     A
C451   C480    1.428   .     A
C452   C453    1.410   .     A
C452   O520    1.397   .     S
C453   H511    1.082   .     S
C453   C465    1.394   .     A
C454   C465    1.391   .     A
C454   H510    1.078   .     S
C455   C278    1.337   1_655 S
C455   O343    1.397   1_655 S
C457   H514    1.083   .     S
C457   C466    1.394   .     A
C457   C464    1.400   .     A
C458   C461    1.449   .     S
C458   C726    1.331   .     S
C458   H772    1.088   .     S
C459   C460    1.433   .     S
C460   O529    1.278   .     A
C460   O523    1.278   .     A
C461   O530    1.267   .     A
C461   O524    1.267   .     A
C462   C465    1.455   .     S
C462   O518    1.271   .     A
C462   O516    1.275   .     A
C463   C464    1.472   .     S
C463   O519    1.282   .     A
C463   O517    1.282   .     A
C464   C468    1.399   .     A
C466   C478    1.404   .     A
C466   H513    1.084   .     S
C467   H486    1.111   .     S
C467   O520    1.416   .     S
C467   H487    1.114   .     S
C467   C291    1.532   1_655 S
C468   C477    1.408   .     A
C468   H484    1.077   .     S
C469   C470    1.525   .     S
C469   H489    1.110   .     S
C469   H488    1.111   .     S
C470   H492    1.111   .     S
C470   H490    1.111   .     S
C470   H491    1.110   .     S
C471   C472    1.534   .     S
C471   H495    1.115   .     S
C471   O521    1.414   .     S
C471   H493    1.111   .     S
C472   H496    1.111   .     S
C473   H499    1.111   .     S
C473   H498    1.111   .     S
C473   C294    1.525   1_655 S
C473   H322    1.111   1_655 S
C474   C475    1.534   .     S
C474   H502    1.116   .     S
C474   H501    1.111   .     S
C474   O522    1.417   .     S
C475   H504    1.111   .     S
C475   H503    1.112   .     S
C476   H507    1.111   .     S
C476   H508    1.111   .     S
C476   C742    1.526   .     S
C476   H773    1.111   .     S
C477   C479    1.427   .     A
C477   C478    1.416   .     A
C478   C1283   1.391   .     S
C479   C1281   1.425   .     S
C480   C481    1.416   .     A
C480   C1280   1.425   1_554 S
C481   C482    1.388   .     A
C481   H485    1.075   .     S
C482   H483    1.083   .     S
C482   C1279   1.391   1_554 S
H494   C278    1.087   1_655 S
H497   C294    1.110   1_655 S
H509   C726    1.086   .     S
O515   Zn533   1.924   .     S
O515   Zn532   1.947   .     S
O515   Zn534   1.927   .     S
O515   Zn531   1.958   .     S
O516   Zn532   1.925   .     S
O517   Zn534   1.938   .     S
O518   Zn533   1.935   .     S
O519   Zn531   1.923   .     S
O523   Zn531   1.925   .     S
O524   Zn534   1.924   .     S
O525   Zn532   1.924   .     S
O526   Zn533   1.937   .     S
O527   Zn534   1.934   .     S
O528   Zn531   1.921   .     S
O529   Zn532   1.930   .     S
O530   Zn533   1.926   .     S
C535   C545    1.441   .     S
C535   O616    1.264   .     A
C535   O614    1.277   .     A
C536   C537    1.389   .     A
C536   O611    1.385   .     S
C536   C568    1.424   .     A
C537   H601    1.084   .     S
C537   C1340   1.396   .     S
C538   O615    1.278   .     A
C538   C544    1.475   .     S
C538   O617    1.281   .     A
C539   C540    1.422   .     A
C539   C541    1.415   .     A
C539   C1338   1.396   1_554 S
C540   C543    1.408   .     A
C540   C569    1.428   .     A
C541   C542    1.410   .     A
C541   O609    1.397   .     S
C542   H600    1.082   .     S
C542   C554    1.394   .     A
C543   C554    1.391   .     A
C543   H599    1.078   .     S
C544   C634    1.337   .     S
C544   O699    1.397   .     S
C545   C722    1.337   1_455 S
C545   H761    1.087   1_455 S
C546   H603    1.083   .     S
C546   C555    1.394   .     A
C546   C553    1.400   .     A
C547   C550    1.449   .     S
C547   C14     1.331   1_565 S
C547   H60     1.088   1_565 S
C548   C549    1.433   .     S
C549   O618    1.278   .     A
C549   O612    1.278   .     A
C550   O619    1.267   .     A
C550   O613    1.267   .     A
C551   C554    1.455   .     S
C551   O607    1.271   .     A
C551   O605    1.275   .     A
C552   C553    1.472   .     S
C552   O608    1.282   .     A
C552   O606    1.282   .     A
C553   C557    1.399   .     A
C555   C567    1.404   .     A
C555   H602    1.084   .     S
C556   H575    1.111   .     S
C556   O609    1.416   .     S
C556   H576    1.114   .     S
C556   C647    1.532   .     S
C557   C566    1.408   .     A
C557   H573    1.077   .     S
C558   C559    1.525   .     S
C558   H578    1.110   .     S
C558   H577    1.111   .     S
C558   C734    1.532   1_455 S
C559   H581    1.111   .     S
C559   H579    1.111   .     S
C559   H580    1.110   .     S
C560   C561    1.534   .     S
C560   H584    1.115   .     S
C560   O610    1.414   .     S
C560   H582    1.111   .     S
C561   H585    1.111   .     S
C561   C740    1.525   1_455 S
C561   H764    1.110   1_455 S
C562   H588    1.111   .     S
C562   H587    1.111   .     S
C562   C650    1.525   .     S
C562   H678    1.111   .     S
C563   C564    1.534   .     S
C563   H591    1.116   .     S
C563   H590    1.111   .     S
C563   O611    1.417   .     S
C564   H593    1.111   .     S
C564   H592    1.112   .     S
C565   H596    1.111   .     S
C565   H597    1.111   .     S
C565   C30     1.526   1_565 S
C565   H61     1.111   1_565 S
C566   C568    1.427   .     A
C566   C567    1.416   .     A
C567   C1372   1.391   .     S
C568   C1370   1.425   .     S
C569   C570    1.416   .     A
C569   C1369   1.425   1_554 S
C570   C571    1.388   .     A
C570   H574    1.075   .     S
C571   H572    1.083   .     S
C571   C1368   1.391   1_554 S
H583   C634    1.087   .     S
H586   C650    1.110   .     S
H589   C740    1.111   1_455 S
H598   C14     1.086   1_565 S
O604   Zn622   1.924   .     S
O604   Zn621   1.947   .     S
O604   Zn623   1.927   .     S
O604   Zn620   1.958   .     S
O605   Zn621   1.925   .     S
O606   Zn623   1.938   .     S
O607   Zn622   1.935   .     S
O608   Zn620   1.923   .     S
O610   C722    1.397   1_455 S
O612   Zn620   1.925   .     S
O613   Zn623   1.924   .     S
O614   Zn621   1.924   .     S
O615   Zn622   1.937   .     S
O616   Zn623   1.934   .     S
O617   Zn620   1.921   .     S
O618   Zn621   1.930   .     S
O619   Zn622   1.926   .     S
C624   C634    1.441   .     S
C624   O705    1.264   .     A
C624   O703    1.277   .     A
C625   C626    1.389   .     A
C625   O700    1.385   .     S
C625   C657    1.424   .     A
C626   H690    1.084   .     S
C626   C1429   1.396   .     S
C627   O704    1.278   .     A
C627   C633    1.475   .     S
C627   O706    1.281   .     A
C628   C629    1.422   .     A
C628   C630    1.415   .     A
C628   C1427   1.396   1_554 S
C629   C632    1.408   .     A
C629   C658    1.428   .     A
C630   C631    1.410   .     A
C630   O698    1.397   .     S
C631   H689    1.082   .     S
C631   C643    1.394   .     A
C632   C643    1.391   .     A
C632   H688    1.078   .     S
C633   C723    1.337   .     S
C633   O788    1.397   .     S
C635   H692    1.083   .     S
C635   C644    1.394   .     A
C635   C642    1.400   .     A
C636   C639    1.449   .     S
C636   C103    1.331   1_565 S
C636   H149    1.088   1_565 S
C637   C638    1.433   .     S
C638   O707    1.278   .     A
C638   O701    1.278   .     A
C639   O708    1.267   .     A
C639   O702    1.267   .     A
C640   C643    1.455   .     S
C640   O696    1.271   .     A
C640   O694    1.275   .     A
C641   C642    1.472   .     S
C641   O697    1.282   .     A
C641   O695    1.282   .     A
C642   C646    1.399   .     A
C644   C656    1.404   .     A
C644   H691    1.084   .     S
C645   H664    1.111   .     S
C645   O698    1.416   .     S
C645   H665    1.114   .     S
C645   C736    1.532   .     S
C646   C655    1.408   .     A
C646   H662    1.077   .     S
C647   C648    1.525   .     S
C647   H667    1.110   .     S
C647   H666    1.111   .     S
C648   H670    1.111   .     S
C648   H668    1.111   .     S
C648   H669    1.110   .     S
C649   C650    1.534   .     S
C649   H673    1.115   .     S
C649   O699    1.414   .     S
C649   H671    1.111   .     S
C650   H674    1.111   .     S
C651   H677    1.111   .     S
C651   H676    1.111   .     S
C651   C739    1.525   .     S
C651   H767    1.111   .     S
C652   C653    1.534   .     S
C652   H680    1.116   .     S
C652   H679    1.111   .     S
C652   O700    1.417   .     S
C653   H682    1.111   .     S
C653   H681    1.112   .     S
C654   H685    1.111   .     S
C654   H686    1.111   .     S
C654   C119    1.526   1_565 S
C654   H150    1.111   1_565 S
C655   C657    1.427   .     A
C655   C656    1.416   .     A
C656   C1461   1.391   .     S
C657   C1459   1.425   .     S
C658   C659    1.416   .     A
C658   C1458   1.425   1_554 S
C659   C660    1.388   .     A
C659   H663    1.075   .     S
C660   H661    1.083   .     S
C660   C1457   1.391   1_554 S
H672   C723    1.087   .     S
H675   C739    1.110   .     S
H687   C103    1.086   1_565 S
O693   Zn711   1.924   .     S
O693   Zn710   1.947   .     S
O693   Zn712   1.927   .     S
O693   Zn709   1.958   .     S
O694   Zn710   1.925   .     S
O695   Zn712   1.938   .     S
O696   Zn711   1.935   .     S
O697   Zn709   1.923   .     S
O701   Zn709   1.925   .     S
O702   Zn712   1.924   .     S
O703   Zn710   1.924   .     S
O704   Zn711   1.937   .     S
O705   Zn712   1.934   .     S
O706   Zn709   1.921   .     S
O707   Zn710   1.930   .     S
O708   Zn711   1.926   .     S
C713   C723    1.441   .     S
C713   O794    1.264   .     A
C713   O792    1.277   .     A
C714   C715    1.389   .     A
C714   O789    1.385   .     S
C714   C746    1.424   .     A
C715   H779    1.084   .     S
C715   C1518   1.396   .     S
C716   O793    1.278   .     A
C716   C722    1.475   .     S
C716   O795    1.281   .     A
C717   C718    1.422   .     A
C717   C719    1.415   .     A
C717   C1516   1.396   1_554 S
C718   C721    1.408   .     A
C718   C747    1.428   .     A
C719   C720    1.410   .     A
C719   O787    1.397   .     S
C720   H778    1.082   .     S
C720   C732    1.394   .     A
C721   C732    1.391   .     A
C721   H777    1.078   .     S
C722   C545    1.337   1_655 S
C722   O610    1.397   1_655 S
C724   H781    1.083   .     S
C724   C733    1.394   .     A
C724   C731    1.400   .     A
C725   C728    1.449   .     S
C725   C192    1.331   1_565 S
C725   H238    1.088   1_565 S
C726   C727    1.433   .     S
C727   O796    1.278   .     A
C727   O790    1.278   .     A
C728   O797    1.267   .     A
C728   O791    1.267   .     A
C729   C732    1.455   .     S
C729   O785    1.271   .     A
C729   O783    1.275   .     A
C730   C731    1.472   .     S
C730   O786    1.282   .     A
C730   O784    1.282   .     A
C731   C735    1.399   .     A
C733   C745    1.404   .     A
C733   H780    1.084   .     S
C734   H753    1.111   .     S
C734   O787    1.416   .     S
C734   H754    1.114   .     S
C734   C558    1.532   1_655 S
C735   C744    1.408   .     A
C735   H751    1.077   .     S
C736   C737    1.525   .     S
C736   H756    1.110   .     S
C736   H755    1.111   .     S
C737   H759    1.111   .     S
C737   H757    1.111   .     S
C737   H758    1.110   .     S
C738   C739    1.534   .     S
C738   H762    1.115   .     S
C738   O788    1.414   .     S
C738   H760    1.111   .     S
C739   H763    1.111   .     S
C740   H766    1.111   .     S
C740   H765    1.111   .     S
C740   C561    1.525   1_655 S
C740   H589    1.111   1_655 S
C741   C742    1.534   .     S
C741   H769    1.116   .     S
C741   H768    1.111   .     S
C741   O789    1.417   .     S
C742   H771    1.111   .     S
C742   H770    1.112   .     S
C743   H774    1.111   .     S
C743   H775    1.111   .     S
C743   C208    1.526   1_565 S
C743   H239    1.111   1_565 S
C744   C746    1.427   .     A
C744   C745    1.416   .     A
C745   C1550   1.391   .     S
C746   C1548   1.425   .     S
C747   C748    1.416   .     A
C747   C1547   1.425   1_554 S
C748   C749    1.388   .     A
C748   H752    1.075   .     S
C749   H750    1.083   .     S
C749   C1546   1.391   1_554 S
H761   C545    1.087   1_655 S
H764   C561    1.110   1_655 S
H776   C192    1.086   1_565 S
O782   Zn800   1.924   .     S
O782   Zn799   1.947   .     S
O782   Zn801   1.927   .     S
O782   Zn798   1.958   .     S
O783   Zn799   1.925   .     S
O784   Zn801   1.938   .     S
O785   Zn800   1.935   .     S
O786   Zn798   1.923   .     S
O790   Zn798   1.925   .     S
O791   Zn801   1.924   .     S
O792   Zn799   1.924   .     S
O793   Zn800   1.937   .     S
O794   Zn801   1.934   .     S
O795   Zn798   1.921   .     S
O796   Zn799   1.930   .     S
O797   Zn800   1.926   .     S
C802   C812    1.441   .     S
C802   O883    1.264   .     A
C802   O881    1.277   .     A
C803   C804    1.389   .     A
C803   O878    1.385   .     S
C803   C835    1.424   .     A
C804   H868    1.084   .     S
C804   C5      1.396   1_556 S
C805   O882    1.278   .     A
C805   C811    1.475   .     S
C805   O884    1.281   .     A
C806   C807    1.422   .     A
C806   C808    1.415   .     A
C807   C810    1.408   .     A
C807   C836    1.428   .     A
C808   C809    1.410   .     A
C808   O876    1.397   .     S
C809   H867    1.082   .     S
C809   C821    1.394   .     A
C810   C821    1.391   .     A
C810   H866    1.078   .     S
C811   C901    1.337   .     S
C811   O966    1.397   .     S
C812   C989    1.337   1_455 S
C812   H1028   1.087   1_455 S
C813   H870    1.083   .     S
C813   C822    1.394   .     A
C813   C820    1.400   .     A
C814   C817    1.449   .     S
C814   C1082   1.331   .     S
C814   H1128   1.088   .     S
C815   C816    1.433   .     S
C815   C1348   1.331   1_545 S
C815   H1399   1.086   1_545 S
C816   O885    1.278   .     A
C816   O879    1.278   .     A
C817   O886    1.267   .     A
C817   O880    1.267   .     A
C818   C821    1.455   .     S
C818   O874    1.271   .     A
C818   O872    1.275   .     A
C819   C820    1.472   .     S
C819   O875    1.282   .     A
C819   O873    1.282   .     A
C820   C824    1.399   .     A
C822   C834    1.404   .     A
C822   H869    1.084   .     S
C823   H842    1.111   .     S
C823   O876    1.416   .     S
C823   H843    1.114   .     S
C823   C914    1.532   .     S
C824   C833    1.408   .     A
C824   H840    1.077   .     S
C825   C826    1.525   .     S
C825   H845    1.110   .     S
C825   H844    1.111   .     S
C825   C1001   1.532   1_455 S
C826   H848    1.111   .     S
C826   H846    1.111   .     S
C826   H847    1.110   .     S
C827   C828    1.534   .     S
C827   H851    1.115   .     S
C827   O877    1.414   .     S
C827   H849    1.111   .     S
C828   H852    1.111   .     S
C828   C1007   1.525   1_455 S
C828   H1031   1.110   1_455 S
C829   H855    1.111   .     S
C829   H854    1.111   .     S
C829   C917    1.525   .     S
C829   H945    1.111   .     S
C830   C831    1.534   .     S
C830   H858    1.116   .     S
C830   H857    1.111   .     S
C830   O878    1.417   .     S
C831   H860    1.111   .     S
C831   H859    1.112   .     S
C831   C1366   1.526   1_545 S
C832   H863    1.111   .     S
C832   H864    1.111   .     S
C832   C1098   1.526   .     S
C832   H1129   1.111   .     S
C833   C835    1.427   .     A
C833   C834    1.416   .     A
C834   C37     1.391   1_556 S
C835   C35     1.425   1_556 S
C836   C837    1.416   .     A
C837   C838    1.388   .     A
C837   H841    1.075   .     S
C838   H839    1.083   .     S
H850   C901    1.087   .     S
H853   C917    1.110   .     S
H856   C1007   1.111   1_455 S
H861   C1348   1.088   1_545 S
H862   C1366   1.111   1_545 S
H865   C1082   1.086   .     S
O871   Zn889   1.924   .     S
O871   Zn888   1.947   .     S
O871   Zn890   1.927   .     S
O871   Zn887   1.958   .     S
O872   Zn888   1.925   .     S
O873   Zn890   1.938   .     S
O874   Zn889   1.935   .     S
O875   Zn887   1.923   .     S
O877   C989    1.397   1_455 S
O879   Zn887   1.925   .     S
O880   Zn890   1.924   .     S
O881   Zn888   1.924   .     S
O882   Zn889   1.937   .     S
O883   Zn890   1.934   .     S
O884   Zn887   1.921   .     S
O885   Zn888   1.930   .     S
O886   Zn889   1.926   .     S
C891   C901    1.441   .     S
C891   O972    1.264   .     A
C891   O970    1.277   .     A
C892   C893    1.389   .     A
C892   O967    1.385   .     S
C892   C924    1.424   .     A
C893   H957    1.084   .     S
C893   C94     1.396   1_556 S
C894   O971    1.278   .     A
C894   C900    1.475   .     S
C894   O973    1.281   .     A
C895   C896    1.422   .     A
C895   C897    1.415   .     A
C896   C899    1.408   .     A
C896   C925    1.428   .     A
C897   C898    1.410   .     A
C897   O965    1.397   .     S
C898   H956    1.082   .     S
C898   C910    1.394   .     A
C899   C910    1.391   .     A
C899   H955    1.078   .     S
C900   C990    1.337   .     S
C900   O1055   1.397   .     S
C902   H959    1.083   .     S
C902   C911    1.394   .     A
C902   C909    1.400   .     A
C903   C906    1.449   .     S
C903   C1171   1.331   .     S
C903   H1217   1.088   .     S
C904   C905    1.433   .     S
C904   C1437   1.331   1_545 S
C904   H1488   1.086   1_545 S
C905   O974    1.278   .     A
C905   O968    1.278   .     A
C906   O975    1.267   .     A
C906   O969    1.267   .     A
C907   C910    1.455   .     S
C907   O963    1.271   .     A
C907   O961    1.275   .     A
C908   C909    1.472   .     S
C908   O964    1.282   .     A
C908   O962    1.282   .     A
C909   C913    1.399   .     A
C911   C923    1.404   .     A
C911   H958    1.084   .     S
C912   H931    1.111   .     S
C912   O965    1.416   .     S
C912   H932    1.114   .     S
C912   C1003   1.532   .     S
C913   C922    1.408   .     A
C913   H929    1.077   .     S
C914   C915    1.525   .     S
C914   H934    1.110   .     S
C914   H933    1.111   .     S
C915   H937    1.111   .     S
C915   H935    1.111   .     S
C915   H936    1.110   .     S
C916   C917    1.534   .     S
C916   H940    1.115   .     S
C916   O966    1.414   .     S
C916   H938    1.111   .     S
C917   H941    1.111   .     S
C918   H944    1.111   .     S
C918   H943    1.111   .     S
C918   C1006   1.525   .     S
C918   H1034   1.111   .     S
C919   C920    1.534   .     S
C919   H947    1.116   .     S
C919   H946    1.111   .     S
C919   O967    1.417   .     S
C920   H949    1.111   .     S
C920   H948    1.112   .     S
C920   C1455   1.526   1_545 S
C921   H952    1.111   .     S
C921   H953    1.111   .     S
C921   C1187   1.526   .     S
C921   H1218   1.111   .     S
C922   C924    1.427   .     A
C922   C923    1.416   .     A
C923   C126    1.391   1_556 S
C924   C124    1.425   1_556 S
C925   C926    1.416   .     A
C926   C927    1.388   .     A
C926   H930    1.075   .     S
C927   H928    1.083   .     S
H939   C990    1.087   .     S
H942   C1006   1.110   .     S
H950   C1437   1.088   1_545 S
H951   C1455   1.111   1_545 S
H954   C1171   1.086   .     S
O960   Zn978   1.924   .     S
O960   Zn977   1.947   .     S
O960   Zn979   1.927   .     S
O960   Zn976   1.958   .     S
O961   Zn977   1.925   .     S
O962   Zn979   1.938   .     S
O963   Zn978   1.935   .     S
O964   Zn976   1.923   .     S
O968   Zn976   1.925   .     S
O969   Zn979   1.924   .     S
O970   Zn977   1.924   .     S
O971   Zn978   1.937   .     S
O972   Zn979   1.934   .     S
O973   Zn976   1.921   .     S
O974   Zn977   1.930   .     S
O975   Zn978   1.926   .     S
C980   C990    1.441   .     S
C980   O1061   1.264   .     A
C980   O1059   1.277   .     A
C981   C982    1.389   .     A
C981   O1056   1.385   .     S
C981   C1013   1.424   .     A
C982   H1046   1.084   .     S
C982   C183    1.396   1_556 S
C983   O1060   1.278   .     A
C983   C989    1.475   .     S
C983   O1062   1.281   .     A
C984   C985    1.422   .     A
C984   C986    1.415   .     A
C985   C988    1.408   .     A
C985   C1014   1.428   .     A
C986   C987    1.410   .     A
C986   O1054   1.397   .     S
C987   H1045   1.082   .     S
C987   C999    1.394   .     A
C988   C999    1.391   .     A
C988   H1044   1.078   .     S
C989   C812    1.337   1_655 S
C989   O877    1.397   1_655 S
C991   H1048   1.083   .     S
C991   C1000   1.394   .     A
C991   C998    1.400   .     A
C992   C995    1.449   .     S
C992   C1260   1.331   .     S
C992   H1306   1.088   .     S
C993   C994    1.433   .     S
C993   C1526   1.331   1_545 S
C993   H1577   1.086   1_545 S
C994   O1063   1.278   .     A
C994   O1057   1.278   .     A
C995   O1064   1.267   .     A
C995   O1058   1.267   .     A
C996   C999    1.455   .     S
C996   O1052   1.271   .     A
C996   O1050   1.275   .     A
C997   C998    1.472   .     S
C997   O1053   1.282   .     A
C997   O1051   1.282   .     A
C998   C1002   1.399   .     A
C1000  C1012   1.404   .     A
C1000  H1047   1.084   .     S
C1001  H1020   1.111   .     S
C1001  O1054   1.416   .     S
C1001  H1021   1.114   .     S
C1001  C825    1.532   1_655 S
C1002  C1011   1.408   .     A
C1002  H1018   1.077   .     S
C1003  C1004   1.525   .     S
C1003  H1023   1.110   .     S
C1003  H1022   1.111   .     S
C1004  H1026   1.111   .     S
C1004  H1024   1.111   .     S
C1004  H1025   1.110   .     S
C1005  C1006   1.534   .     S
C1005  H1029   1.115   .     S
C1005  O1055   1.414   .     S
C1005  H1027   1.111   .     S
C1006  H1030   1.111   .     S
C1007  H1033   1.111   .     S
C1007  H1032   1.111   .     S
C1007  C828    1.525   1_655 S
C1007  H856    1.111   1_655 S
C1008  C1009   1.534   .     S
C1008  H1036   1.116   .     S
C1008  H1035   1.111   .     S
C1008  O1056   1.417   .     S
C1009  H1038   1.111   .     S
C1009  H1037   1.112   .     S
C1009  C1544   1.526   1_545 S
C1010  H1041   1.111   .     S
C1010  H1042   1.111   .     S
C1010  C1276   1.526   .     S
C1010  H1307   1.111   .     S
C1011  C1013   1.427   .     A
C1011  C1012   1.416   .     A
C1012  C215    1.391   1_556 S
C1013  C213    1.425   1_556 S
C1014  C1015   1.416   .     A
C1015  C1016   1.388   .     A
C1015  H1019   1.075   .     S
C1016  H1017   1.083   .     S
H1028  C812    1.087   1_655 S
H1031  C828    1.110   1_655 S
H1039  C1526   1.088   1_545 S
H1040  C1544   1.111   1_545 S
H1043  C1260   1.086   .     S
O1049  Zn1067  1.924   .     S
O1049  Zn1066  1.947   .     S
O1049  Zn1068  1.927   .     S
O1049  Zn1065  1.958   .     S
O1050  Zn1066  1.925   .     S
O1051  Zn1068  1.938   .     S
O1052  Zn1067  1.935   .     S
O1053  Zn1065  1.923   .     S
O1057  Zn1065  1.925   .     S
O1058  Zn1068  1.924   .     S
O1059  Zn1066  1.924   .     S
O1060  Zn1067  1.937   .     S
O1061  Zn1068  1.934   .     S
O1062  Zn1065  1.921   .     S
O1063  Zn1066  1.930   .     S
O1064  Zn1067  1.926   .     S
C1069  C1079   1.441   .     S
C1069  O1150   1.264   .     A
C1069  O1148   1.277   .     A
C1070  C1071   1.389   .     A
C1070  O1145   1.385   .     S
C1070  C1102   1.424   .     A
C1071  H1135   1.084   .     S
C1071  C272    1.396   1_556 S
C1072  O1149   1.278   .     A
C1072  C1078   1.475   .     S
C1072  O1151   1.281   .     A
C1073  C1074   1.422   .     A
C1073  C1075   1.415   .     A
C1074  C1077   1.408   .     A
C1074  C1103   1.428   .     A
C1075  C1076   1.410   .     A
C1075  O1143   1.397   .     S
C1076  H1134   1.082   .     S
C1076  C1088   1.394   .     A
C1077  C1088   1.391   .     A
C1077  H1133   1.078   .     S
C1078  C1168   1.337   .     S
C1078  O1233   1.397   .     S
C1079  C1256   1.337   1_455 S
C1079  H1295   1.087   1_455 S
C1080  H1137   1.083   .     S
C1080  C1089   1.394   .     A
C1080  C1087   1.400   .     A
C1081  C1084   1.449   .     S
C1081  C1349   1.331   .     S
C1081  H1395   1.088   .     S
C1082  C1083   1.433   .     S
C1083  O1152   1.278   .     A
C1083  O1146   1.278   .     A
C1084  O1153   1.267   .     A
C1084  O1147   1.267   .     A
C1085  C1088   1.455   .     S
C1085  O1141   1.271   .     A
C1085  O1139   1.275   .     A
C1086  C1087   1.472   .     S
C1086  O1142   1.282   .     A
C1086  O1140   1.282   .     A
C1087  C1091   1.399   .     A
C1089  C1101   1.404   .     A
C1089  H1136   1.084   .     S
C1090  H1109   1.111   .     S
C1090  O1143   1.416   .     S
C1090  H1110   1.114   .     S
C1090  C1181   1.532   .     S
C1091  C1100   1.408   .     A
C1091  H1107   1.077   .     S
C1092  C1093   1.525   .     S
C1092  H1112   1.110   .     S
C1092  H1111   1.111   .     S
C1092  C1268   1.532   1_455 S
C1093  H1115   1.111   .     S
C1093  H1113   1.111   .     S
C1093  H1114   1.110   .     S
C1094  C1095   1.534   .     S
C1094  H1118   1.115   .     S
C1094  O1144   1.414   .     S
C1094  H1116   1.111   .     S
C1095  H1119   1.111   .     S
C1095  C1274   1.525   1_455 S
C1095  H1298   1.110   1_455 S
C1096  H1122   1.111   .     S
C1096  H1121   1.111   .     S
C1096  C1184   1.525   .     S
C1096  H1212   1.111   .     S
C1097  C1098   1.534   .     S
C1097  H1125   1.116   .     S
C1097  H1124   1.111   .     S
C1097  O1145   1.417   .     S
C1098  H1127   1.111   .     S
C1098  H1126   1.112   .     S
C1099  H1130   1.111   .     S
C1099  H1131   1.111   .     S
C1099  C1365   1.526   .     S
C1099  H1396   1.111   .     S
C1100  C1102   1.427   .     A
C1100  C1101   1.416   .     A
C1101  C304    1.391   1_556 S
C1102  C302    1.425   1_556 S
C1103  C1104   1.416   .     A
C1104  C1105   1.388   .     A
C1104  H1108   1.075   .     S
C1105  H1106   1.083   .     S
H1117  C1168   1.087   .     S
H1120  C1184   1.110   .     S
H1123  C1274   1.111   1_455 S
H1132  C1349   1.086   .     S
O1138  Zn1156  1.924   .     S
O1138  Zn1155  1.947   .     S
O1138  Zn1157  1.927   .     S
O1138  Zn1154  1.958   .     S
O1139  Zn1155  1.925   .     S
O1140  Zn1157  1.938   .     S
O1141  Zn1156  1.935   .     S
O1142  Zn1154  1.923   .     S
O1144  C1256   1.397   1_455 S
O1146  Zn1154  1.925   .     S
O1147  Zn1157  1.924   .     S
O1148  Zn1155  1.924   .     S
O1149  Zn1156  1.937   .     S
O1150  Zn1157  1.934   .     S
O1151  Zn1154  1.921   .     S
O1152  Zn1155  1.930   .     S
O1153  Zn1156  1.926   .     S
C1158  C1168   1.441   .     S
C1158  O1239   1.264   .     A
C1158  O1237   1.277   .     A
C1159  C1160   1.389   .     A
C1159  O1234   1.385   .     S
C1159  C1191   1.424   .     A
C1160  H1224   1.084   .     S
C1160  C361    1.396   1_556 S
C1161  O1238   1.278   .     A
C1161  C1167   1.475   .     S
C1161  O1240   1.281   .     A
C1162  C1163   1.422   .     A
C1162  C1164   1.415   .     A
C1163  C1166   1.408   .     A
C1163  C1192   1.428   .     A
C1164  C1165   1.410   .     A
C1164  O1232   1.397   .     S
C1165  H1223   1.082   .     S
C1165  C1177   1.394   .     A
C1166  C1177   1.391   .     A
C1166  H1222   1.078   .     S
C1167  C1257   1.337   .     S
C1167  O1322   1.397   .     S
C1169  H1226   1.083   .     S
C1169  C1178   1.394   .     A
C1169  C1176   1.400   .     A
C1170  C1173   1.449   .     S
C1170  C1438   1.331   .     S
C1170  H1484   1.088   .     S
C1171  C1172   1.433   .     S
C1172  O1241   1.278   .     A
C1172  O1235   1.278   .     A
C1173  O1242   1.267   .     A
C1173  O1236   1.267   .     A
C1174  C1177   1.455   .     S
C1174  O1230   1.271   .     A
C1174  O1228   1.275   .     A
C1175  C1176   1.472   .     S
C1175  O1231   1.282   .     A
C1175  O1229   1.282   .     A
C1176  C1180   1.399   .     A
C1178  C1190   1.404   .     A
C1178  H1225   1.084   .     S
C1179  H1198   1.111   .     S
C1179  O1232   1.416   .     S
C1179  H1199   1.114   .     S
C1179  C1270   1.532   .     S
C1180  C1189   1.408   .     A
C1180  H1196   1.077   .     S
C1181  C1182   1.525   .     S
C1181  H1201   1.110   .     S
C1181  H1200   1.111   .     S
C1182  H1204   1.111   .     S
C1182  H1202   1.111   .     S
C1182  H1203   1.110   .     S
C1183  C1184   1.534   .     S
C1183  H1207   1.115   .     S
C1183  O1233   1.414   .     S
C1183  H1205   1.111   .     S
C1184  H1208   1.111   .     S
C1185  H1211   1.111   .     S
C1185  H1210   1.111   .     S
C1185  C1273   1.525   .     S
C1185  H1301   1.111   .     S
C1186  C1187   1.534   .     S
C1186  H1214   1.116   .     S
C1186  H1213   1.111   .     S
C1186  O1234   1.417   .     S
C1187  H1216   1.111   .     S
C1187  H1215   1.112   .     S
C1188  H1219   1.111   .     S
C1188  H1220   1.111   .     S
C1188  C1454   1.526   .     S
C1188  H1485   1.111   .     S
C1189  C1191   1.427   .     A
C1189  C1190   1.416   .     A
C1190  C393    1.391   1_556 S
C1191  C391    1.425   1_556 S
C1192  C1193   1.416   .     A
C1193  C1194   1.388   .     A
C1193  H1197   1.075   .     S
C1194  H1195   1.083   .     S
H1206  C1257   1.087   .     S
H1209  C1273   1.110   .     S
H1221  C1438   1.086   .     S
O1227  Zn1245  1.924   .     S
O1227  Zn1244  1.947   .     S
O1227  Zn1246  1.927   .     S
O1227  Zn1243  1.958   .     S
O1228  Zn1244  1.925   .     S
O1229  Zn1246  1.938   .     S
O1230  Zn1245  1.935   .     S
O1231  Zn1243  1.923   .     S
O1235  Zn1243  1.925   .     S
O1236  Zn1246  1.924   .     S
O1237  Zn1244  1.924   .     S
O1238  Zn1245  1.937   .     S
O1239  Zn1246  1.934   .     S
O1240  Zn1243  1.921   .     S
O1241  Zn1244  1.930   .     S
O1242  Zn1245  1.926   .     S
C1247  C1257   1.441   .     S
C1247  O1328   1.264   .     A
C1247  O1326   1.277   .     A
C1248  C1249   1.389   .     A
C1248  O1323   1.385   .     S
C1248  C1280   1.424   .     A
C1249  H1313   1.084   .     S
C1249  C450    1.396   1_556 S
C1250  O1327   1.278   .     A
C1250  C1256   1.475   .     S
C1250  O1329   1.281   .     A
C1251  C1252   1.422   .     A
C1251  C1253   1.415   .     A
C1252  C1255   1.408   .     A
C1252  C1281   1.428   .     A
C1253  C1254   1.410   .     A
C1253  O1321   1.397   .     S
C1254  H1312   1.082   .     S
C1254  C1266   1.394   .     A
C1255  C1266   1.391   .     A
C1255  H1311   1.078   .     S
C1256  C1079   1.337   1_655 S
C1256  O1144   1.397   1_655 S
C1258  H1315   1.083   .     S
C1258  C1267   1.394   .     A
C1258  C1265   1.400   .     A
C1259  C1262   1.449   .     S
C1259  C1527   1.331   .     S
C1259  H1573   1.088   .     S
C1260  C1261   1.433   .     S
C1261  O1330   1.278   .     A
C1261  O1324   1.278   .     A
C1262  O1331   1.267   .     A
C1262  O1325   1.267   .     A
C1263  C1266   1.455   .     S
C1263  O1319   1.271   .     A
C1263  O1317   1.275   .     A
C1264  C1265   1.472   .     S
C1264  O1320   1.282   .     A
C1264  O1318   1.282   .     A
C1265  C1269   1.399   .     A
C1267  C1279   1.404   .     A
C1267  H1314   1.084   .     S
C1268  H1287   1.111   .     S
C1268  O1321   1.416   .     S
C1268  H1288   1.114   .     S
C1268  C1092   1.532   1_655 S
C1269  C1278   1.408   .     A
C1269  H1285   1.077   .     S
C1270  C1271   1.525   .     S
C1270  H1290   1.110   .     S
C1270  H1289   1.111   .     S
C1271  H1293   1.111   .     S
C1271  H1291   1.111   .     S
C1271  H1292   1.110   .     S
C1272  C1273   1.534   .     S
C1272  H1296   1.115   .     S
C1272  O1322   1.414   .     S
C1272  H1294   1.111   .     S
C1273  H1297   1.111   .     S
C1274  H1300   1.111   .     S
C1274  H1299   1.111   .     S
C1274  C1095   1.525   1_655 S
C1274  H1123   1.111   1_655 S
C1275  C1276   1.534   .     S
C1275  H1303   1.116   .     S
C1275  H1302   1.111   .     S
C1275  O1323   1.417   .     S
C1276  H1305   1.111   .     S
C1276  H1304   1.112   .     S
C1277  H1308   1.111   .     S
C1277  H1309   1.111   .     S
C1277  C1543   1.526   .     S
C1277  H1574   1.111   .     S
C1278  C1280   1.427   .     A
C1278  C1279   1.416   .     A
C1279  C482    1.391   1_556 S
C1280  C480    1.425   1_556 S
C1281  C1282   1.416   .     A
C1282  C1283   1.388   .     A
C1282  H1286   1.075   .     S
C1283  H1284   1.083   .     S
H1295  C1079   1.087   1_655 S
H1298  C1095   1.110   1_655 S
H1310  C1527   1.086   .     S
O1316  Zn1334  1.924   .     S
O1316  Zn1333  1.947   .     S
O1316  Zn1335  1.927   .     S
O1316  Zn1332  1.958   .     S
O1317  Zn1333  1.925   .     S
O1318  Zn1335  1.938   .     S
O1319  Zn1334  1.935   .     S
O1320  Zn1332  1.923   .     S
O1324  Zn1332  1.925   .     S
O1325  Zn1335  1.924   .     S
O1326  Zn1333  1.924   .     S
O1327  Zn1334  1.937   .     S
O1328  Zn1335  1.934   .     S
O1329  Zn1332  1.921   .     S
O1330  Zn1333  1.930   .     S
O1331  Zn1334  1.926   .     S
C1336  C1346   1.441   .     S
C1336  O1417   1.264   .     A
C1336  O1415   1.277   .     A
C1337  C1338   1.389   .     A
C1337  O1412   1.385   .     S
C1337  C1369   1.424   .     A
C1338  H1402   1.084   .     S
C1338  C539    1.396   1_556 S
C1339  O1416   1.278   .     A
C1339  C1345   1.475   .     S
C1339  O1418   1.281   .     A
C1340  C1341   1.422   .     A
C1340  C1342   1.415   .     A
C1341  C1344   1.408   .     A
C1341  C1370   1.428   .     A
C1342  C1343   1.410   .     A
C1342  O1410   1.397   .     S
C1343  H1401   1.082   .     S
C1343  C1355   1.394   .     A
C1344  C1355   1.391   .     A
C1344  H1400   1.078   .     S
C1345  C1435   1.337   .     S
C1345  O1500   1.397   .     S
C1346  C1523   1.337   1_455 S
C1346  H1562   1.087   1_455 S
C1347  H1404   1.083   .     S
C1347  C1356   1.394   .     A
C1347  C1354   1.400   .     A
C1348  C1351   1.449   .     S
C1348  C815    1.331   1_565 S
C1348  H861    1.088   1_565 S
C1349  C1350   1.433   .     S
C1350  O1419   1.278   .     A
C1350  O1413   1.278   .     A
C1351  O1420   1.267   .     A
C1351  O1414   1.267   .     A
C1352  C1355   1.455   .     S
C1352  O1408   1.271   .     A
C1352  O1406   1.275   .     A
C1353  C1354   1.472   .     S
C1353  O1409   1.282   .     A
C1353  O1407   1.282   .     A
C1354  C1358   1.399   .     A
C1356  C1368   1.404   .     A
C1356  H1403   1.084   .     S
C1357  H1376   1.111   .     S
C1357  O1410   1.416   .     S
C1357  H1377   1.114   .     S
C1357  C1448   1.532   .     S
C1358  C1367   1.408   .     A
C1358  H1374   1.077   .     S
C1359  C1360   1.525   .     S
C1359  H1379   1.110   .     S
C1359  H1378   1.111   .     S
C1359  C1535   1.532   1_455 S
C1360  H1382   1.111   .     S
C1360  H1380   1.111   .     S
C1360  H1381   1.110   .     S
C1361  C1362   1.534   .     S
C1361  H1385   1.115   .     S
C1361  O1411   1.414   .     S
C1361  H1383   1.111   .     S
C1362  H1386   1.111   .     S
C1362  C1541   1.525   1_455 S
C1362  H1565   1.110   1_455 S
C1363  H1389   1.111   .     S
C1363  H1388   1.111   .     S
C1363  C1451   1.525   .     S
C1363  H1479   1.111   .     S
C1364  C1365   1.534   .     S
C1364  H1392   1.116   .     S
C1364  H1391   1.111   .     S
C1364  O1412   1.417   .     S
C1365  H1394   1.111   .     S
C1365  H1393   1.112   .     S
C1366  H1397   1.111   .     S
C1366  H1398   1.111   .     S
C1366  C831    1.526   1_565 S
C1366  H862    1.111   1_565 S
C1367  C1369   1.427   .     A
C1367  C1368   1.416   .     A
C1368  C571    1.391   1_556 S
C1369  C569    1.425   1_556 S
C1370  C1371   1.416   .     A
C1371  C1372   1.388   .     A
C1371  H1375   1.075   .     S
C1372  H1373   1.083   .     S
H1384  C1435   1.087   .     S
H1387  C1451   1.110   .     S
H1390  C1541   1.111   1_455 S
H1399  C815    1.086   1_565 S
O1405  Zn1423  1.924   .     S
O1405  Zn1422  1.947   .     S
O1405  Zn1424  1.927   .     S
O1405  Zn1421  1.958   .     S
O1406  Zn1422  1.925   .     S
O1407  Zn1424  1.938   .     S
O1408  Zn1423  1.935   .     S
O1409  Zn1421  1.923   .     S
O1411  C1523   1.397   1_455 S
O1413  Zn1421  1.925   .     S
O1414  Zn1424  1.924   .     S
O1415  Zn1422  1.924   .     S
O1416  Zn1423  1.937   .     S
O1417  Zn1424  1.934   .     S
O1418  Zn1421  1.921   .     S
O1419  Zn1422  1.930   .     S
O1420  Zn1423  1.926   .     S
C1425  C1435   1.441   .     S
C1425  O1506   1.264   .     A
C1425  O1504   1.277   .     A
C1426  C1427   1.389   .     A
C1426  O1501   1.385   .     S
C1426  C1458   1.424   .     A
C1427  H1491   1.084   .     S
C1427  C628    1.396   1_556 S
C1428  O1505   1.278   .     A
C1428  C1434   1.475   .     S
C1428  O1507   1.281   .     A
C1429  C1430   1.422   .     A
C1429  C1431   1.415   .     A
C1430  C1433   1.408   .     A
C1430  C1459   1.428   .     A
C1431  C1432   1.410   .     A
C1431  O1499   1.397   .     S
C1432  H1490   1.082   .     S
C1432  C1444   1.394   .     A
C1433  C1444   1.391   .     A
C1433  H1489   1.078   .     S
C1434  C1524   1.337   .     S
C1434  O1589   1.397   .     S
C1436  H1493   1.083   .     S
C1436  C1445   1.394   .     A
C1436  C1443   1.400   .     A
C1437  C1440   1.449   .     S
C1437  C904    1.331   1_565 S
C1437  H950    1.088   1_565 S
C1438  C1439   1.433   .     S
C1439  O1508   1.278   .     A
C1439  O1502   1.278   .     A
C1440  O1509   1.267   .     A
C1440  O1503   1.267   .     A
C1441  C1444   1.455   .     S
C1441  O1497   1.271   .     A
C1441  O1495   1.275   .     A
C1442  C1443   1.472   .     S
C1442  O1498   1.282   .     A
C1442  O1496   1.282   .     A
C1443  C1447   1.399   .     A
C1445  C1457   1.404   .     A
C1445  H1492   1.084   .     S
C1446  H1465   1.111   .     S
C1446  O1499   1.416   .     S
C1446  H1466   1.114   .     S
C1446  C1537   1.532   .     S
C1447  C1456   1.408   .     A
C1447  H1463   1.077   .     S
C1448  C1449   1.525   .     S
C1448  H1468   1.110   .     S
C1448  H1467   1.111   .     S
C1449  H1471   1.111   .     S
C1449  H1469   1.111   .     S
C1449  H1470   1.110   .     S
C1450  C1451   1.534   .     S
C1450  H1474   1.115   .     S
C1450  O1500   1.414   .     S
C1450  H1472   1.111   .     S
C1451  H1475   1.111   .     S
C1452  H1478   1.111   .     S
C1452  H1477   1.111   .     S
C1452  C1540   1.525   .     S
C1452  H1568   1.111   .     S
C1453  C1454   1.534   .     S
C1453  H1481   1.116   .     S
C1453  H1480   1.111   .     S
C1453  O1501   1.417   .     S
C1454  H1483   1.111   .     S
C1454  H1482   1.112   .     S
C1455  H1486   1.111   .     S
C1455  H1487   1.111   .     S
C1455  C920    1.526   1_565 S
C1455  H951    1.111   1_565 S
C1456  C1458   1.427   .     A
C1456  C1457   1.416   .     A
C1457  C660    1.391   1_556 S
C1458  C658    1.425   1_556 S
C1459  C1460   1.416   .     A
C1460  C1461   1.388   .     A
C1460  H1464   1.075   .     S
C1461  H1462   1.083   .     S
H1473  C1524   1.087   .     S
H1476  C1540   1.110   .     S
H1488  C904    1.086   1_565 S
O1494  Zn1512  1.924   .     S
O1494  Zn1511  1.947   .     S
O1494  Zn1513  1.927   .     S
O1494  Zn1510  1.958   .     S
O1495  Zn1511  1.925   .     S
O1496  Zn1513  1.938   .     S
O1497  Zn1512  1.935   .     S
O1498  Zn1510  1.923   .     S
O1502  Zn1510  1.925   .     S
O1503  Zn1513  1.924   .     S
O1504  Zn1511  1.924   .     S
O1505  Zn1512  1.937   .     S
O1506  Zn1513  1.934   .     S
O1507  Zn1510  1.921   .     S
O1508  Zn1511  1.930   .     S
O1509  Zn1512  1.926   .     S
C1514  C1524   1.441   .     S
C1514  O1595   1.264   .     A
C1514  O1593   1.277   .     A
C1515  C1516   1.389   .     A
C1515  O1590   1.385   .     S
C1515  C1547   1.424   .     A
C1516  H1580   1.084   .     S
C1516  C717    1.396   1_556 S
C1517  O1594   1.278   .     A
C1517  C1523   1.475   .     S
C1517  O1596   1.281   .     A
C1518  C1519   1.422   .     A
C1518  C1520   1.415   .     A
C1519  C1522   1.408   .     A
C1519  C1548   1.428   .     A
C1520  C1521   1.410   .     A
C1520  O1588   1.397   .     S
C1521  H1579   1.082   .     S
C1521  C1533   1.394   .     A
C1522  C1533   1.391   .     A
C1522  H1578   1.078   .     S
C1523  C1346   1.337   1_655 S
C1523  O1411   1.397   1_655 S
C1525  H1582   1.083   .     S
C1525  C1534   1.394   .     A
C1525  C1532   1.400   .     A
C1526  C1529   1.449   .     S
C1526  C993    1.331   1_565 S
C1526  H1039   1.088   1_565 S
C1527  C1528   1.433   .     S
C1528  O1597   1.278   .     A
C1528  O1591   1.278   .     A
C1529  O1598   1.267   .     A
C1529  O1592   1.267   .     A
C1530  C1533   1.455   .     S
C1530  O1586   1.271   .     A
C1530  O1584   1.275   .     A
C1531  C1532   1.472   .     S
C1531  O1587   1.282   .     A
C1531  O1585   1.282   .     A
C1532  C1536   1.399   .     A
C1534  C1546   1.404   .     A
C1534  H1581   1.084   .     S
C1535  H1554   1.111   .     S
C1535  O1588   1.416   .     S
C1535  H1555   1.114   .     S
C1535  C1359   1.532   1_655 S
C1536  C1545   1.408   .     A
C1536  H1552   1.077   .     S
C1537  C1538   1.525   .     S
C1537  H1557   1.110   .     S
C1537  H1556   1.111   .     S
C1538  H1560   1.111   .     S
C1538  H1558   1.111   .     S
C1538  H1559   1.110   .     S
C1539  C1540   1.534   .     S
C1539  H1563   1.115   .     S
C1539  O1589   1.414   .     S
C1539  H1561   1.111   .     S
C1540  H1564   1.111   .     S
C1541  H1567   1.111   .     S
C1541  H1566   1.111   .     S
C1541  C1362   1.525   1_655 S
C1541  H1390   1.111   1_655 S
C1542  C1543   1.534   .     S
C1542  H1570   1.116   .     S
C1542  H1569   1.111   .     S
C1542  O1590   1.417   .     S
C1543  H1572   1.111   .     S
C1543  H1571   1.112   .     S
C1544  H1575   1.111   .     S
C1544  H1576   1.111   .     S
C1544  C1009   1.526   1_565 S
C1544  H1040   1.111   1_565 S
C1545  C1547   1.427   .     A
C1545  C1546   1.416   .     A
C1546  C749    1.391   1_556 S
C1547  C747    1.425   1_556 S
C1548  C1549   1.416   .     A
C1549  C1550   1.388   .     A
C1549  H1553   1.075   .     S
C1550  H1551   1.083   .     S
H1562  C1346   1.087   1_655 S
H1565  C1362   1.110   1_655 S
H1577  C993    1.086   1_565 S
O1583  Zn1601  1.924   .     S
O1583  Zn1600  1.947   .     S
O1583  Zn1602  1.927   .     S
O1583  Zn1599  1.958   .     S
O1584  Zn1600  1.925   .     S
O1585  Zn1602  1.938   .     S
O1586  Zn1601  1.935   .     S
O1587  Zn1599  1.923   .     S
O1591  Zn1599  1.925   .     S
O1592  Zn1602  1.924   .     S
O1593  Zn1600  1.924   .     S
O1594  Zn1601  1.937   .     S
O1595  Zn1602  1.934   .     S
O1596  Zn1599  1.921   .     S
O1597  Zn1600  1.930   .     S
O1598  Zn1601  1.926   .     S
