data_str_m1_o1_o17_pcu_sym.75
_audit_creation_date              2020-01-03
_audit_creation_method            'Materials Studio'
_symmetry_space_group_name_H-M    'P1'
_symmetry_Int_Tables_number       1
_symmetry_cell_setting            triclinic
loop_
_symmetry_equiv_pos_as_xyz
  x,y,z
_cell_length_a                    36.5612
_cell_length_b                    36.5662
_cell_length_c                    34.4258
_cell_angle_alpha                 90.0022
_cell_angle_beta                  89.9999
_cell_angle_gamma                 89.9495
loop_
_atom_site_label
_atom_site_type_symbol
_atom_site_fract_x
_atom_site_fract_y
_atom_site_fract_z
_atom_site_U_iso_or_equiv
_atom_site_adp_type
_atom_site_occupancy
C1     C     0.48233   0.27844   0.41820   0.00000  Uiso   1.00
C2     C     0.26771   0.47159   0.08180   0.00000  Uiso   1.00
C3     C     0.21649   0.00242   0.54103   0.00000  Uiso   1.00
C4     C     0.48222   0.27850   0.45901   0.00000  Uiso   1.00
C5     C     0.01772   0.22144   0.54106   0.00000  Uiso   1.00
C6     C     0.21649   0.00247   0.45888   0.00000  Uiso   1.00
C7     C     0.28352   0.49758   0.54103   0.00000  Uiso   1.00
C8     C     0.26777   0.47148   0.95894   0.00000  Uiso   1.00
C9     C     0.23218   0.02849   0.04099   0.00000  Uiso   1.00
C10    C     0.02836   0.23197   0.95903   0.00000  Uiso   1.00
C11    C     0.47158   0.26795   0.04107   0.00000  Uiso   1.00
C12    C     0.23223   0.02853   0.95894   0.00000  Uiso   1.00
C13    C     0.47171   0.26792   0.91821   0.00000  Uiso   1.00
C14    C     0.26783   0.47153   0.04099   0.00000  Uiso   1.00
C15    C     0.47164   0.26803   0.95903   0.00000  Uiso   1.00
C16    C     0.02842   0.23205   0.04107   0.00000  Uiso   1.00
C17    C     0.09775   0.34837   0.24968   0.00000  Uiso   1.00
C18    C     0.40164   0.15225   0.74967   0.00000  Uiso   1.00
C19    C     0.15170   0.09781   0.24957   0.00000  Uiso   1.00
C20    C     0.34779   0.40169   0.74959   0.00000  Uiso   1.00
C21    C     0.40226   0.15162   0.24969   0.00000  Uiso   1.00
C22    C     0.09836   0.34775   0.74966   0.00000  Uiso   1.00
C23    C     0.34830   0.40219   0.24958   0.00000  Uiso   1.00
C24    C     0.02842   0.23226   0.08188   0.00000  Uiso   1.00
C25    C     0.15221   0.09831   0.74959   0.00000  Uiso   1.00
C26    C     0.09781   0.15171   0.75040   0.00000  Uiso   1.00
C27    C     0.40170   0.34781   0.25041   0.00000  Uiso   1.00
C28    C     0.15165   0.40224   0.75036   0.00000  Uiso   1.00
C29    C     0.34774   0.09837   0.25034   0.00000  Uiso   1.00
C30    C     0.40219   0.34829   0.75040   0.00000  Uiso   1.00
C31    C     0.09830   0.15219   0.25042   0.00000  Uiso   1.00
C32    C     0.34836   0.09776   0.75036   0.00000  Uiso   1.00
C33    C     0.15226   0.40163   0.25033   0.00000  Uiso   1.00
C34    C    -0.00000   0.24999   0.47949   0.00000  Uiso   1.00
C35    C     0.26758   0.47149   0.91813   0.00000  Uiso   1.00
C36    C    -0.00000   0.24999   0.52058   0.00000  Uiso   1.00
C37    C     0.25000   0.00000   0.47939   0.00000  Uiso   1.00
C38    C     0.25000  -0.00000   0.52052   0.00000  Uiso   1.00
C39    C     0.25000   0.00001   0.97942   0.00000  Uiso   1.00
C40    C     0.25000   0.00001   0.02051   0.00000  Uiso   1.00
C41    C    -0.00000   0.25000   0.97950   0.00000  Uiso   1.00
C42    C    -0.00000   0.25000   0.02060   0.00000  Uiso   1.00
C43    C     0.13480   0.42062   0.31826   0.00000  Uiso   1.00
C44    C     0.36460   0.07885   0.68211   0.00000  Uiso   1.00
C45    C     0.05439   0.11087   0.28580   0.00000  Uiso   1.00
C46    C     0.23229   0.02843   0.08181   0.00000  Uiso   1.00
C47    C     0.44399   0.38807   0.71068   0.00000  Uiso   1.00
C48    C     0.36469   0.07991   0.31856   0.00000  Uiso   1.00
C49    C     0.13532   0.42122   0.68215   0.00000  Uiso   1.00
C50    C     0.44530   0.38883   0.28662   0.00000  Uiso   1.00
C51    C     0.05606   0.11197   0.71057   0.00000  Uiso   1.00
C52    C     0.11186   0.05539   0.71169   0.00000  Uiso   1.00
C53    C     0.38863   0.44451   0.28803   0.00000  Uiso   1.00
C54    C     0.07821   0.36637   0.68246   0.00000  Uiso   1.00
C55    C     0.41953   0.13694   0.31887   0.00000  Uiso   1.00
C56    C     0.38818   0.44465   0.71179   0.00000  Uiso   1.00
C57    C     0.02829   0.23208   0.91821   0.00000  Uiso   1.00
C58    C     0.11098   0.05512   0.28706   0.00000  Uiso   1.00
C59    C     0.42172   0.13370   0.68242   0.00000  Uiso   1.00
C60    C     0.07998   0.36353   0.31860   0.00000  Uiso   1.00
C61    C     0.38563   0.17091   0.81809   0.00000  Uiso   1.00
C62    C     0.11537   0.32924   0.18183   0.00000  Uiso   1.00
C63    C     0.30601   0.36192   0.78935   0.00000  Uiso   1.00
C64    C     0.19560   0.13911   0.21416   0.00000  Uiso   1.00
C65    C     0.11444   0.32903   0.81805   0.00000  Uiso   1.00
C66    C     0.38524   0.17014   0.18150   0.00000  Uiso   1.00
C67    C     0.19395   0.13804   0.78946   0.00000  Uiso   1.00
C68    C     0.47158   0.26774   0.08188   0.00000  Uiso   1.00
C69    C     0.30470   0.36118   0.21336   0.00000  Uiso   1.00
C70    C     0.36136   0.30550   0.21195   0.00000  Uiso   1.00
C71    C     0.13838   0.19482   0.78782   0.00000  Uiso   1.00
C72    C     0.33045   0.11306   0.18117   0.00000  Uiso   1.00
C73    C     0.17184   0.38359   0.81754   0.00000  Uiso   1.00
C74    C     0.13903   0.19489   0.21293   0.00000  Uiso   1.00
C75    C     0.36159   0.30515   0.78774   0.00000  Uiso   1.00
C76    C     0.16999   0.38651   0.18139   0.00000  Uiso   1.00
C77    C     0.32825   0.11633   0.81760   0.00000  Uiso   1.00
C78    C    -0.00000   0.24999   0.39812   0.00000  Uiso   1.00
C79    C     0.00000   0.24999   0.60193   0.00000  Uiso   1.00
C80    C     0.25000   0.00000   0.39802   0.00000  Uiso   1.00
C81    C     0.01753   0.22145   0.58187   0.00000  Uiso   1.00
C82    C     0.25000  -0.00000   0.60193   0.00000  Uiso   1.00
C83    C     0.25000   0.00000   0.89807   0.00000  Uiso   1.00
C84    C     0.25000   0.00001   0.10188   0.00000  Uiso   1.00
C85    C     0.00000   0.25000   0.89813   0.00000  Uiso   1.00
C86    C    -0.00000   0.25000   0.10194   0.00000  Uiso   1.00
C87    C     0.03521   0.19347   0.47989   0.00000  Uiso   1.00
C88    C     0.46483   0.30653   0.52019   0.00000  Uiso   1.00
C89    C     0.31641   0.49515   0.47978   0.00000  Uiso   1.00
C90    C     0.18359   0.00481   0.52013   0.00000  Uiso   1.00
C91    C     0.46478   0.30651   0.47989   0.00000  Uiso   1.00
C92    C     0.21664   0.00249   0.41802   0.00000  Uiso   1.00
C93    C     0.03517   0.19345   0.52018   0.00000  Uiso   1.00
C94    C     0.18359   0.00485   0.47978   0.00000  Uiso   1.00
C95    C     0.31641   0.49519   0.52013   0.00000  Uiso   1.00
C96    C     0.28528   0.44353   0.97981   0.00000  Uiso   1.00
C97    C     0.21469   0.05646   0.02011   0.00000  Uiso   1.00
C98    C     0.05622   0.21430   0.97990   0.00000  Uiso   1.00
C99    C     0.44374   0.28563   0.02020   0.00000  Uiso   1.00
C100   C     0.21473   0.05649   0.97982   0.00000  Uiso   1.00
C101   C     0.28532   0.44356   0.02011   0.00000  Uiso   1.00
C102   C     0.44378   0.28570   0.97991   0.00000  Uiso   1.00
C103   C     0.28337   0.49762   0.58189   0.00000  Uiso   1.00
C104   C     0.05626   0.21436   0.02020   0.00000  Uiso   1.00
C105   C     0.25000   0.00000   0.35578   0.00000  Uiso   1.00
C106   C     0.25000  -0.00000   0.64420   0.00000  Uiso   1.00
C107   C    -0.00000   0.25000   0.35582   0.00000  Uiso   1.00
C108   C     0.00000   0.25000   0.64420   0.00000  Uiso   1.00
C109   C     0.00000   0.25000   0.85582   0.00000  Uiso   1.00
C110   C     0.00000   0.25000   0.14420   0.00000  Uiso   1.00
C111   C     0.25000   0.00000   0.85580   0.00000  Uiso   1.00
C112   C     0.25000   0.00000   0.14418   0.00000  Uiso   1.00
C113   C     0.17987   0.06979   0.25014   0.00000  Uiso   1.00
C114   C     0.01766   0.22154   0.41819   0.00000  Uiso   1.00
C115   C     0.31979   0.42987   0.75014   0.00000  Uiso   1.00
C116   C     0.42990   0.18017   0.24969   0.00000  Uiso   1.00
C117   C     0.06983   0.32011   0.74969   0.00000  Uiso   1.00
C118   C     0.32013   0.43021   0.25014   0.00000  Uiso   1.00
C119   C     0.18021   0.07013   0.75014   0.00000  Uiso   1.00
C120   C     0.07011   0.31983   0.24969   0.00000  Uiso   1.00
C121   C     0.43017   0.17989   0.74969   0.00000  Uiso   1.00
C122   C     0.18018   0.42989   0.75032   0.00000  Uiso   1.00
C123   C     0.32011   0.06982   0.25032   0.00000  Uiso   1.00
C124   C     0.43020   0.32012   0.74986   0.00000  Uiso   1.00
C125   C     0.48247   0.27853   0.58187   0.00000  Uiso   1.00
C126   C     0.07013   0.18021   0.24986   0.00000  Uiso   1.00
C127   C     0.31982   0.07011   0.75033   0.00000  Uiso   1.00
C128   C     0.17989   0.43018   0.25032   0.00000  Uiso   1.00
C129   C     0.06980   0.17988   0.74986   0.00000  Uiso   1.00
C130   C     0.42987   0.31979   0.24986   0.00000  Uiso   1.00
C131   C     0.13058   0.39633   0.28379   0.00000  Uiso   1.00
C132   C     0.37008   0.10255   0.71690   0.00000  Uiso   1.00
C133   C     0.09061   0.11794   0.26738   0.00000  Uiso   1.00
C134   C     0.40902   0.38199   0.73188   0.00000  Uiso   1.00
C135   C     0.36916   0.10393   0.28393   0.00000  Uiso   1.00
C136   C     0.28337   0.49752   0.41802   0.00000  Uiso   1.00
C137   C     0.12988   0.39749   0.71692   0.00000  Uiso   1.00
C138   C     0.40922   0.38190   0.26782   0.00000  Uiso   1.00
C139   C     0.09100   0.11803   0.73183   0.00000  Uiso   1.00
C140   C     0.11843   0.09111   0.73137   0.00000  Uiso   1.00
C141   C     0.38228   0.40929   0.26741   0.00000  Uiso   1.00
C142   C     0.10308   0.37000   0.71655   0.00000  Uiso   1.00
C143   C     0.39667   0.13069   0.28359   0.00000  Uiso   1.00
C144   C     0.38159   0.40891   0.73142   0.00000  Uiso   1.00
C145   C     0.11755   0.09055   0.26694   0.00000  Uiso   1.00
C146   C     0.39688   0.13003   0.71653   0.00000  Uiso   1.00
C147   C     0.21664   0.00237   0.58189   0.00000  Uiso   1.00
C148   C     0.10308   0.36955   0.28345   0.00000  Uiso   1.00
C149   C     0.37996   0.14742   0.78316   0.00000  Uiso   1.00
C150   C     0.11946   0.35363   0.21624   0.00000  Uiso   1.00
C151   C     0.34095   0.36798   0.76809   0.00000  Uiso   1.00
C152   C     0.15939   0.13205   0.23260   0.00000  Uiso   1.00
C153   C     0.12008   0.35254   0.78314   0.00000  Uiso   1.00
C154   C     0.38082   0.14608   0.21611   0.00000  Uiso   1.00
C155   C     0.15903   0.13200   0.76814   0.00000  Uiso   1.00
C156   C     0.34078   0.36811   0.23216   0.00000  Uiso   1.00
C157   C     0.36772   0.34072   0.23258   0.00000  Uiso   1.00
C158   C     0.23242   0.02852   0.91813   0.00000  Uiso   1.00
C159   C     0.13165   0.15896   0.76849   0.00000  Uiso   1.00
C160   C     0.35333   0.11930   0.21644   0.00000  Uiso   1.00
C161   C     0.14694   0.37998   0.78348   0.00000  Uiso   1.00
C162   C     0.13245   0.15945   0.23305   0.00000  Uiso   1.00
C163   C     0.36833   0.34102   0.76845   0.00000  Uiso   1.00
C164   C     0.14692   0.38045   0.21657   0.00000  Uiso   1.00
C165   C     0.35311   0.11998   0.78350   0.00000  Uiso   1.00
C166   C     0.01777   0.22147   0.45901   0.00000  Uiso   1.00
C167   C     0.48228   0.27855   0.54106   0.00000  Uiso   1.00
C168   C     0.28352   0.49753   0.45888   0.00000  Uiso   1.00
Cl169  Cl    0.46166   0.31464   0.39170   0.00000  Uiso   1.00
Cl170  Cl    0.28845   0.43542   0.10830   0.00000  Uiso   1.00
Cl171  Cl    0.43569   0.28893   0.89174   0.00000  Uiso   1.00
Cl172  Cl    0.06467   0.21165   0.10842   0.00000  Uiso   1.00
Cl173  Cl    0.28802   0.43516   0.89158   0.00000  Uiso   1.00
Cl174  Cl    0.21158   0.06461   0.10832   0.00000  Uiso   1.00
Cl175  Cl    0.06431   0.21107   0.89173   0.00000  Uiso   1.00
Cl176  Cl    0.43533   0.28834   0.10842   0.00000  Uiso   1.00
Cl177  Cl    0.03792   0.18510   0.60842   0.00000  Uiso   1.00
Cl178  Cl    0.17529   0.00541   0.39116   0.00000  Uiso   1.00
Cl179  Cl    0.32473   0.49494   0.60870   0.00000  Uiso   1.00
Cl180  Cl    0.03831   0.18533   0.39168   0.00000  Uiso   1.00
Cl181  Cl    0.46208   0.31489   0.60842   0.00000  Uiso   1.00
Cl182  Cl    0.32472   0.49460   0.39115   0.00000  Uiso   1.00
Cl183  Cl    0.17527   0.00504   0.60870   0.00000  Uiso   1.00
Cl184  Cl    0.21198   0.06485   0.89159   0.00000  Uiso   1.00
H185   H     0.04917   0.17123   0.46543   0.00000  Uiso   1.00
H186   H     0.20068   0.07868   0.03457   0.00000  Uiso   1.00
H187   H     0.07834   0.20014   0.96545   0.00000  Uiso   1.00
H188   H     0.42160   0.29976   0.03466   0.00000  Uiso   1.00
H189   H     0.20075   0.07872   0.96536   0.00000  Uiso   1.00
H190   H     0.29933   0.42134   0.03456   0.00000  Uiso   1.00
H191   H     0.42166   0.29986   0.96546   0.00000  Uiso   1.00
H192   H     0.07840   0.20024   0.03466   0.00000  Uiso   1.00
H193   H     0.08522   0.44392   0.31095   0.00000  Uiso   1.00
H194   H     0.37440   0.03206   0.71146   0.00000  Uiso   1.00
H195   H     0.04318   0.06753   0.25142   0.00000  Uiso   1.00
H196   H     0.45089   0.32879   0.53465   0.00000  Uiso   1.00
H197   H     0.47403   0.39118   0.75972   0.00000  Uiso   1.00
H198   H     0.41415   0.05628   0.31159   0.00000  Uiso   1.00
H199   H     0.12557   0.46799   0.71157   0.00000  Uiso   1.00
H200   H     0.45666   0.43261   0.25292   0.00000  Uiso   1.00
H201   H     0.02595   0.10885   0.75957   0.00000  Uiso   1.00
H202   H     0.06754   0.04337   0.74432   0.00000  Uiso   1.00
H203   H     0.39161   0.47385   0.23851   0.00000  Uiso   1.00
H204   H     0.05575   0.41625   0.69049   0.00000  Uiso   1.00
H205   H     0.46705   0.12675   0.29102   0.00000  Uiso   1.00
H206   H     0.43245   0.45665   0.74449   0.00000  Uiso   1.00
H207   H     0.34258   0.49324   0.46527   0.00000  Uiso   1.00
H208   H     0.10809   0.02638   0.23714   0.00000  Uiso   1.00
H209   H     0.44420   0.08383   0.69039   0.00000  Uiso   1.00
H210   H     0.03263   0.37346   0.29031   0.00000  Uiso   1.00
H211   H     0.37614   0.21794   0.78907   0.00000  Uiso   1.00
H212   H     0.16512   0.30629   0.18915   0.00000  Uiso   1.00
H213   H     0.27588   0.35892   0.74037   0.00000  Uiso   1.00
H214   H     0.20683   0.18247   0.24849   0.00000  Uiso   1.00
H215   H     0.12389   0.28201   0.78897   0.00000  Uiso   1.00
H216   H     0.33572   0.19367   0.18851   0.00000  Uiso   1.00
H217   H     0.22415   0.14104   0.74052   0.00000  Uiso   1.00
H218   H     0.15742   0.00671   0.53464   0.00000  Uiso   1.00
H219   H     0.29333   0.31740   0.24706   0.00000  Uiso   1.00
H220   H     0.35844   0.27614   0.26147   0.00000  Uiso   1.00
H221   H     0.18272   0.20638   0.75504   0.00000  Uiso   1.00
H222   H     0.28294   0.12324   0.20903   0.00000  Uiso   1.00
H223   H     0.19407   0.33358   0.80964   0.00000  Uiso   1.00
H224   H     0.14189   0.22361   0.26286   0.00000  Uiso   1.00
H225   H     0.31729   0.29359   0.75489   0.00000  Uiso   1.00
H226   H     0.21737   0.37660   0.20962   0.00000  Uiso   1.00
H227   H     0.30595   0.16631   0.80975   0.00000  Uiso   1.00
H228   H     0.45082   0.32875   0.46544   0.00000  Uiso   1.00
H229   H     0.04911   0.17119   0.53464   0.00000  Uiso   1.00
H230   H     0.15742   0.00677   0.46527   0.00000  Uiso   1.00
H231   H     0.34259   0.49329   0.53463   0.00000  Uiso   1.00
H232   H     0.29926   0.42129   0.96535   0.00000  Uiso   1.00
O233   O     0.25000  -0.00000   0.25000   0.00000  Uiso   1.00
O234   O     0.25000   0.46963   0.66245   0.00000  Uiso   1.00
O235   O     0.28301   0.33138   0.22413   0.00000  Uiso   1.00
O236   O     0.35844   0.30535   0.17663   0.00000  Uiso   1.00
O237   O     0.35823   0.27257   0.23228   0.00000  Uiso   1.00
O238   O     0.11733   0.20564   0.81284   0.00000  Uiso   1.00
O239   O     0.16841   0.21651   0.77784   0.00000  Uiso   1.00
O240   O     0.34519   0.10631   0.15017   0.00000  Uiso   1.00
O241   O     0.29230   0.11494   0.18278   0.00000  Uiso   1.00
O242   O     0.17159   0.41157   0.83686   0.00000  Uiso   1.00
O243   O     0.19526   0.35507   0.82820   0.00000  Uiso   1.00
O244   O     0.14205   0.19545   0.17763   0.00000  Uiso   1.00
O245   O     0.46964   0.25000   0.33755   0.00000  Uiso   1.00
O246   O     0.14227   0.22754   0.23373   0.00000  Uiso   1.00
O247   O     0.38261   0.29433   0.81278   0.00000  Uiso   1.00
O248   O     0.33157   0.28346   0.77770   0.00000  Uiso   1.00
O249   O     0.15541   0.39303   0.15024   0.00000  Uiso   1.00
O250   O     0.20814   0.38472   0.18325   0.00000  Uiso   1.00
O251   O     0.32856   0.08834   0.83690   0.00000  Uiso   1.00
O252   O     0.30481   0.14482   0.82829   0.00000  Uiso   1.00
O253   O     0.03037   0.25000   0.66245   0.00000  Uiso   1.00
O254   O     0.00000   0.21963   0.83755   0.00000  Uiso   1.00
O255   O     0.00000   0.28036   0.16245   0.00000  Uiso   1.00
O256   O     0.28037  -0.00000   0.83755   0.00000  Uiso   1.00
O257   O     0.21964  -0.00000   0.16245   0.00000  Uiso   1.00
O258   O     0.00000   0.28036   0.83755   0.00000  Uiso   1.00
O259   O     0.00000   0.21963   0.16245   0.00000  Uiso   1.00
O260   O     0.21964  -0.00000   0.83755   0.00000  Uiso   1.00
O261   O     0.25000  -0.00000   0.75000   0.00000  Uiso   1.00
O262   O     0.28037  -0.00000   0.16245   0.00000  Uiso   1.00
O263   O     0.20725   0.07307   0.27302   0.00000  Uiso   1.00
O264   O     0.29276   0.42692   0.72698   0.00000  Uiso   1.00
O265   O     0.42693   0.20724   0.27302   0.00000  Uiso   1.00
O266   O     0.07308   0.29275   0.72698   0.00000  Uiso   1.00
O267   O     0.29276   0.42692   0.27302   0.00000  Uiso   1.00
O268   O     0.20725   0.07307   0.72698   0.00000  Uiso   1.00
O269   O     0.07308   0.29275   0.27302   0.00000  Uiso   1.00
O270   O     0.42693   0.20724   0.72698   0.00000  Uiso   1.00
O271   O     0.20725   0.42692   0.72698   0.00000  Uiso   1.00
O272   O     0.00000   0.25000   0.25000   0.00000  Uiso   1.00
O273   O     0.29276   0.07307   0.27302   0.00000  Uiso   1.00
O274   O     0.42693   0.29275   0.72698   0.00000  Uiso   1.00
O275   O     0.07308   0.20724   0.27302   0.00000  Uiso   1.00
O276   O     0.29276   0.07307   0.72698   0.00000  Uiso   1.00
O277   O     0.20725   0.42692   0.27302   0.00000  Uiso   1.00
O278   O     0.07308   0.20724   0.72698   0.00000  Uiso   1.00
O279   O     0.42693   0.29275   0.27302   0.00000  Uiso   1.00
O280   O     0.45725   0.32307   0.77302   0.00000  Uiso   1.00
O281   O     0.04276   0.17692   0.22698   0.00000  Uiso   1.00
O282   O     0.17693   0.45724   0.77302   0.00000  Uiso   1.00
O283   O     0.00000   0.25000   0.75000   0.00000  Uiso   1.00
O284   O     0.32308   0.04275   0.22698   0.00000  Uiso   1.00
O285   O     0.04276   0.17692   0.77302   0.00000  Uiso   1.00
O286   O     0.45725   0.32307   0.22698   0.00000  Uiso   1.00
O287   O     0.32308   0.04275   0.77302   0.00000  Uiso   1.00
O288   O     0.17693   0.45724   0.22698   0.00000  Uiso   1.00
O289   O     0.45725   0.17692   0.22698   0.00000  Uiso   1.00
O290   O     0.04276   0.32307   0.77302   0.00000  Uiso   1.00
O291   O     0.17693   0.04275   0.22698   0.00000  Uiso   1.00
O292   O     0.32308   0.45724   0.77302   0.00000  Uiso   1.00
O293   O     0.04276   0.32307   0.22698   0.00000  Uiso   1.00
O294   O     0.25000   0.46963   0.33755   0.00000  Uiso   1.00
O295   O     0.45725   0.17692   0.77302   0.00000  Uiso   1.00
O296   O     0.32308   0.45724   0.22698   0.00000  Uiso   1.00
O297   O     0.17693   0.04275   0.77302   0.00000  Uiso   1.00
O298   O     0.16281   0.41942   0.33751   0.00000  Uiso   1.00
O299   O     0.10681   0.44447   0.32940   0.00000  Uiso   1.00
O300   O     0.35840   0.09283   0.65058   0.00000  Uiso   1.00
O301   O     0.36663   0.04077   0.68478   0.00000  Uiso   1.00
O302   O     0.04329   0.13126   0.31129   0.00000  Uiso   1.00
O303   O     0.03271   0.08127   0.27444   0.00000  Uiso   1.00
O304   O     0.44368   0.39081   0.67535   0.00000  Uiso   1.00
O305   O     0.25000   0.03036   0.66245   0.00000  Uiso   1.00
O306   O     0.47720   0.39116   0.73049   0.00000  Uiso   1.00
O307   O     0.33665   0.08142   0.33772   0.00000  Uiso   1.00
O308   O     0.39250   0.05596   0.32996   0.00000  Uiso   1.00
O309   O     0.14148   0.40727   0.65060   0.00000  Uiso   1.00
O310   O     0.13331   0.45930   0.68486   0.00000  Uiso   1.00
O311   O     0.45630   0.36816   0.31190   0.00000  Uiso   1.00
O312   O     0.46699   0.41863   0.27584   0.00000  Uiso   1.00
O313   O     0.05641   0.10925   0.67524   0.00000  Uiso   1.00
O314   O     0.02281   0.10889   0.73033   0.00000  Uiso   1.00
O315   O     0.13296   0.04490   0.68656   0.00000  Uiso   1.00
O316   O     0.03037   0.25000   0.33755   0.00000  Uiso   1.00
O317   O     0.08190   0.03349   0.72144   0.00000  Uiso   1.00
O318   O     0.39150   0.44467   0.32336   0.00000  Uiso   1.00
O319   O     0.39180   0.47743   0.26769   0.00000  Uiso   1.00
O320   O     0.07859   0.33842   0.66308   0.00000  Uiso   1.00
O321   O     0.05466   0.39480   0.67188   0.00000  Uiso   1.00
O322   O     0.40479   0.14371   0.34987   0.00000  Uiso   1.00
O323   O     0.45769   0.13506   0.31727   0.00000  Uiso   1.00
O324   O     0.36711   0.45515   0.68664   0.00000  Uiso   1.00
O325   O     0.41812   0.46654   0.72160   0.00000  Uiso   1.00
O326   O     0.10799   0.05455   0.32237   0.00000  Uiso   1.00
O327   O     0.46964   0.25000   0.66245   0.00000  Uiso   1.00
O328   O     0.10773   0.02247   0.26627   0.00000  Uiso   1.00
O329   O     0.42130   0.16165   0.66305   0.00000  Uiso   1.00
O330   O     0.44527   0.10528   0.67179   0.00000  Uiso   1.00
O331   O     0.09452   0.35701   0.34977   0.00000  Uiso   1.00
O332   O     0.04184   0.36535   0.31669   0.00000  Uiso   1.00
O333   O     0.39174   0.15671   0.84953   0.00000  Uiso   1.00
O334   O     0.38393   0.20902   0.81567   0.00000  Uiso   1.00
O335   O     0.08732   0.33017   0.16262   0.00000  Uiso   1.00
O336   O     0.14352   0.30557   0.17071   0.00000  Uiso   1.00
O337   O     0.30639   0.35911   0.82468   0.00000  Uiso   1.00
O338   O     0.25000   0.03036   0.33755   0.00000  Uiso   1.00
O339   O     0.27275   0.35892   0.76961   0.00000  Uiso   1.00
O340   O     0.20670   0.11871   0.18869   0.00000  Uiso   1.00
O341   O     0.21728   0.16872   0.22547   0.00000  Uiso   1.00
O342   O     0.10837   0.34320   0.84951   0.00000  Uiso   1.00
O343   O     0.11613   0.29091   0.81559   0.00000  Uiso   1.00
O344   O     0.41328   0.16871   0.16232   0.00000  Uiso   1.00
O345   O     0.35737   0.19404   0.17013   0.00000  Uiso   1.00
O346   O     0.19353   0.14084   0.82478   0.00000  Uiso   1.00
O347   O     0.22723   0.14103   0.76976   0.00000  Uiso   1.00
O348   O     0.29371   0.38185   0.18808   0.00000  Uiso   1.00
Zn349  Zn    0.20660  -0.00000   0.21735   0.00000  Uiso   1.00
Zn350  Zn    0.04341   0.25000   0.28265   0.00000  Uiso   1.00
Zn351  Zn    0.25000   0.45659   0.71735   0.00000  Uiso   1.00
Zn352  Zn    0.25000   0.04340   0.28265   0.00000  Uiso   1.00
Zn353  Zn    0.04341   0.25000   0.71735   0.00000  Uiso   1.00
Zn354  Zn    0.45660   0.25000   0.28265   0.00000  Uiso   1.00
Zn355  Zn    0.25000   0.04340   0.71735   0.00000  Uiso   1.00
Zn356  Zn    0.25000   0.45659   0.28265   0.00000  Uiso   1.00
Zn357  Zn    0.29341  -0.00000   0.78265   0.00000  Uiso   1.00
Zn358  Zn    0.00000   0.20659   0.21735   0.00000  Uiso   1.00
Zn359  Zn    0.00000   0.29340   0.78265   0.00000  Uiso   1.00
Zn360  Zn    0.29341  -0.00000   0.21735   0.00000  Uiso   1.00
Zn361  Zn    0.20660  -0.00000   0.78265   0.00000  Uiso   1.00
Zn362  Zn    0.00000   0.29340   0.21735   0.00000  Uiso   1.00
Zn363  Zn    0.00000   0.20659   0.78265   0.00000  Uiso   1.00
Zn364  Zn    0.45660   0.25000   0.71735   0.00000  Uiso   1.00
C365   C     0.98233   0.27844   0.41820   0.00000  Uiso   1.00
C366   C     0.76771   0.47159   0.08180   0.00000  Uiso   1.00
C367   C     0.71649   0.00242   0.54103   0.00000  Uiso   1.00
C368   C     0.98222   0.27850   0.45901   0.00000  Uiso   1.00
C369   C     0.51772   0.22144   0.54106   0.00000  Uiso   1.00
C370   C     0.71649   0.00247   0.45888   0.00000  Uiso   1.00
C371   C     0.78352   0.49758   0.54103   0.00000  Uiso   1.00
C372   C     0.76777   0.47148   0.95894   0.00000  Uiso   1.00
C373   C     0.73218   0.02849   0.04099   0.00000  Uiso   1.00
C374   C     0.52836   0.23197   0.95903   0.00000  Uiso   1.00
C375   C     0.97158   0.26795   0.04107   0.00000  Uiso   1.00
C376   C     0.73223   0.02853   0.95894   0.00000  Uiso   1.00
C377   C     0.97171   0.26792   0.91821   0.00000  Uiso   1.00
C378   C     0.76783   0.47153   0.04099   0.00000  Uiso   1.00
C379   C     0.97164   0.26803   0.95903   0.00000  Uiso   1.00
C380   C     0.52842   0.23205   0.04107   0.00000  Uiso   1.00
C381   C     0.59775   0.34837   0.24968   0.00000  Uiso   1.00
C382   C     0.90164   0.15225   0.74967   0.00000  Uiso   1.00
C383   C     0.65170   0.09781   0.24957   0.00000  Uiso   1.00
C384   C     0.84779   0.40169   0.74959   0.00000  Uiso   1.00
C385   C     0.90226   0.15162   0.24969   0.00000  Uiso   1.00
C386   C     0.59836   0.34775   0.74966   0.00000  Uiso   1.00
C387   C     0.84830   0.40219   0.24958   0.00000  Uiso   1.00
C388   C     0.52842   0.23226   0.08188   0.00000  Uiso   1.00
C389   C     0.65221   0.09831   0.74959   0.00000  Uiso   1.00
C390   C     0.59781   0.15171   0.75040   0.00000  Uiso   1.00
C391   C     0.90170   0.34781   0.25041   0.00000  Uiso   1.00
C392   C     0.65165   0.40224   0.75036   0.00000  Uiso   1.00
C393   C     0.84774   0.09837   0.25034   0.00000  Uiso   1.00
C394   C     0.90219   0.34829   0.75040   0.00000  Uiso   1.00
C395   C     0.59830   0.15219   0.25042   0.00000  Uiso   1.00
C396   C     0.84836   0.09776   0.75036   0.00000  Uiso   1.00
C397   C     0.65226   0.40163   0.25033   0.00000  Uiso   1.00
C398   C     0.50000   0.24999   0.47949   0.00000  Uiso   1.00
C399   C     0.76758   0.47149   0.91813   0.00000  Uiso   1.00
C400   C     0.50000   0.24999   0.52058   0.00000  Uiso   1.00
C401   C     0.75000   0.00000   0.47939   0.00000  Uiso   1.00
C402   C     0.75000  -0.00000   0.52052   0.00000  Uiso   1.00
C403   C     0.75000   0.00001   0.97942   0.00000  Uiso   1.00
C404   C     0.75000   0.00001   0.02051   0.00000  Uiso   1.00
C405   C     0.50000   0.25000   0.97950   0.00000  Uiso   1.00
C406   C     0.50000   0.25000   0.02060   0.00000  Uiso   1.00
C407   C     0.63480   0.42062   0.31826   0.00000  Uiso   1.00
C408   C     0.86460   0.07885   0.68211   0.00000  Uiso   1.00
C409   C     0.55439   0.11087   0.28580   0.00000  Uiso   1.00
C410   C     0.73229   0.02843   0.08181   0.00000  Uiso   1.00
C411   C     0.94399   0.38807   0.71068   0.00000  Uiso   1.00
C412   C     0.86469   0.07991   0.31856   0.00000  Uiso   1.00
C413   C     0.63532   0.42122   0.68215   0.00000  Uiso   1.00
C414   C     0.94530   0.38883   0.28662   0.00000  Uiso   1.00
C415   C     0.55606   0.11197   0.71057   0.00000  Uiso   1.00
C416   C     0.61186   0.05539   0.71169   0.00000  Uiso   1.00
C417   C     0.88863   0.44451   0.28803   0.00000  Uiso   1.00
C418   C     0.57821   0.36637   0.68246   0.00000  Uiso   1.00
C419   C     0.91953   0.13694   0.31887   0.00000  Uiso   1.00
C420   C     0.88818   0.44465   0.71179   0.00000  Uiso   1.00
C421   C     0.52829   0.23208   0.91821   0.00000  Uiso   1.00
C422   C     0.61098   0.05512   0.28706   0.00000  Uiso   1.00
C423   C     0.92172   0.13370   0.68242   0.00000  Uiso   1.00
C424   C     0.57998   0.36353   0.31860   0.00000  Uiso   1.00
C425   C     0.88563   0.17091   0.81809   0.00000  Uiso   1.00
C426   C     0.61537   0.32924   0.18183   0.00000  Uiso   1.00
C427   C     0.80601   0.36192   0.78935   0.00000  Uiso   1.00
C428   C     0.69560   0.13911   0.21416   0.00000  Uiso   1.00
C429   C     0.61444   0.32903   0.81805   0.00000  Uiso   1.00
C430   C     0.88524   0.17014   0.18150   0.00000  Uiso   1.00
C431   C     0.69395   0.13804   0.78946   0.00000  Uiso   1.00
C432   C     0.97158   0.26774   0.08188   0.00000  Uiso   1.00
C433   C     0.80470   0.36118   0.21336   0.00000  Uiso   1.00
C434   C     0.86136   0.30550   0.21195   0.00000  Uiso   1.00
C435   C     0.63838   0.19482   0.78782   0.00000  Uiso   1.00
C436   C     0.83045   0.11306   0.18117   0.00000  Uiso   1.00
C437   C     0.67184   0.38359   0.81754   0.00000  Uiso   1.00
C438   C     0.63903   0.19489   0.21293   0.00000  Uiso   1.00
C439   C     0.86159   0.30515   0.78774   0.00000  Uiso   1.00
C440   C     0.66999   0.38651   0.18139   0.00000  Uiso   1.00
C441   C     0.82825   0.11633   0.81760   0.00000  Uiso   1.00
C442   C     0.50000   0.24999   0.39812   0.00000  Uiso   1.00
C443   C     0.50000   0.24999   0.60193   0.00000  Uiso   1.00
C444   C     0.75000   0.00000   0.39802   0.00000  Uiso   1.00
C445   C     0.51753   0.22145   0.58187   0.00000  Uiso   1.00
C446   C     0.75000  -0.00000   0.60193   0.00000  Uiso   1.00
C447   C     0.75000   0.00000   0.89807   0.00000  Uiso   1.00
C448   C     0.75000   0.00001   0.10188   0.00000  Uiso   1.00
C449   C     0.50000   0.25000   0.89813   0.00000  Uiso   1.00
C450   C     0.50000   0.25000   0.10194   0.00000  Uiso   1.00
C451   C     0.53521   0.19347   0.47989   0.00000  Uiso   1.00
C452   C     0.96483   0.30653   0.52019   0.00000  Uiso   1.00
C453   C     0.81641   0.49515   0.47978   0.00000  Uiso   1.00
C454   C     0.68359   0.00481   0.52013   0.00000  Uiso   1.00
C455   C     0.96478   0.30651   0.47989   0.00000  Uiso   1.00
C456   C     0.71664   0.00249   0.41802   0.00000  Uiso   1.00
C457   C     0.53517   0.19345   0.52018   0.00000  Uiso   1.00
C458   C     0.68359   0.00485   0.47978   0.00000  Uiso   1.00
C459   C     0.81641   0.49519   0.52013   0.00000  Uiso   1.00
C460   C     0.78528   0.44353   0.97981   0.00000  Uiso   1.00
C461   C     0.71469   0.05646   0.02011   0.00000  Uiso   1.00
C462   C     0.55622   0.21430   0.97990   0.00000  Uiso   1.00
C463   C     0.94374   0.28563   0.02020   0.00000  Uiso   1.00
C464   C     0.71473   0.05649   0.97982   0.00000  Uiso   1.00
C465   C     0.78532   0.44356   0.02011   0.00000  Uiso   1.00
C466   C     0.94378   0.28570   0.97991   0.00000  Uiso   1.00
C467   C     0.78337   0.49762   0.58189   0.00000  Uiso   1.00
C468   C     0.55626   0.21436   0.02020   0.00000  Uiso   1.00
C469   C     0.75000   0.00000   0.35578   0.00000  Uiso   1.00
C470   C     0.75000  -0.00000   0.64420   0.00000  Uiso   1.00
C471   C     0.50000   0.25000   0.35582   0.00000  Uiso   1.00
C472   C     0.50000   0.25000   0.64420   0.00000  Uiso   1.00
C473   C     0.50000   0.25000   0.85582   0.00000  Uiso   1.00
C474   C     0.50000   0.25000   0.14420   0.00000  Uiso   1.00
C475   C     0.75000   0.00000   0.85580   0.00000  Uiso   1.00
C476   C     0.75000   0.00000   0.14418   0.00000  Uiso   1.00
C477   C     0.67987   0.06979   0.25014   0.00000  Uiso   1.00
C478   C     0.51766   0.22154   0.41819   0.00000  Uiso   1.00
C479   C     0.81979   0.42987   0.75014   0.00000  Uiso   1.00
C480   C     0.92990   0.18017   0.24969   0.00000  Uiso   1.00
C481   C     0.56983   0.32011   0.74969   0.00000  Uiso   1.00
C482   C     0.82013   0.43021   0.25014   0.00000  Uiso   1.00
C483   C     0.68021   0.07013   0.75014   0.00000  Uiso   1.00
C484   C     0.57011   0.31983   0.24969   0.00000  Uiso   1.00
C485   C     0.93017   0.17989   0.74969   0.00000  Uiso   1.00
C486   C     0.68018   0.42989   0.75032   0.00000  Uiso   1.00
C487   C     0.82011   0.06982   0.25032   0.00000  Uiso   1.00
C488   C     0.93020   0.32012   0.74986   0.00000  Uiso   1.00
C489   C     0.98247   0.27853   0.58187   0.00000  Uiso   1.00
C490   C     0.57013   0.18021   0.24986   0.00000  Uiso   1.00
C491   C     0.81982   0.07011   0.75033   0.00000  Uiso   1.00
C492   C     0.67989   0.43018   0.25032   0.00000  Uiso   1.00
C493   C     0.56980   0.17988   0.74986   0.00000  Uiso   1.00
C494   C     0.92987   0.31979   0.24986   0.00000  Uiso   1.00
C495   C     0.63058   0.39633   0.28379   0.00000  Uiso   1.00
C496   C     0.87008   0.10255   0.71690   0.00000  Uiso   1.00
C497   C     0.59061   0.11794   0.26738   0.00000  Uiso   1.00
C498   C     0.90902   0.38199   0.73188   0.00000  Uiso   1.00
C499   C     0.86916   0.10393   0.28393   0.00000  Uiso   1.00
C500   C     0.78337   0.49752   0.41802   0.00000  Uiso   1.00
C501   C     0.62988   0.39749   0.71692   0.00000  Uiso   1.00
C502   C     0.90922   0.38190   0.26782   0.00000  Uiso   1.00
C503   C     0.59100   0.11803   0.73183   0.00000  Uiso   1.00
C504   C     0.61843   0.09111   0.73137   0.00000  Uiso   1.00
C505   C     0.88228   0.40929   0.26741   0.00000  Uiso   1.00
C506   C     0.60308   0.37000   0.71655   0.00000  Uiso   1.00
C507   C     0.89667   0.13069   0.28359   0.00000  Uiso   1.00
C508   C     0.88159   0.40891   0.73142   0.00000  Uiso   1.00
C509   C     0.61755   0.09055   0.26694   0.00000  Uiso   1.00
C510   C     0.89688   0.13003   0.71653   0.00000  Uiso   1.00
C511   C     0.71664   0.00237   0.58189   0.00000  Uiso   1.00
C512   C     0.60308   0.36955   0.28345   0.00000  Uiso   1.00
C513   C     0.87996   0.14742   0.78316   0.00000  Uiso   1.00
C514   C     0.61946   0.35363   0.21624   0.00000  Uiso   1.00
C515   C     0.84095   0.36798   0.76809   0.00000  Uiso   1.00
C516   C     0.65939   0.13205   0.23260   0.00000  Uiso   1.00
C517   C     0.62008   0.35254   0.78314   0.00000  Uiso   1.00
C518   C     0.88082   0.14608   0.21611   0.00000  Uiso   1.00
C519   C     0.65903   0.13200   0.76814   0.00000  Uiso   1.00
C520   C     0.84078   0.36811   0.23216   0.00000  Uiso   1.00
C521   C     0.86772   0.34072   0.23258   0.00000  Uiso   1.00
C522   C     0.73242   0.02852   0.91813   0.00000  Uiso   1.00
C523   C     0.63165   0.15896   0.76849   0.00000  Uiso   1.00
C524   C     0.85333   0.11930   0.21644   0.00000  Uiso   1.00
C525   C     0.64694   0.37998   0.78348   0.00000  Uiso   1.00
C526   C     0.63245   0.15945   0.23305   0.00000  Uiso   1.00
C527   C     0.86833   0.34102   0.76845   0.00000  Uiso   1.00
C528   C     0.64692   0.38045   0.21657   0.00000  Uiso   1.00
C529   C     0.85311   0.11998   0.78350   0.00000  Uiso   1.00
C530   C     0.51777   0.22147   0.45901   0.00000  Uiso   1.00
C531   C     0.98228   0.27855   0.54106   0.00000  Uiso   1.00
C532   C     0.78352   0.49753   0.45888   0.00000  Uiso   1.00
Cl533  Cl    0.96166   0.31464   0.39170   0.00000  Uiso   1.00
Cl534  Cl    0.78845   0.43542   0.10830   0.00000  Uiso   1.00
Cl535  Cl    0.93569   0.28893   0.89174   0.00000  Uiso   1.00
Cl536  Cl    0.56467   0.21165   0.10842   0.00000  Uiso   1.00
Cl537  Cl    0.78802   0.43516   0.89158   0.00000  Uiso   1.00
Cl538  Cl    0.71158   0.06461   0.10832   0.00000  Uiso   1.00
Cl539  Cl    0.56431   0.21107   0.89173   0.00000  Uiso   1.00
Cl540  Cl    0.93533   0.28834   0.10842   0.00000  Uiso   1.00
Cl541  Cl    0.53792   0.18510   0.60842   0.00000  Uiso   1.00
Cl542  Cl    0.67529   0.00541   0.39116   0.00000  Uiso   1.00
Cl543  Cl    0.82473   0.49494   0.60870   0.00000  Uiso   1.00
Cl544  Cl    0.53831   0.18533   0.39168   0.00000  Uiso   1.00
Cl545  Cl    0.96208   0.31489   0.60842   0.00000  Uiso   1.00
Cl546  Cl    0.82472   0.49460   0.39115   0.00000  Uiso   1.00
Cl547  Cl    0.67527   0.00504   0.60870   0.00000  Uiso   1.00
Cl548  Cl    0.71198   0.06485   0.89159   0.00000  Uiso   1.00
H549   H     0.54917   0.17123   0.46543   0.00000  Uiso   1.00
H550   H     0.70068   0.07868   0.03457   0.00000  Uiso   1.00
H551   H     0.57834   0.20014   0.96545   0.00000  Uiso   1.00
H552   H     0.92160   0.29976   0.03466   0.00000  Uiso   1.00
H553   H     0.70075   0.07872   0.96536   0.00000  Uiso   1.00
H554   H     0.79933   0.42134   0.03456   0.00000  Uiso   1.00
H555   H     0.92166   0.29986   0.96546   0.00000  Uiso   1.00
H556   H     0.57840   0.20024   0.03466   0.00000  Uiso   1.00
H557   H     0.58522   0.44392   0.31095   0.00000  Uiso   1.00
H558   H     0.87440   0.03206   0.71146   0.00000  Uiso   1.00
H559   H     0.54318   0.06753   0.25142   0.00000  Uiso   1.00
H560   H     0.95089   0.32879   0.53465   0.00000  Uiso   1.00
H561   H     0.97403   0.39118   0.75972   0.00000  Uiso   1.00
H562   H     0.91415   0.05628   0.31159   0.00000  Uiso   1.00
H563   H     0.62557   0.46799   0.71157   0.00000  Uiso   1.00
H564   H     0.95666   0.43261   0.25292   0.00000  Uiso   1.00
H565   H     0.52595   0.10885   0.75957   0.00000  Uiso   1.00
H566   H     0.56754   0.04337   0.74432   0.00000  Uiso   1.00
H567   H     0.89161   0.47385   0.23851   0.00000  Uiso   1.00
H568   H     0.55575   0.41625   0.69049   0.00000  Uiso   1.00
H569   H     0.96705   0.12675   0.29102   0.00000  Uiso   1.00
H570   H     0.93245   0.45665   0.74449   0.00000  Uiso   1.00
H571   H     0.84258   0.49324   0.46527   0.00000  Uiso   1.00
H572   H     0.60809   0.02638   0.23714   0.00000  Uiso   1.00
H573   H     0.94420   0.08383   0.69039   0.00000  Uiso   1.00
H574   H     0.53263   0.37346   0.29031   0.00000  Uiso   1.00
H575   H     0.87614   0.21794   0.78907   0.00000  Uiso   1.00
H576   H     0.66512   0.30629   0.18915   0.00000  Uiso   1.00
H577   H     0.77588   0.35892   0.74037   0.00000  Uiso   1.00
H578   H     0.70683   0.18247   0.24849   0.00000  Uiso   1.00
H579   H     0.62389   0.28201   0.78897   0.00000  Uiso   1.00
H580   H     0.83572   0.19367   0.18851   0.00000  Uiso   1.00
H581   H     0.72415   0.14104   0.74052   0.00000  Uiso   1.00
H582   H     0.65742   0.00671   0.53464   0.00000  Uiso   1.00
H583   H     0.79333   0.31740   0.24706   0.00000  Uiso   1.00
H584   H     0.85844   0.27614   0.26147   0.00000  Uiso   1.00
H585   H     0.68272   0.20638   0.75504   0.00000  Uiso   1.00
H586   H     0.78294   0.12324   0.20903   0.00000  Uiso   1.00
H587   H     0.69407   0.33358   0.80964   0.00000  Uiso   1.00
H588   H     0.64189   0.22361   0.26286   0.00000  Uiso   1.00
H589   H     0.81729   0.29359   0.75489   0.00000  Uiso   1.00
H590   H     0.71737   0.37660   0.20962   0.00000  Uiso   1.00
H591   H     0.80595   0.16631   0.80975   0.00000  Uiso   1.00
H592   H     0.95082   0.32875   0.46544   0.00000  Uiso   1.00
H593   H     0.54911   0.17119   0.53464   0.00000  Uiso   1.00
H594   H     0.65742   0.00677   0.46527   0.00000  Uiso   1.00
H595   H     0.84259   0.49329   0.53463   0.00000  Uiso   1.00
H596   H     0.79926   0.42129   0.96535   0.00000  Uiso   1.00
O597   O     0.75000  -0.00000   0.25000   0.00000  Uiso   1.00
O598   O     0.75000   0.46963   0.66245   0.00000  Uiso   1.00
O599   O     0.78301   0.33138   0.22413   0.00000  Uiso   1.00
O600   O     0.85844   0.30535   0.17663   0.00000  Uiso   1.00
O601   O     0.85823   0.27257   0.23228   0.00000  Uiso   1.00
O602   O     0.61733   0.20564   0.81284   0.00000  Uiso   1.00
O603   O     0.66841   0.21651   0.77784   0.00000  Uiso   1.00
O604   O     0.84519   0.10631   0.15017   0.00000  Uiso   1.00
O605   O     0.79230   0.11494   0.18278   0.00000  Uiso   1.00
O606   O     0.67159   0.41157   0.83686   0.00000  Uiso   1.00
O607   O     0.69526   0.35507   0.82820   0.00000  Uiso   1.00
O608   O     0.64205   0.19545   0.17763   0.00000  Uiso   1.00
O609   O     0.96964   0.25000   0.33755   0.00000  Uiso   1.00
O610   O     0.64227   0.22754   0.23373   0.00000  Uiso   1.00
O611   O     0.88261   0.29433   0.81278   0.00000  Uiso   1.00
O612   O     0.83157   0.28346   0.77770   0.00000  Uiso   1.00
O613   O     0.65541   0.39303   0.15024   0.00000  Uiso   1.00
O614   O     0.70814   0.38472   0.18325   0.00000  Uiso   1.00
O615   O     0.82856   0.08834   0.83690   0.00000  Uiso   1.00
O616   O     0.80481   0.14482   0.82829   0.00000  Uiso   1.00
O617   O     0.53037   0.25000   0.66245   0.00000  Uiso   1.00
O618   O     0.50000   0.21963   0.83755   0.00000  Uiso   1.00
O619   O     0.50000   0.28036   0.16245   0.00000  Uiso   1.00
O620   O     0.78037  -0.00000   0.83755   0.00000  Uiso   1.00
O621   O     0.71964  -0.00000   0.16245   0.00000  Uiso   1.00
O622   O     0.50000   0.28036   0.83755   0.00000  Uiso   1.00
O623   O     0.50000   0.21963   0.16245   0.00000  Uiso   1.00
O624   O     0.71964  -0.00000   0.83755   0.00000  Uiso   1.00
O625   O     0.75000  -0.00000   0.75000   0.00000  Uiso   1.00
O626   O     0.78037  -0.00000   0.16245   0.00000  Uiso   1.00
O627   O     0.70725   0.07307   0.27302   0.00000  Uiso   1.00
O628   O     0.79276   0.42692   0.72698   0.00000  Uiso   1.00
O629   O     0.92693   0.20724   0.27302   0.00000  Uiso   1.00
O630   O     0.57308   0.29275   0.72698   0.00000  Uiso   1.00
O631   O     0.79276   0.42692   0.27302   0.00000  Uiso   1.00
O632   O     0.70725   0.07307   0.72698   0.00000  Uiso   1.00
O633   O     0.57308   0.29275   0.27302   0.00000  Uiso   1.00
O634   O     0.92693   0.20724   0.72698   0.00000  Uiso   1.00
O635   O     0.70725   0.42692   0.72698   0.00000  Uiso   1.00
O636   O     0.50000   0.25000   0.25000   0.00000  Uiso   1.00
O637   O     0.79276   0.07307   0.27302   0.00000  Uiso   1.00
O638   O     0.92693   0.29275   0.72698   0.00000  Uiso   1.00
O639   O     0.57308   0.20724   0.27302   0.00000  Uiso   1.00
O640   O     0.79276   0.07307   0.72698   0.00000  Uiso   1.00
O641   O     0.70725   0.42692   0.27302   0.00000  Uiso   1.00
O642   O     0.57308   0.20724   0.72698   0.00000  Uiso   1.00
O643   O     0.92693   0.29275   0.27302   0.00000  Uiso   1.00
O644   O     0.95725   0.32307   0.77302   0.00000  Uiso   1.00
O645   O     0.54276   0.17692   0.22698   0.00000  Uiso   1.00
O646   O     0.67693   0.45724   0.77302   0.00000  Uiso   1.00
O647   O     0.50000   0.25000   0.75000   0.00000  Uiso   1.00
O648   O     0.82308   0.04275   0.22698   0.00000  Uiso   1.00
O649   O     0.54276   0.17692   0.77302   0.00000  Uiso   1.00
O650   O     0.95725   0.32307   0.22698   0.00000  Uiso   1.00
O651   O     0.82308   0.04275   0.77302   0.00000  Uiso   1.00
O652   O     0.67693   0.45724   0.22698   0.00000  Uiso   1.00
O653   O     0.95725   0.17692   0.22698   0.00000  Uiso   1.00
O654   O     0.54276   0.32307   0.77302   0.00000  Uiso   1.00
O655   O     0.67693   0.04275   0.22698   0.00000  Uiso   1.00
O656   O     0.82308   0.45724   0.77302   0.00000  Uiso   1.00
O657   O     0.54276   0.32307   0.22698   0.00000  Uiso   1.00
O658   O     0.75000   0.46963   0.33755   0.00000  Uiso   1.00
O659   O     0.95725   0.17692   0.77302   0.00000  Uiso   1.00
O660   O     0.82308   0.45724   0.22698   0.00000  Uiso   1.00
O661   O     0.67693   0.04275   0.77302   0.00000  Uiso   1.00
O662   O     0.66281   0.41942   0.33751   0.00000  Uiso   1.00
O663   O     0.60681   0.44447   0.32940   0.00000  Uiso   1.00
O664   O     0.85840   0.09283   0.65058   0.00000  Uiso   1.00
O665   O     0.86663   0.04077   0.68478   0.00000  Uiso   1.00
O666   O     0.54329   0.13126   0.31129   0.00000  Uiso   1.00
O667   O     0.53271   0.08127   0.27444   0.00000  Uiso   1.00
O668   O     0.94368   0.39081   0.67535   0.00000  Uiso   1.00
O669   O     0.75000   0.03036   0.66245   0.00000  Uiso   1.00
O670   O     0.97720   0.39116   0.73049   0.00000  Uiso   1.00
O671   O     0.83665   0.08142   0.33772   0.00000  Uiso   1.00
O672   O     0.89250   0.05596   0.32996   0.00000  Uiso   1.00
O673   O     0.64148   0.40727   0.65060   0.00000  Uiso   1.00
O674   O     0.63331   0.45930   0.68486   0.00000  Uiso   1.00
O675   O     0.95630   0.36816   0.31190   0.00000  Uiso   1.00
O676   O     0.96699   0.41863   0.27584   0.00000  Uiso   1.00
O677   O     0.55641   0.10925   0.67524   0.00000  Uiso   1.00
O678   O     0.52281   0.10889   0.73033   0.00000  Uiso   1.00
O679   O     0.63296   0.04490   0.68656   0.00000  Uiso   1.00
O680   O     0.53037   0.25000   0.33755   0.00000  Uiso   1.00
O681   O     0.58190   0.03349   0.72144   0.00000  Uiso   1.00
O682   O     0.89150   0.44467   0.32336   0.00000  Uiso   1.00
O683   O     0.89180   0.47743   0.26769   0.00000  Uiso   1.00
O684   O     0.57859   0.33842   0.66308   0.00000  Uiso   1.00
O685   O     0.55466   0.39480   0.67188   0.00000  Uiso   1.00
O686   O     0.90479   0.14371   0.34987   0.00000  Uiso   1.00
O687   O     0.95769   0.13506   0.31727   0.00000  Uiso   1.00
O688   O     0.86711   0.45515   0.68664   0.00000  Uiso   1.00
O689   O     0.91812   0.46654   0.72160   0.00000  Uiso   1.00
O690   O     0.60799   0.05455   0.32237   0.00000  Uiso   1.00
O691   O     0.96964   0.25000   0.66245   0.00000  Uiso   1.00
O692   O     0.60773   0.02247   0.26627   0.00000  Uiso   1.00
O693   O     0.92130   0.16165   0.66305   0.00000  Uiso   1.00
O694   O     0.94527   0.10528   0.67179   0.00000  Uiso   1.00
O695   O     0.59452   0.35701   0.34977   0.00000  Uiso   1.00
O696   O     0.54184   0.36535   0.31669   0.00000  Uiso   1.00
O697   O     0.89174   0.15671   0.84953   0.00000  Uiso   1.00
O698   O     0.88393   0.20902   0.81567   0.00000  Uiso   1.00
O699   O     0.58732   0.33017   0.16262   0.00000  Uiso   1.00
O700   O     0.64352   0.30557   0.17071   0.00000  Uiso   1.00
O701   O     0.80639   0.35911   0.82468   0.00000  Uiso   1.00
O702   O     0.75000   0.03036   0.33755   0.00000  Uiso   1.00
O703   O     0.77275   0.35892   0.76961   0.00000  Uiso   1.00
O704   O     0.70670   0.11871   0.18869   0.00000  Uiso   1.00
O705   O     0.71728   0.16872   0.22547   0.00000  Uiso   1.00
O706   O     0.60837   0.34320   0.84951   0.00000  Uiso   1.00
O707   O     0.61613   0.29091   0.81559   0.00000  Uiso   1.00
O708   O     0.91328   0.16871   0.16232   0.00000  Uiso   1.00
O709   O     0.85737   0.19404   0.17013   0.00000  Uiso   1.00
O710   O     0.69353   0.14084   0.82478   0.00000  Uiso   1.00
O711   O     0.72723   0.14103   0.76976   0.00000  Uiso   1.00
O712   O     0.79371   0.38185   0.18808   0.00000  Uiso   1.00
Zn713  Zn    0.70660  -0.00000   0.21735   0.00000  Uiso   1.00
Zn714  Zn    0.54341   0.25000   0.28265   0.00000  Uiso   1.00
Zn715  Zn    0.75000   0.45659   0.71735   0.00000  Uiso   1.00
Zn716  Zn    0.75000   0.04340   0.28265   0.00000  Uiso   1.00
Zn717  Zn    0.54341   0.25000   0.71735   0.00000  Uiso   1.00
Zn718  Zn    0.95660   0.25000   0.28265   0.00000  Uiso   1.00
Zn719  Zn    0.75000   0.04340   0.71735   0.00000  Uiso   1.00
Zn720  Zn    0.75000   0.45659   0.28265   0.00000  Uiso   1.00
Zn721  Zn    0.79341  -0.00000   0.78265   0.00000  Uiso   1.00
Zn722  Zn    0.50000   0.20659   0.21735   0.00000  Uiso   1.00
Zn723  Zn    0.50000   0.29340   0.78265   0.00000  Uiso   1.00
Zn724  Zn    0.79341  -0.00000   0.21735   0.00000  Uiso   1.00
Zn725  Zn    0.70660  -0.00000   0.78265   0.00000  Uiso   1.00
Zn726  Zn    0.50000   0.29340   0.21735   0.00000  Uiso   1.00
Zn727  Zn    0.50000   0.20659   0.78265   0.00000  Uiso   1.00
Zn728  Zn    0.95660   0.25000   0.71735   0.00000  Uiso   1.00
C729   C     0.48233   0.77844   0.41820   0.00000  Uiso   1.00
C730   C     0.26771   0.97159   0.08180   0.00000  Uiso   1.00
C731   C     0.21649   0.50242   0.54103   0.00000  Uiso   1.00
C732   C     0.48222   0.77850   0.45901   0.00000  Uiso   1.00
C733   C     0.01772   0.72144   0.54106   0.00000  Uiso   1.00
C734   C     0.21649   0.50247   0.45888   0.00000  Uiso   1.00
C735   C     0.28352   0.99758   0.54103   0.00000  Uiso   1.00
C736   C     0.26777   0.97148   0.95894   0.00000  Uiso   1.00
C737   C     0.23218   0.52849   0.04099   0.00000  Uiso   1.00
C738   C     0.02836   0.73197   0.95903   0.00000  Uiso   1.00
C739   C     0.47158   0.76795   0.04107   0.00000  Uiso   1.00
C740   C     0.23223   0.52853   0.95894   0.00000  Uiso   1.00
C741   C     0.47171   0.76792   0.91821   0.00000  Uiso   1.00
C742   C     0.26783   0.97153   0.04099   0.00000  Uiso   1.00
C743   C     0.47164   0.76803   0.95903   0.00000  Uiso   1.00
C744   C     0.02842   0.73205   0.04107   0.00000  Uiso   1.00
C745   C     0.09775   0.84837   0.24968   0.00000  Uiso   1.00
C746   C     0.40164   0.65225   0.74967   0.00000  Uiso   1.00
C747   C     0.15170   0.59781   0.24957   0.00000  Uiso   1.00
C748   C     0.34779   0.90169   0.74959   0.00000  Uiso   1.00
C749   C     0.40226   0.65162   0.24969   0.00000  Uiso   1.00
C750   C     0.09836   0.84775   0.74966   0.00000  Uiso   1.00
C751   C     0.34830   0.90219   0.24958   0.00000  Uiso   1.00
C752   C     0.02842   0.73226   0.08188   0.00000  Uiso   1.00
C753   C     0.15221   0.59831   0.74959   0.00000  Uiso   1.00
C754   C     0.09781   0.65171   0.75040   0.00000  Uiso   1.00
C755   C     0.40170   0.84781   0.25041   0.00000  Uiso   1.00
C756   C     0.15165   0.90224   0.75036   0.00000  Uiso   1.00
C757   C     0.34774   0.59837   0.25034   0.00000  Uiso   1.00
C758   C     0.40219   0.84829   0.75040   0.00000  Uiso   1.00
C759   C     0.09830   0.65219   0.25042   0.00000  Uiso   1.00
C760   C     0.34836   0.59776   0.75036   0.00000  Uiso   1.00
C761   C     0.15226   0.90163   0.25033   0.00000  Uiso   1.00
C762   C    -0.00000   0.74999   0.47949   0.00000  Uiso   1.00
C763   C     0.26758   0.97149   0.91813   0.00000  Uiso   1.00
C764   C    -0.00000   0.74999   0.52058   0.00000  Uiso   1.00
C765   C     0.25000   0.50000   0.47939   0.00000  Uiso   1.00
C766   C     0.25000   0.50000   0.52052   0.00000  Uiso   1.00
C767   C     0.25000   0.50001   0.97942   0.00000  Uiso   1.00
C768   C     0.25000   0.50001   0.02051   0.00000  Uiso   1.00
C769   C    -0.00000   0.75000   0.97950   0.00000  Uiso   1.00
C770   C    -0.00000   0.75000   0.02060   0.00000  Uiso   1.00
C771   C     0.13480   0.92062   0.31826   0.00000  Uiso   1.00
C772   C     0.36460   0.57885   0.68211   0.00000  Uiso   1.00
C773   C     0.05439   0.61087   0.28580   0.00000  Uiso   1.00
C774   C     0.23229   0.52843   0.08181   0.00000  Uiso   1.00
C775   C     0.44399   0.88807   0.71068   0.00000  Uiso   1.00
C776   C     0.36469   0.57991   0.31856   0.00000  Uiso   1.00
C777   C     0.13532   0.92122   0.68215   0.00000  Uiso   1.00
C778   C     0.44530   0.88883   0.28662   0.00000  Uiso   1.00
C779   C     0.05606   0.61197   0.71057   0.00000  Uiso   1.00
C780   C     0.11186   0.55539   0.71169   0.00000  Uiso   1.00
C781   C     0.38863   0.94451   0.28803   0.00000  Uiso   1.00
C782   C     0.07821   0.86637   0.68246   0.00000  Uiso   1.00
C783   C     0.41953   0.63694   0.31887   0.00000  Uiso   1.00
C784   C     0.38818   0.94465   0.71179   0.00000  Uiso   1.00
C785   C     0.02829   0.73208   0.91821   0.00000  Uiso   1.00
C786   C     0.11098   0.55512   0.28706   0.00000  Uiso   1.00
C787   C     0.42172   0.63370   0.68242   0.00000  Uiso   1.00
C788   C     0.07998   0.86353   0.31860   0.00000  Uiso   1.00
C789   C     0.38563   0.67091   0.81809   0.00000  Uiso   1.00
C790   C     0.11537   0.82924   0.18183   0.00000  Uiso   1.00
C791   C     0.30601   0.86192   0.78935   0.00000  Uiso   1.00
C792   C     0.19560   0.63911   0.21416   0.00000  Uiso   1.00
C793   C     0.11444   0.82903   0.81805   0.00000  Uiso   1.00
C794   C     0.38524   0.67014   0.18150   0.00000  Uiso   1.00
C795   C     0.19395   0.63804   0.78946   0.00000  Uiso   1.00
C796   C     0.47158   0.76774   0.08188   0.00000  Uiso   1.00
C797   C     0.30470   0.86118   0.21336   0.00000  Uiso   1.00
C798   C     0.36136   0.80550   0.21195   0.00000  Uiso   1.00
C799   C     0.13838   0.69482   0.78782   0.00000  Uiso   1.00
C800   C     0.33045   0.61306   0.18117   0.00000  Uiso   1.00
C801   C     0.17184   0.88359   0.81754   0.00000  Uiso   1.00
C802   C     0.13903   0.69489   0.21293   0.00000  Uiso   1.00
C803   C     0.36159   0.80515   0.78774   0.00000  Uiso   1.00
C804   C     0.16999   0.88651   0.18139   0.00000  Uiso   1.00
C805   C     0.32825   0.61633   0.81760   0.00000  Uiso   1.00
C806   C    -0.00000   0.74999   0.39812   0.00000  Uiso   1.00
C807   C     0.00000   0.74999   0.60193   0.00000  Uiso   1.00
C808   C     0.25000   0.50000   0.39802   0.00000  Uiso   1.00
C809   C     0.01753   0.72145   0.58187   0.00000  Uiso   1.00
C810   C     0.25000   0.50000   0.60193   0.00000  Uiso   1.00
C811   C     0.25000   0.50000   0.89807   0.00000  Uiso   1.00
C812   C     0.25000   0.50001   0.10188   0.00000  Uiso   1.00
C813   C     0.00000   0.75000   0.89813   0.00000  Uiso   1.00
C814   C    -0.00000   0.75000   0.10194   0.00000  Uiso   1.00
C815   C     0.03521   0.69347   0.47989   0.00000  Uiso   1.00
C816   C     0.46483   0.80653   0.52019   0.00000  Uiso   1.00
C817   C     0.31641   0.99515   0.47978   0.00000  Uiso   1.00
C818   C     0.18359   0.50481   0.52013   0.00000  Uiso   1.00
C819   C     0.46478   0.80651   0.47989   0.00000  Uiso   1.00
C820   C     0.21664   0.50249   0.41802   0.00000  Uiso   1.00
C821   C     0.03517   0.69345   0.52018   0.00000  Uiso   1.00
C822   C     0.18359   0.50485   0.47978   0.00000  Uiso   1.00
C823   C     0.31641   0.99519   0.52013   0.00000  Uiso   1.00
C824   C     0.28528   0.94353   0.97981   0.00000  Uiso   1.00
C825   C     0.21469   0.55646   0.02011   0.00000  Uiso   1.00
C826   C     0.05622   0.71430   0.97990   0.00000  Uiso   1.00
C827   C     0.44374   0.78563   0.02020   0.00000  Uiso   1.00
C828   C     0.21473   0.55649   0.97982   0.00000  Uiso   1.00
C829   C     0.28532   0.94356   0.02011   0.00000  Uiso   1.00
C830   C     0.44378   0.78570   0.97991   0.00000  Uiso   1.00
C831   C     0.28337   0.99762   0.58189   0.00000  Uiso   1.00
C832   C     0.05626   0.71436   0.02020   0.00000  Uiso   1.00
C833   C     0.25000   0.50000   0.35578   0.00000  Uiso   1.00
C834   C     0.25000   0.50000   0.64420   0.00000  Uiso   1.00
C835   C    -0.00000   0.75000   0.35582   0.00000  Uiso   1.00
C836   C     0.00000   0.75000   0.64420   0.00000  Uiso   1.00
C837   C     0.00000   0.75000   0.85582   0.00000  Uiso   1.00
C838   C     0.00000   0.75000   0.14420   0.00000  Uiso   1.00
C839   C     0.25000   0.50000   0.85580   0.00000  Uiso   1.00
C840   C     0.25000   0.50000   0.14418   0.00000  Uiso   1.00
C841   C     0.17987   0.56979   0.25014   0.00000  Uiso   1.00
C842   C     0.01766   0.72154   0.41819   0.00000  Uiso   1.00
C843   C     0.31979   0.92987   0.75014   0.00000  Uiso   1.00
C844   C     0.42990   0.68017   0.24969   0.00000  Uiso   1.00
C845   C     0.06983   0.82011   0.74969   0.00000  Uiso   1.00
C846   C     0.32013   0.93021   0.25014   0.00000  Uiso   1.00
C847   C     0.18021   0.57013   0.75014   0.00000  Uiso   1.00
C848   C     0.07011   0.81983   0.24969   0.00000  Uiso   1.00
C849   C     0.43017   0.67989   0.74969   0.00000  Uiso   1.00
C850   C     0.18018   0.92989   0.75032   0.00000  Uiso   1.00
C851   C     0.32011   0.56982   0.25032   0.00000  Uiso   1.00
C852   C     0.43020   0.82012   0.74986   0.00000  Uiso   1.00
C853   C     0.48247   0.77853   0.58187   0.00000  Uiso   1.00
C854   C     0.07013   0.68021   0.24986   0.00000  Uiso   1.00
C855   C     0.31982   0.57011   0.75033   0.00000  Uiso   1.00
C856   C     0.17989   0.93018   0.25032   0.00000  Uiso   1.00
C857   C     0.06980   0.67988   0.74986   0.00000  Uiso   1.00
C858   C     0.42987   0.81979   0.24986   0.00000  Uiso   1.00
C859   C     0.13058   0.89633   0.28379   0.00000  Uiso   1.00
C860   C     0.37008   0.60255   0.71690   0.00000  Uiso   1.00
C861   C     0.09061   0.61794   0.26738   0.00000  Uiso   1.00
C862   C     0.40902   0.88199   0.73188   0.00000  Uiso   1.00
C863   C     0.36916   0.60393   0.28393   0.00000  Uiso   1.00
C864   C     0.28337   0.99752   0.41802   0.00000  Uiso   1.00
C865   C     0.12988   0.89749   0.71692   0.00000  Uiso   1.00
C866   C     0.40922   0.88190   0.26782   0.00000  Uiso   1.00
C867   C     0.09100   0.61803   0.73183   0.00000  Uiso   1.00
C868   C     0.11843   0.59111   0.73137   0.00000  Uiso   1.00
C869   C     0.38228   0.90929   0.26741   0.00000  Uiso   1.00
C870   C     0.10308   0.87000   0.71655   0.00000  Uiso   1.00
C871   C     0.39667   0.63069   0.28359   0.00000  Uiso   1.00
C872   C     0.38159   0.90891   0.73142   0.00000  Uiso   1.00
C873   C     0.11755   0.59055   0.26694   0.00000  Uiso   1.00
C874   C     0.39688   0.63003   0.71653   0.00000  Uiso   1.00
C875   C     0.21664   0.50237   0.58189   0.00000  Uiso   1.00
C876   C     0.10308   0.86955   0.28345   0.00000  Uiso   1.00
C877   C     0.37996   0.64742   0.78316   0.00000  Uiso   1.00
C878   C     0.11946   0.85363   0.21624   0.00000  Uiso   1.00
C879   C     0.34095   0.86798   0.76809   0.00000  Uiso   1.00
C880   C     0.15939   0.63205   0.23260   0.00000  Uiso   1.00
C881   C     0.12008   0.85254   0.78314   0.00000  Uiso   1.00
C882   C     0.38082   0.64608   0.21611   0.00000  Uiso   1.00
C883   C     0.15903   0.63200   0.76814   0.00000  Uiso   1.00
C884   C     0.34078   0.86811   0.23216   0.00000  Uiso   1.00
C885   C     0.36772   0.84072   0.23258   0.00000  Uiso   1.00
C886   C     0.23242   0.52852   0.91813   0.00000  Uiso   1.00
C887   C     0.13165   0.65896   0.76849   0.00000  Uiso   1.00
C888   C     0.35333   0.61930   0.21644   0.00000  Uiso   1.00
C889   C     0.14694   0.87998   0.78348   0.00000  Uiso   1.00
C890   C     0.13245   0.65945   0.23305   0.00000  Uiso   1.00
C891   C     0.36833   0.84102   0.76845   0.00000  Uiso   1.00
C892   C     0.14692   0.88045   0.21657   0.00000  Uiso   1.00
C893   C     0.35311   0.61998   0.78350   0.00000  Uiso   1.00
C894   C     0.01777   0.72147   0.45901   0.00000  Uiso   1.00
C895   C     0.48228   0.77855   0.54106   0.00000  Uiso   1.00
C896   C     0.28352   0.99753   0.45888   0.00000  Uiso   1.00
Cl897  Cl    0.46166   0.81464   0.39170   0.00000  Uiso   1.00
Cl898  Cl    0.28845   0.93542   0.10830   0.00000  Uiso   1.00
Cl899  Cl    0.43569   0.78893   0.89174   0.00000  Uiso   1.00
Cl900  Cl    0.06467   0.71165   0.10842   0.00000  Uiso   1.00
Cl901  Cl    0.28802   0.93516   0.89158   0.00000  Uiso   1.00
Cl902  Cl    0.21158   0.56461   0.10832   0.00000  Uiso   1.00
Cl903  Cl    0.06431   0.71107   0.89173   0.00000  Uiso   1.00
Cl904  Cl    0.43533   0.78834   0.10842   0.00000  Uiso   1.00
Cl905  Cl    0.03792   0.68510   0.60842   0.00000  Uiso   1.00
Cl906  Cl    0.17529   0.50541   0.39116   0.00000  Uiso   1.00
Cl907  Cl    0.32473   0.99494   0.60870   0.00000  Uiso   1.00
Cl908  Cl    0.03831   0.68533   0.39168   0.00000  Uiso   1.00
Cl909  Cl    0.46208   0.81489   0.60842   0.00000  Uiso   1.00
Cl910  Cl    0.32472   0.99460   0.39115   0.00000  Uiso   1.00
Cl911  Cl    0.17527   0.50504   0.60870   0.00000  Uiso   1.00
Cl912  Cl    0.21198   0.56485   0.89159   0.00000  Uiso   1.00
H913   H     0.04917   0.67123   0.46543   0.00000  Uiso   1.00
H914   H     0.20068   0.57868   0.03457   0.00000  Uiso   1.00
H915   H     0.07834   0.70014   0.96545   0.00000  Uiso   1.00
H916   H     0.42160   0.79976   0.03466   0.00000  Uiso   1.00
H917   H     0.20075   0.57872   0.96536   0.00000  Uiso   1.00
H918   H     0.29933   0.92134   0.03456   0.00000  Uiso   1.00
H919   H     0.42166   0.79986   0.96546   0.00000  Uiso   1.00
H920   H     0.07840   0.70024   0.03466   0.00000  Uiso   1.00
H921   H     0.08522   0.94392   0.31095   0.00000  Uiso   1.00
H922   H     0.37440   0.53206   0.71146   0.00000  Uiso   1.00
H923   H     0.04318   0.56753   0.25142   0.00000  Uiso   1.00
H924   H     0.45089   0.82879   0.53465   0.00000  Uiso   1.00
H925   H     0.47403   0.89118   0.75972   0.00000  Uiso   1.00
H926   H     0.41415   0.55628   0.31159   0.00000  Uiso   1.00
H927   H     0.12557   0.96799   0.71157   0.00000  Uiso   1.00
H928   H     0.45666   0.93261   0.25292   0.00000  Uiso   1.00
H929   H     0.02595   0.60885   0.75957   0.00000  Uiso   1.00
H930   H     0.06754   0.54337   0.74432   0.00000  Uiso   1.00
H931   H     0.39161   0.97385   0.23851   0.00000  Uiso   1.00
H932   H     0.05575   0.91625   0.69049   0.00000  Uiso   1.00
H933   H     0.46705   0.62675   0.29102   0.00000  Uiso   1.00
H934   H     0.43245   0.95665   0.74449   0.00000  Uiso   1.00
H935   H     0.34258   0.99324   0.46527   0.00000  Uiso   1.00
H936   H     0.10809   0.52638   0.23714   0.00000  Uiso   1.00
H937   H     0.44420   0.58383   0.69039   0.00000  Uiso   1.00
H938   H     0.03263   0.87346   0.29031   0.00000  Uiso   1.00
H939   H     0.37614   0.71794   0.78907   0.00000  Uiso   1.00
H940   H     0.16512   0.80629   0.18915   0.00000  Uiso   1.00
H941   H     0.27588   0.85892   0.74037   0.00000  Uiso   1.00
H942   H     0.20683   0.68247   0.24849   0.00000  Uiso   1.00
H943   H     0.12389   0.78201   0.78897   0.00000  Uiso   1.00
H944   H     0.33572   0.69367   0.18851   0.00000  Uiso   1.00
H945   H     0.22415   0.64104   0.74052   0.00000  Uiso   1.00
H946   H     0.15742   0.50671   0.53464   0.00000  Uiso   1.00
H947   H     0.29333   0.81740   0.24706   0.00000  Uiso   1.00
H948   H     0.35844   0.77614   0.26147   0.00000  Uiso   1.00
H949   H     0.18272   0.70638   0.75504   0.00000  Uiso   1.00
H950   H     0.28294   0.62324   0.20903   0.00000  Uiso   1.00
H951   H     0.19407   0.83358   0.80964   0.00000  Uiso   1.00
H952   H     0.14189   0.72361   0.26286   0.00000  Uiso   1.00
H953   H     0.31729   0.79359   0.75489   0.00000  Uiso   1.00
H954   H     0.21737   0.87660   0.20962   0.00000  Uiso   1.00
H955   H     0.30595   0.66631   0.80975   0.00000  Uiso   1.00
H956   H     0.45082   0.82875   0.46544   0.00000  Uiso   1.00
H957   H     0.04911   0.67119   0.53464   0.00000  Uiso   1.00
H958   H     0.15742   0.50677   0.46527   0.00000  Uiso   1.00
H959   H     0.34259   0.99329   0.53463   0.00000  Uiso   1.00
H960   H     0.29926   0.92129   0.96535   0.00000  Uiso   1.00
O961   O     0.25000   0.50000   0.25000   0.00000  Uiso   1.00
O962   O     0.25000   0.96963   0.66245   0.00000  Uiso   1.00
O963   O     0.28301   0.83138   0.22413   0.00000  Uiso   1.00
O964   O     0.35844   0.80535   0.17663   0.00000  Uiso   1.00
O965   O     0.35823   0.77257   0.23228   0.00000  Uiso   1.00
O966   O     0.11733   0.70564   0.81284   0.00000  Uiso   1.00
O967   O     0.16841   0.71651   0.77784   0.00000  Uiso   1.00
O968   O     0.34519   0.60631   0.15017   0.00000  Uiso   1.00
O969   O     0.29230   0.61494   0.18278   0.00000  Uiso   1.00
O970   O     0.17159   0.91157   0.83686   0.00000  Uiso   1.00
O971   O     0.19526   0.85507   0.82820   0.00000  Uiso   1.00
O972   O     0.14205   0.69545   0.17763   0.00000  Uiso   1.00
O973   O     0.46964   0.75000   0.33755   0.00000  Uiso   1.00
O974   O     0.14227   0.72754   0.23373   0.00000  Uiso   1.00
O975   O     0.38261   0.79433   0.81278   0.00000  Uiso   1.00
O976   O     0.33157   0.78346   0.77770   0.00000  Uiso   1.00
O977   O     0.15541   0.89303   0.15024   0.00000  Uiso   1.00
O978   O     0.20814   0.88472   0.18325   0.00000  Uiso   1.00
O979   O     0.32856   0.58834   0.83690   0.00000  Uiso   1.00
O980   O     0.30481   0.64482   0.82829   0.00000  Uiso   1.00
O981   O     0.03037   0.75000   0.66245   0.00000  Uiso   1.00
O982   O     0.00000   0.71963   0.83755   0.00000  Uiso   1.00
O983   O     0.00000   0.78036   0.16245   0.00000  Uiso   1.00
O984   O     0.28037   0.50000   0.83755   0.00000  Uiso   1.00
O985   O     0.21964   0.50000   0.16245   0.00000  Uiso   1.00
O986   O     0.00000   0.78036   0.83755   0.00000  Uiso   1.00
O987   O     0.00000   0.71963   0.16245   0.00000  Uiso   1.00
O988   O     0.21964   0.50000   0.83755   0.00000  Uiso   1.00
O989   O     0.25000   0.50000   0.75000   0.00000  Uiso   1.00
O990   O     0.28037   0.50000   0.16245   0.00000  Uiso   1.00
O991   O     0.20725   0.57307   0.27302   0.00000  Uiso   1.00
O992   O     0.29276   0.92692   0.72698   0.00000  Uiso   1.00
O993   O     0.42693   0.70724   0.27302   0.00000  Uiso   1.00
O994   O     0.07308   0.79275   0.72698   0.00000  Uiso   1.00
O995   O     0.29276   0.92692   0.27302   0.00000  Uiso   1.00
O996   O     0.20725   0.57307   0.72698   0.00000  Uiso   1.00
O997   O     0.07308   0.79275   0.27302   0.00000  Uiso   1.00
O998   O     0.42693   0.70724   0.72698   0.00000  Uiso   1.00
O999   O     0.20725   0.92692   0.72698   0.00000  Uiso   1.00
O1000  O     0.00000   0.75000   0.25000   0.00000  Uiso   1.00
O1001  O     0.29276   0.57307   0.27302   0.00000  Uiso   1.00
O1002  O     0.42693   0.79275   0.72698   0.00000  Uiso   1.00
O1003  O     0.07308   0.70724   0.27302   0.00000  Uiso   1.00
O1004  O     0.29276   0.57307   0.72698   0.00000  Uiso   1.00
O1005  O     0.20725   0.92692   0.27302   0.00000  Uiso   1.00
O1006  O     0.07308   0.70724   0.72698   0.00000  Uiso   1.00
O1007  O     0.42693   0.79275   0.27302   0.00000  Uiso   1.00
O1008  O     0.45725   0.82307   0.77302   0.00000  Uiso   1.00
O1009  O     0.04276   0.67692   0.22698   0.00000  Uiso   1.00
O1010  O     0.17693   0.95724   0.77302   0.00000  Uiso   1.00
O1011  O     0.00000   0.75000   0.75000   0.00000  Uiso   1.00
O1012  O     0.32308   0.54275   0.22698   0.00000  Uiso   1.00
O1013  O     0.04276   0.67692   0.77302   0.00000  Uiso   1.00
O1014  O     0.45725   0.82307   0.22698   0.00000  Uiso   1.00
O1015  O     0.32308   0.54275   0.77302   0.00000  Uiso   1.00
O1016  O     0.17693   0.95724   0.22698   0.00000  Uiso   1.00
O1017  O     0.45725   0.67692   0.22698   0.00000  Uiso   1.00
O1018  O     0.04276   0.82307   0.77302   0.00000  Uiso   1.00
O1019  O     0.17693   0.54275   0.22698   0.00000  Uiso   1.00
O1020  O     0.32308   0.95724   0.77302   0.00000  Uiso   1.00
O1021  O     0.04276   0.82307   0.22698   0.00000  Uiso   1.00
O1022  O     0.25000   0.96963   0.33755   0.00000  Uiso   1.00
O1023  O     0.45725   0.67692   0.77302   0.00000  Uiso   1.00
O1024  O     0.32308   0.95724   0.22698   0.00000  Uiso   1.00
O1025  O     0.17693   0.54275   0.77302   0.00000  Uiso   1.00
O1026  O     0.16281   0.91942   0.33751   0.00000  Uiso   1.00
O1027  O     0.10681   0.94447   0.32940   0.00000  Uiso   1.00
O1028  O     0.35840   0.59283   0.65058   0.00000  Uiso   1.00
O1029  O     0.36663   0.54077   0.68478   0.00000  Uiso   1.00
O1030  O     0.04329   0.63126   0.31129   0.00000  Uiso   1.00
O1031  O     0.03271   0.58127   0.27444   0.00000  Uiso   1.00
O1032  O     0.44368   0.89081   0.67535   0.00000  Uiso   1.00
O1033  O     0.25000   0.53036   0.66245   0.00000  Uiso   1.00
O1034  O     0.47720   0.89116   0.73049   0.00000  Uiso   1.00
O1035  O     0.33665   0.58142   0.33772   0.00000  Uiso   1.00
O1036  O     0.39250   0.55596   0.32996   0.00000  Uiso   1.00
O1037  O     0.14148   0.90727   0.65060   0.00000  Uiso   1.00
O1038  O     0.13331   0.95930   0.68486   0.00000  Uiso   1.00
O1039  O     0.45630   0.86816   0.31190   0.00000  Uiso   1.00
O1040  O     0.46699   0.91863   0.27584   0.00000  Uiso   1.00
O1041  O     0.05641   0.60925   0.67524   0.00000  Uiso   1.00
O1042  O     0.02281   0.60889   0.73033   0.00000  Uiso   1.00
O1043  O     0.13296   0.54490   0.68656   0.00000  Uiso   1.00
O1044  O     0.03037   0.75000   0.33755   0.00000  Uiso   1.00
O1045  O     0.08190   0.53349   0.72144   0.00000  Uiso   1.00
O1046  O     0.39150   0.94467   0.32336   0.00000  Uiso   1.00
O1047  O     0.39180   0.97743   0.26769   0.00000  Uiso   1.00
O1048  O     0.07859   0.83842   0.66308   0.00000  Uiso   1.00
O1049  O     0.05466   0.89480   0.67188   0.00000  Uiso   1.00
O1050  O     0.40479   0.64371   0.34987   0.00000  Uiso   1.00
O1051  O     0.45769   0.63506   0.31727   0.00000  Uiso   1.00
O1052  O     0.36711   0.95515   0.68664   0.00000  Uiso   1.00
O1053  O     0.41812   0.96654   0.72160   0.00000  Uiso   1.00
O1054  O     0.10799   0.55455   0.32237   0.00000  Uiso   1.00
O1055  O     0.46964   0.75000   0.66245   0.00000  Uiso   1.00
O1056  O     0.10773   0.52247   0.26627   0.00000  Uiso   1.00
O1057  O     0.42130   0.66165   0.66305   0.00000  Uiso   1.00
O1058  O     0.44527   0.60528   0.67179   0.00000  Uiso   1.00
O1059  O     0.09452   0.85701   0.34977   0.00000  Uiso   1.00
O1060  O     0.04184   0.86535   0.31669   0.00000  Uiso   1.00
O1061  O     0.39174   0.65671   0.84953   0.00000  Uiso   1.00
O1062  O     0.38393   0.70902   0.81567   0.00000  Uiso   1.00
O1063  O     0.08732   0.83017   0.16262   0.00000  Uiso   1.00
O1064  O     0.14352   0.80557   0.17071   0.00000  Uiso   1.00
O1065  O     0.30639   0.85911   0.82468   0.00000  Uiso   1.00
O1066  O     0.25000   0.53036   0.33755   0.00000  Uiso   1.00
O1067  O     0.27275   0.85892   0.76961   0.00000  Uiso   1.00
O1068  O     0.20670   0.61871   0.18869   0.00000  Uiso   1.00
O1069  O     0.21728   0.66872   0.22547   0.00000  Uiso   1.00
O1070  O     0.10837   0.84320   0.84951   0.00000  Uiso   1.00
O1071  O     0.11613   0.79091   0.81559   0.00000  Uiso   1.00
O1072  O     0.41328   0.66871   0.16232   0.00000  Uiso   1.00
O1073  O     0.35737   0.69404   0.17013   0.00000  Uiso   1.00
O1074  O     0.19353   0.64084   0.82478   0.00000  Uiso   1.00
O1075  O     0.22723   0.64103   0.76976   0.00000  Uiso   1.00
O1076  O     0.29371   0.88185   0.18808   0.00000  Uiso   1.00
Zn1077 Zn    0.20660   0.50000   0.21735   0.00000  Uiso   1.00
Zn1078 Zn    0.04341   0.75000   0.28265   0.00000  Uiso   1.00
Zn1079 Zn    0.25000   0.95659   0.71735   0.00000  Uiso   1.00
Zn1080 Zn    0.25000   0.54340   0.28265   0.00000  Uiso   1.00
Zn1081 Zn    0.04341   0.75000   0.71735   0.00000  Uiso   1.00
Zn1082 Zn    0.45660   0.75000   0.28265   0.00000  Uiso   1.00
Zn1083 Zn    0.25000   0.54340   0.71735   0.00000  Uiso   1.00
Zn1084 Zn    0.25000   0.95659   0.28265   0.00000  Uiso   1.00
Zn1085 Zn    0.29341   0.50000   0.78265   0.00000  Uiso   1.00
Zn1086 Zn    0.00000   0.70659   0.21735   0.00000  Uiso   1.00
Zn1087 Zn    0.00000   0.79340   0.78265   0.00000  Uiso   1.00
Zn1088 Zn    0.29341   0.50000   0.21735   0.00000  Uiso   1.00
Zn1089 Zn    0.20660   0.50000   0.78265   0.00000  Uiso   1.00
Zn1090 Zn    0.00000   0.79340   0.21735   0.00000  Uiso   1.00
Zn1091 Zn    0.00000   0.70659   0.78265   0.00000  Uiso   1.00
Zn1092 Zn    0.45660   0.75000   0.71735   0.00000  Uiso   1.00
C1093  C     0.98233   0.77844   0.41820   0.00000  Uiso   1.00
C1094  C     0.76771   0.97159   0.08180   0.00000  Uiso   1.00
C1095  C     0.71649   0.50242   0.54103   0.00000  Uiso   1.00
C1096  C     0.98222   0.77850   0.45901   0.00000  Uiso   1.00
C1097  C     0.51772   0.72144   0.54106   0.00000  Uiso   1.00
C1098  C     0.71649   0.50247   0.45888   0.00000  Uiso   1.00
C1099  C     0.78352   0.99758   0.54103   0.00000  Uiso   1.00
C1100  C     0.76777   0.97148   0.95894   0.00000  Uiso   1.00
C1101  C     0.73218   0.52849   0.04099   0.00000  Uiso   1.00
C1102  C     0.52836   0.73197   0.95903   0.00000  Uiso   1.00
C1103  C     0.97158   0.76795   0.04107   0.00000  Uiso   1.00
C1104  C     0.73223   0.52853   0.95894   0.00000  Uiso   1.00
C1105  C     0.97171   0.76792   0.91821   0.00000  Uiso   1.00
C1106  C     0.76783   0.97153   0.04099   0.00000  Uiso   1.00
C1107  C     0.97164   0.76803   0.95903   0.00000  Uiso   1.00
C1108  C     0.52842   0.73205   0.04107   0.00000  Uiso   1.00
C1109  C     0.59775   0.84837   0.24968   0.00000  Uiso   1.00
C1110  C     0.90164   0.65225   0.74967   0.00000  Uiso   1.00
C1111  C     0.65170   0.59781   0.24957   0.00000  Uiso   1.00
C1112  C     0.84779   0.90169   0.74959   0.00000  Uiso   1.00
C1113  C     0.90226   0.65162   0.24969   0.00000  Uiso   1.00
C1114  C     0.59836   0.84775   0.74966   0.00000  Uiso   1.00
C1115  C     0.84830   0.90219   0.24958   0.00000  Uiso   1.00
C1116  C     0.52842   0.73226   0.08188   0.00000  Uiso   1.00
C1117  C     0.65221   0.59831   0.74959   0.00000  Uiso   1.00
C1118  C     0.59781   0.65171   0.75040   0.00000  Uiso   1.00
C1119  C     0.90170   0.84781   0.25041   0.00000  Uiso   1.00
C1120  C     0.65165   0.90224   0.75036   0.00000  Uiso   1.00
C1121  C     0.84774   0.59837   0.25034   0.00000  Uiso   1.00
C1122  C     0.90219   0.84829   0.75040   0.00000  Uiso   1.00
C1123  C     0.59830   0.65219   0.25042   0.00000  Uiso   1.00
C1124  C     0.84836   0.59776   0.75036   0.00000  Uiso   1.00
C1125  C     0.65226   0.90163   0.25033   0.00000  Uiso   1.00
C1126  C     0.50000   0.74999   0.47949   0.00000  Uiso   1.00
C1127  C     0.76758   0.97149   0.91813   0.00000  Uiso   1.00
C1128  C     0.50000   0.74999   0.52058   0.00000  Uiso   1.00
C1129  C     0.75000   0.50000   0.47939   0.00000  Uiso   1.00
C1130  C     0.75000   0.50000   0.52052   0.00000  Uiso   1.00
C1131  C     0.75000   0.50001   0.97942   0.00000  Uiso   1.00
C1132  C     0.75000   0.50001   0.02051   0.00000  Uiso   1.00
C1133  C     0.50000   0.75000   0.97950   0.00000  Uiso   1.00
C1134  C     0.50000   0.75000   0.02060   0.00000  Uiso   1.00
C1135  C     0.63480   0.92062   0.31826   0.00000  Uiso   1.00
C1136  C     0.86460   0.57885   0.68211   0.00000  Uiso   1.00
C1137  C     0.55439   0.61087   0.28580   0.00000  Uiso   1.00
C1138  C     0.73229   0.52843   0.08181   0.00000  Uiso   1.00
C1139  C     0.94399   0.88807   0.71068   0.00000  Uiso   1.00
C1140  C     0.86469   0.57991   0.31856   0.00000  Uiso   1.00
C1141  C     0.63532   0.92122   0.68215   0.00000  Uiso   1.00
C1142  C     0.94530   0.88883   0.28662   0.00000  Uiso   1.00
C1143  C     0.55606   0.61197   0.71057   0.00000  Uiso   1.00
C1144  C     0.61186   0.55539   0.71169   0.00000  Uiso   1.00
C1145  C     0.88863   0.94451   0.28803   0.00000  Uiso   1.00
C1146  C     0.57821   0.86637   0.68246   0.00000  Uiso   1.00
C1147  C     0.91953   0.63694   0.31887   0.00000  Uiso   1.00
C1148  C     0.88818   0.94465   0.71179   0.00000  Uiso   1.00
C1149  C     0.52829   0.73208   0.91821   0.00000  Uiso   1.00
C1150  C     0.61098   0.55512   0.28706   0.00000  Uiso   1.00
C1151  C     0.92172   0.63370   0.68242   0.00000  Uiso   1.00
C1152  C     0.57998   0.86353   0.31860   0.00000  Uiso   1.00
C1153  C     0.88563   0.67091   0.81809   0.00000  Uiso   1.00
C1154  C     0.61537   0.82924   0.18183   0.00000  Uiso   1.00
C1155  C     0.80601   0.86192   0.78935   0.00000  Uiso   1.00
C1156  C     0.69560   0.63911   0.21416   0.00000  Uiso   1.00
C1157  C     0.61444   0.82903   0.81805   0.00000  Uiso   1.00
C1158  C     0.88524   0.67014   0.18150   0.00000  Uiso   1.00
C1159  C     0.69395   0.63804   0.78946   0.00000  Uiso   1.00
C1160  C     0.97158   0.76774   0.08188   0.00000  Uiso   1.00
C1161  C     0.80470   0.86118   0.21336   0.00000  Uiso   1.00
C1162  C     0.86136   0.80550   0.21195   0.00000  Uiso   1.00
C1163  C     0.63838   0.69482   0.78782   0.00000  Uiso   1.00
C1164  C     0.83045   0.61306   0.18117   0.00000  Uiso   1.00
C1165  C     0.67184   0.88359   0.81754   0.00000  Uiso   1.00
C1166  C     0.63903   0.69489   0.21293   0.00000  Uiso   1.00
C1167  C     0.86159   0.80515   0.78774   0.00000  Uiso   1.00
C1168  C     0.66999   0.88651   0.18139   0.00000  Uiso   1.00
C1169  C     0.82825   0.61633   0.81760   0.00000  Uiso   1.00
C1170  C     0.50000   0.74999   0.39812   0.00000  Uiso   1.00
C1171  C     0.50000   0.74999   0.60193   0.00000  Uiso   1.00
C1172  C     0.75000   0.50000   0.39802   0.00000  Uiso   1.00
C1173  C     0.51753   0.72145   0.58187   0.00000  Uiso   1.00
C1174  C     0.75000   0.50000   0.60193   0.00000  Uiso   1.00
C1175  C     0.75000   0.50000   0.89807   0.00000  Uiso   1.00
C1176  C     0.75000   0.50001   0.10188   0.00000  Uiso   1.00
C1177  C     0.50000   0.75000   0.89813   0.00000  Uiso   1.00
C1178  C     0.50000   0.75000   0.10194   0.00000  Uiso   1.00
C1179  C     0.53521   0.69347   0.47989   0.00000  Uiso   1.00
C1180  C     0.96483   0.80653   0.52019   0.00000  Uiso   1.00
C1181  C     0.81641   0.99515   0.47978   0.00000  Uiso   1.00
C1182  C     0.68359   0.50481   0.52013   0.00000  Uiso   1.00
C1183  C     0.96478   0.80651   0.47989   0.00000  Uiso   1.00
C1184  C     0.71664   0.50249   0.41802   0.00000  Uiso   1.00
C1185  C     0.53517   0.69345   0.52018   0.00000  Uiso   1.00
C1186  C     0.68359   0.50485   0.47978   0.00000  Uiso   1.00
C1187  C     0.81641   0.99519   0.52013   0.00000  Uiso   1.00
C1188  C     0.78528   0.94353   0.97981   0.00000  Uiso   1.00
C1189  C     0.71469   0.55646   0.02011   0.00000  Uiso   1.00
C1190  C     0.55622   0.71430   0.97990   0.00000  Uiso   1.00
C1191  C     0.94374   0.78563   0.02020   0.00000  Uiso   1.00
C1192  C     0.71473   0.55649   0.97982   0.00000  Uiso   1.00
C1193  C     0.78532   0.94356   0.02011   0.00000  Uiso   1.00
C1194  C     0.94378   0.78570   0.97991   0.00000  Uiso   1.00
C1195  C     0.78337   0.99762   0.58189   0.00000  Uiso   1.00
C1196  C     0.55626   0.71436   0.02020   0.00000  Uiso   1.00
C1197  C     0.75000   0.50000   0.35578   0.00000  Uiso   1.00
C1198  C     0.75000   0.50000   0.64420   0.00000  Uiso   1.00
C1199  C     0.50000   0.75000   0.35582   0.00000  Uiso   1.00
C1200  C     0.50000   0.75000   0.64420   0.00000  Uiso   1.00
C1201  C     0.50000   0.75000   0.85582   0.00000  Uiso   1.00
C1202  C     0.50000   0.75000   0.14420   0.00000  Uiso   1.00
C1203  C     0.75000   0.50000   0.85580   0.00000  Uiso   1.00
C1204  C     0.75000   0.50000   0.14418   0.00000  Uiso   1.00
C1205  C     0.67987   0.56979   0.25014   0.00000  Uiso   1.00
C1206  C     0.51766   0.72154   0.41819   0.00000  Uiso   1.00
C1207  C     0.81979   0.92987   0.75014   0.00000  Uiso   1.00
C1208  C     0.92990   0.68017   0.24969   0.00000  Uiso   1.00
C1209  C     0.56983   0.82011   0.74969   0.00000  Uiso   1.00
C1210  C     0.82013   0.93021   0.25014   0.00000  Uiso   1.00
C1211  C     0.68021   0.57013   0.75014   0.00000  Uiso   1.00
C1212  C     0.57011   0.81983   0.24969   0.00000  Uiso   1.00
C1213  C     0.93017   0.67989   0.74969   0.00000  Uiso   1.00
C1214  C     0.68018   0.92989   0.75032   0.00000  Uiso   1.00
C1215  C     0.82011   0.56982   0.25032   0.00000  Uiso   1.00
C1216  C     0.93020   0.82012   0.74986   0.00000  Uiso   1.00
C1217  C     0.98247   0.77853   0.58187   0.00000  Uiso   1.00
C1218  C     0.57013   0.68021   0.24986   0.00000  Uiso   1.00
C1219  C     0.81982   0.57011   0.75033   0.00000  Uiso   1.00
C1220  C     0.67989   0.93018   0.25032   0.00000  Uiso   1.00
C1221  C     0.56980   0.67988   0.74986   0.00000  Uiso   1.00
C1222  C     0.92987   0.81979   0.24986   0.00000  Uiso   1.00
C1223  C     0.63058   0.89633   0.28379   0.00000  Uiso   1.00
C1224  C     0.87008   0.60255   0.71690   0.00000  Uiso   1.00
C1225  C     0.59061   0.61794   0.26738   0.00000  Uiso   1.00
C1226  C     0.90902   0.88199   0.73188   0.00000  Uiso   1.00
C1227  C     0.86916   0.60393   0.28393   0.00000  Uiso   1.00
C1228  C     0.78337   0.99752   0.41802   0.00000  Uiso   1.00
C1229  C     0.62988   0.89749   0.71692   0.00000  Uiso   1.00
C1230  C     0.90922   0.88190   0.26782   0.00000  Uiso   1.00
C1231  C     0.59100   0.61803   0.73183   0.00000  Uiso   1.00
C1232  C     0.61843   0.59111   0.73137   0.00000  Uiso   1.00
C1233  C     0.88228   0.90929   0.26741   0.00000  Uiso   1.00
C1234  C     0.60308   0.87000   0.71655   0.00000  Uiso   1.00
C1235  C     0.89667   0.63069   0.28359   0.00000  Uiso   1.00
C1236  C     0.88159   0.90891   0.73142   0.00000  Uiso   1.00
C1237  C     0.61755   0.59055   0.26694   0.00000  Uiso   1.00
C1238  C     0.89688   0.63003   0.71653   0.00000  Uiso   1.00
C1239  C     0.71664   0.50237   0.58189   0.00000  Uiso   1.00
C1240  C     0.60308   0.86955   0.28345   0.00000  Uiso   1.00
C1241  C     0.87996   0.64742   0.78316   0.00000  Uiso   1.00
C1242  C     0.61946   0.85363   0.21624   0.00000  Uiso   1.00
C1243  C     0.84095   0.86798   0.76809   0.00000  Uiso   1.00
C1244  C     0.65939   0.63205   0.23260   0.00000  Uiso   1.00
C1245  C     0.62008   0.85254   0.78314   0.00000  Uiso   1.00
C1246  C     0.88082   0.64608   0.21611   0.00000  Uiso   1.00
C1247  C     0.65903   0.63200   0.76814   0.00000  Uiso   1.00
C1248  C     0.84078   0.86811   0.23216   0.00000  Uiso   1.00
C1249  C     0.86772   0.84072   0.23258   0.00000  Uiso   1.00
C1250  C     0.73242   0.52852   0.91813   0.00000  Uiso   1.00
C1251  C     0.63165   0.65896   0.76849   0.00000  Uiso   1.00
C1252  C     0.85333   0.61930   0.21644   0.00000  Uiso   1.00
C1253  C     0.64694   0.87998   0.78348   0.00000  Uiso   1.00
C1254  C     0.63245   0.65945   0.23305   0.00000  Uiso   1.00
C1255  C     0.86833   0.84102   0.76845   0.00000  Uiso   1.00
C1256  C     0.64692   0.88045   0.21657   0.00000  Uiso   1.00
C1257  C     0.85311   0.61998   0.78350   0.00000  Uiso   1.00
C1258  C     0.51777   0.72147   0.45901   0.00000  Uiso   1.00
C1259  C     0.98228   0.77855   0.54106   0.00000  Uiso   1.00
C1260  C     0.78352   0.99753   0.45888   0.00000  Uiso   1.00
Cl1261 Cl    0.96166   0.81464   0.39170   0.00000  Uiso   1.00
Cl1262 Cl    0.78845   0.93542   0.10830   0.00000  Uiso   1.00
Cl1263 Cl    0.93569   0.78893   0.89174   0.00000  Uiso   1.00
Cl1264 Cl    0.56467   0.71165   0.10842   0.00000  Uiso   1.00
Cl1265 Cl    0.78802   0.93516   0.89158   0.00000  Uiso   1.00
Cl1266 Cl    0.71158   0.56461   0.10832   0.00000  Uiso   1.00
Cl1267 Cl    0.56431   0.71107   0.89173   0.00000  Uiso   1.00
Cl1268 Cl    0.93533   0.78834   0.10842   0.00000  Uiso   1.00
Cl1269 Cl    0.53792   0.68510   0.60842   0.00000  Uiso   1.00
Cl1270 Cl    0.67529   0.50541   0.39116   0.00000  Uiso   1.00
Cl1271 Cl    0.82473   0.99494   0.60870   0.00000  Uiso   1.00
Cl1272 Cl    0.53831   0.68533   0.39168   0.00000  Uiso   1.00
Cl1273 Cl    0.96208   0.81489   0.60842   0.00000  Uiso   1.00
Cl1274 Cl    0.82472   0.99460   0.39115   0.00000  Uiso   1.00
Cl1275 Cl    0.67527   0.50504   0.60870   0.00000  Uiso   1.00
Cl1276 Cl    0.71198   0.56485   0.89159   0.00000  Uiso   1.00
H1277  H     0.54917   0.67123   0.46543   0.00000  Uiso   1.00
H1278  H     0.70068   0.57868   0.03457   0.00000  Uiso   1.00
H1279  H     0.57834   0.70014   0.96545   0.00000  Uiso   1.00
H1280  H     0.92160   0.79976   0.03466   0.00000  Uiso   1.00
H1281  H     0.70075   0.57872   0.96536   0.00000  Uiso   1.00
H1282  H     0.79933   0.92134   0.03456   0.00000  Uiso   1.00
H1283  H     0.92166   0.79986   0.96546   0.00000  Uiso   1.00
H1284  H     0.57840   0.70024   0.03466   0.00000  Uiso   1.00
H1285  H     0.58522   0.94392   0.31095   0.00000  Uiso   1.00
H1286  H     0.87440   0.53206   0.71146   0.00000  Uiso   1.00
H1287  H     0.54318   0.56753   0.25142   0.00000  Uiso   1.00
H1288  H     0.95089   0.82879   0.53465   0.00000  Uiso   1.00
H1289  H     0.97403   0.89118   0.75972   0.00000  Uiso   1.00
H1290  H     0.91415   0.55628   0.31159   0.00000  Uiso   1.00
H1291  H     0.62557   0.96799   0.71157   0.00000  Uiso   1.00
H1292  H     0.95666   0.93261   0.25292   0.00000  Uiso   1.00
H1293  H     0.52595   0.60885   0.75957   0.00000  Uiso   1.00
H1294  H     0.56754   0.54337   0.74432   0.00000  Uiso   1.00
H1295  H     0.89161   0.97385   0.23851   0.00000  Uiso   1.00
H1296  H     0.55575   0.91625   0.69049   0.00000  Uiso   1.00
H1297  H     0.96705   0.62675   0.29102   0.00000  Uiso   1.00
H1298  H     0.93245   0.95665   0.74449   0.00000  Uiso   1.00
H1299  H     0.84258   0.99324   0.46527   0.00000  Uiso   1.00
H1300  H     0.60809   0.52638   0.23714   0.00000  Uiso   1.00
H1301  H     0.94420   0.58383   0.69039   0.00000  Uiso   1.00
H1302  H     0.53263   0.87346   0.29031   0.00000  Uiso   1.00
H1303  H     0.87614   0.71794   0.78907   0.00000  Uiso   1.00
H1304  H     0.66512   0.80629   0.18915   0.00000  Uiso   1.00
H1305  H     0.77588   0.85892   0.74037   0.00000  Uiso   1.00
H1306  H     0.70683   0.68247   0.24849   0.00000  Uiso   1.00
H1307  H     0.62389   0.78201   0.78897   0.00000  Uiso   1.00
H1308  H     0.83572   0.69367   0.18851   0.00000  Uiso   1.00
H1309  H     0.72415   0.64104   0.74052   0.00000  Uiso   1.00
H1310  H     0.65742   0.50671   0.53464   0.00000  Uiso   1.00
H1311  H     0.79333   0.81740   0.24706   0.00000  Uiso   1.00
H1312  H     0.85844   0.77614   0.26147   0.00000  Uiso   1.00
H1313  H     0.68272   0.70638   0.75504   0.00000  Uiso   1.00
H1314  H     0.78294   0.62324   0.20903   0.00000  Uiso   1.00
H1315  H     0.69407   0.83358   0.80964   0.00000  Uiso   1.00
H1316  H     0.64189   0.72361   0.26286   0.00000  Uiso   1.00
H1317  H     0.81729   0.79359   0.75489   0.00000  Uiso   1.00
H1318  H     0.71737   0.87660   0.20962   0.00000  Uiso   1.00
H1319  H     0.80595   0.66631   0.80975   0.00000  Uiso   1.00
H1320  H     0.95082   0.82875   0.46544   0.00000  Uiso   1.00
H1321  H     0.54911   0.67119   0.53464   0.00000  Uiso   1.00
H1322  H     0.65742   0.50677   0.46527   0.00000  Uiso   1.00
H1323  H     0.84259   0.99329   0.53463   0.00000  Uiso   1.00
H1324  H     0.79926   0.92129   0.96535   0.00000  Uiso   1.00
O1325  O     0.75000   0.50000   0.25000   0.00000  Uiso   1.00
O1326  O     0.75000   0.96963   0.66245   0.00000  Uiso   1.00
O1327  O     0.78301   0.83138   0.22413   0.00000  Uiso   1.00
O1328  O     0.85844   0.80535   0.17663   0.00000  Uiso   1.00
O1329  O     0.85823   0.77257   0.23228   0.00000  Uiso   1.00
O1330  O     0.61733   0.70564   0.81284   0.00000  Uiso   1.00
O1331  O     0.66841   0.71651   0.77784   0.00000  Uiso   1.00
O1332  O     0.84519   0.60631   0.15017   0.00000  Uiso   1.00
O1333  O     0.79230   0.61494   0.18278   0.00000  Uiso   1.00
O1334  O     0.67159   0.91157   0.83686   0.00000  Uiso   1.00
O1335  O     0.69526   0.85507   0.82820   0.00000  Uiso   1.00
O1336  O     0.64205   0.69545   0.17763   0.00000  Uiso   1.00
O1337  O     0.96964   0.75000   0.33755   0.00000  Uiso   1.00
O1338  O     0.64227   0.72754   0.23373   0.00000  Uiso   1.00
O1339  O     0.88261   0.79433   0.81278   0.00000  Uiso   1.00
O1340  O     0.83157   0.78346   0.77770   0.00000  Uiso   1.00
O1341  O     0.65541   0.89303   0.15024   0.00000  Uiso   1.00
O1342  O     0.70814   0.88472   0.18325   0.00000  Uiso   1.00
O1343  O     0.82856   0.58834   0.83690   0.00000  Uiso   1.00
O1344  O     0.80481   0.64482   0.82829   0.00000  Uiso   1.00
O1345  O     0.53037   0.75000   0.66245   0.00000  Uiso   1.00
O1346  O     0.50000   0.71963   0.83755   0.00000  Uiso   1.00
O1347  O     0.50000   0.78036   0.16245   0.00000  Uiso   1.00
O1348  O     0.78037   0.50000   0.83755   0.00000  Uiso   1.00
O1349  O     0.71964   0.50000   0.16245   0.00000  Uiso   1.00
O1350  O     0.50000   0.78036   0.83755   0.00000  Uiso   1.00
O1351  O     0.50000   0.71963   0.16245   0.00000  Uiso   1.00
O1352  O     0.71964   0.50000   0.83755   0.00000  Uiso   1.00
O1353  O     0.75000   0.50000   0.75000   0.00000  Uiso   1.00
O1354  O     0.78037   0.50000   0.16245   0.00000  Uiso   1.00
O1355  O     0.70725   0.57307   0.27302   0.00000  Uiso   1.00
O1356  O     0.79276   0.92692   0.72698   0.00000  Uiso   1.00
O1357  O     0.92693   0.70724   0.27302   0.00000  Uiso   1.00
O1358  O     0.57308   0.79275   0.72698   0.00000  Uiso   1.00
O1359  O     0.79276   0.92692   0.27302   0.00000  Uiso   1.00
O1360  O     0.70725   0.57307   0.72698   0.00000  Uiso   1.00
O1361  O     0.57308   0.79275   0.27302   0.00000  Uiso   1.00
O1362  O     0.92693   0.70724   0.72698   0.00000  Uiso   1.00
O1363  O     0.70725   0.92692   0.72698   0.00000  Uiso   1.00
O1364  O     0.50000   0.75000   0.25000   0.00000  Uiso   1.00
O1365  O     0.79276   0.57307   0.27302   0.00000  Uiso   1.00
O1366  O     0.92693   0.79275   0.72698   0.00000  Uiso   1.00
O1367  O     0.57308   0.70724   0.27302   0.00000  Uiso   1.00
O1368  O     0.79276   0.57307   0.72698   0.00000  Uiso   1.00
O1369  O     0.70725   0.92692   0.27302   0.00000  Uiso   1.00
O1370  O     0.57308   0.70724   0.72698   0.00000  Uiso   1.00
O1371  O     0.92693   0.79275   0.27302   0.00000  Uiso   1.00
O1372  O     0.95725   0.82307   0.77302   0.00000  Uiso   1.00
O1373  O     0.54276   0.67692   0.22698   0.00000  Uiso   1.00
O1374  O     0.67693   0.95724   0.77302   0.00000  Uiso   1.00
O1375  O     0.50000   0.75000   0.75000   0.00000  Uiso   1.00
O1376  O     0.82308   0.54275   0.22698   0.00000  Uiso   1.00
O1377  O     0.54276   0.67692   0.77302   0.00000  Uiso   1.00
O1378  O     0.95725   0.82307   0.22698   0.00000  Uiso   1.00
O1379  O     0.82308   0.54275   0.77302   0.00000  Uiso   1.00
O1380  O     0.67693   0.95724   0.22698   0.00000  Uiso   1.00
O1381  O     0.95725   0.67692   0.22698   0.00000  Uiso   1.00
O1382  O     0.54276   0.82307   0.77302   0.00000  Uiso   1.00
O1383  O     0.67693   0.54275   0.22698   0.00000  Uiso   1.00
O1384  O     0.82308   0.95724   0.77302   0.00000  Uiso   1.00
O1385  O     0.54276   0.82307   0.22698   0.00000  Uiso   1.00
O1386  O     0.75000   0.96963   0.33755   0.00000  Uiso   1.00
O1387  O     0.95725   0.67692   0.77302   0.00000  Uiso   1.00
O1388  O     0.82308   0.95724   0.22698   0.00000  Uiso   1.00
O1389  O     0.67693   0.54275   0.77302   0.00000  Uiso   1.00
O1390  O     0.66281   0.91942   0.33751   0.00000  Uiso   1.00
O1391  O     0.60681   0.94447   0.32940   0.00000  Uiso   1.00
O1392  O     0.85840   0.59283   0.65058   0.00000  Uiso   1.00
O1393  O     0.86663   0.54077   0.68478   0.00000  Uiso   1.00
O1394  O     0.54329   0.63126   0.31129   0.00000  Uiso   1.00
O1395  O     0.53271   0.58127   0.27444   0.00000  Uiso   1.00
O1396  O     0.94368   0.89081   0.67535   0.00000  Uiso   1.00
O1397  O     0.75000   0.53036   0.66245   0.00000  Uiso   1.00
O1398  O     0.97720   0.89116   0.73049   0.00000  Uiso   1.00
O1399  O     0.83665   0.58142   0.33772   0.00000  Uiso   1.00
O1400  O     0.89250   0.55596   0.32996   0.00000  Uiso   1.00
O1401  O     0.64148   0.90727   0.65060   0.00000  Uiso   1.00
O1402  O     0.63331   0.95930   0.68486   0.00000  Uiso   1.00
O1403  O     0.95630   0.86816   0.31190   0.00000  Uiso   1.00
O1404  O     0.96699   0.91863   0.27584   0.00000  Uiso   1.00
O1405  O     0.55641   0.60925   0.67524   0.00000  Uiso   1.00
O1406  O     0.52281   0.60889   0.73033   0.00000  Uiso   1.00
O1407  O     0.63296   0.54490   0.68656   0.00000  Uiso   1.00
O1408  O     0.53037   0.75000   0.33755   0.00000  Uiso   1.00
O1409  O     0.58190   0.53349   0.72144   0.00000  Uiso   1.00
O1410  O     0.89150   0.94467   0.32336   0.00000  Uiso   1.00
O1411  O     0.89180   0.97743   0.26769   0.00000  Uiso   1.00
O1412  O     0.57859   0.83842   0.66308   0.00000  Uiso   1.00
O1413  O     0.55466   0.89480   0.67188   0.00000  Uiso   1.00
O1414  O     0.90479   0.64371   0.34987   0.00000  Uiso   1.00
O1415  O     0.95769   0.63506   0.31727   0.00000  Uiso   1.00
O1416  O     0.86711   0.95515   0.68664   0.00000  Uiso   1.00
O1417  O     0.91812   0.96654   0.72160   0.00000  Uiso   1.00
O1418  O     0.60799   0.55455   0.32237   0.00000  Uiso   1.00
O1419  O     0.96964   0.75000   0.66245   0.00000  Uiso   1.00
O1420  O     0.60773   0.52247   0.26627   0.00000  Uiso   1.00
O1421  O     0.92130   0.66165   0.66305   0.00000  Uiso   1.00
O1422  O     0.94527   0.60528   0.67179   0.00000  Uiso   1.00
O1423  O     0.59452   0.85701   0.34977   0.00000  Uiso   1.00
O1424  O     0.54184   0.86535   0.31669   0.00000  Uiso   1.00
O1425  O     0.89174   0.65671   0.84953   0.00000  Uiso   1.00
O1426  O     0.88393   0.70902   0.81567   0.00000  Uiso   1.00
O1427  O     0.58732   0.83017   0.16262   0.00000  Uiso   1.00
O1428  O     0.64352   0.80557   0.17071   0.00000  Uiso   1.00
O1429  O     0.80639   0.85911   0.82468   0.00000  Uiso   1.00
O1430  O     0.75000   0.53036   0.33755   0.00000  Uiso   1.00
O1431  O     0.77275   0.85892   0.76961   0.00000  Uiso   1.00
O1432  O     0.70670   0.61871   0.18869   0.00000  Uiso   1.00
O1433  O     0.71728   0.66872   0.22547   0.00000  Uiso   1.00
O1434  O     0.60837   0.84320   0.84951   0.00000  Uiso   1.00
O1435  O     0.61613   0.79091   0.81559   0.00000  Uiso   1.00
O1436  O     0.91328   0.66871   0.16232   0.00000  Uiso   1.00
O1437  O     0.85737   0.69404   0.17013   0.00000  Uiso   1.00
O1438  O     0.69353   0.64084   0.82478   0.00000  Uiso   1.00
O1439  O     0.72723   0.64103   0.76976   0.00000  Uiso   1.00
O1440  O     0.79371   0.88185   0.18808   0.00000  Uiso   1.00
Zn1441 Zn    0.70660   0.50000   0.21735   0.00000  Uiso   1.00
Zn1442 Zn    0.54341   0.75000   0.28265   0.00000  Uiso   1.00
Zn1443 Zn    0.75000   0.95659   0.71735   0.00000  Uiso   1.00
Zn1444 Zn    0.75000   0.54340   0.28265   0.00000  Uiso   1.00
Zn1445 Zn    0.54341   0.75000   0.71735   0.00000  Uiso   1.00
Zn1446 Zn    0.95660   0.75000   0.28265   0.00000  Uiso   1.00
Zn1447 Zn    0.75000   0.54340   0.71735   0.00000  Uiso   1.00
Zn1448 Zn    0.75000   0.95659   0.28265   0.00000  Uiso   1.00
Zn1449 Zn    0.79341   0.50000   0.78265   0.00000  Uiso   1.00
Zn1450 Zn    0.50000   0.70659   0.21735   0.00000  Uiso   1.00
Zn1451 Zn    0.50000   0.79340   0.78265   0.00000  Uiso   1.00
Zn1452 Zn    0.79341   0.50000   0.21735   0.00000  Uiso   1.00
Zn1453 Zn    0.70660   0.50000   0.78265   0.00000  Uiso   1.00
Zn1454 Zn    0.50000   0.79340   0.21735   0.00000  Uiso   1.00
Zn1455 Zn    0.50000   0.70659   0.78265   0.00000  Uiso   1.00
Zn1456 Zn    0.95660   0.75000   0.71735   0.00000  Uiso   1.00
loop_
_geom_bond_atom_site_label_1
_geom_bond_atom_site_label_2
_geom_bond_distance
_geom_bond_site_symmetry_2
_ccdc_geom_bond_type
C1     C442    1.406   .     A
C1     Cl169   1.776   .     S
C1     C4      1.405   .     A
C2     C14     1.405   .     A
C2     Cl170   1.776   .     S
C2     C812    1.406   .     S
C3     C147    1.407   .     A
C3     C90     1.404   .     A
C3     C38     1.417   .     S
C4     C91     1.404   .     A
C4     C398    1.416   .     A
C5     C81     1.405   .     A
C5     C93     1.404   .     A
C5     C36     1.416   .     S
C6     C94     1.404   .     A
C6     C92     1.407   .     A
C6     C37     1.417   .     A
C7     C103    1.407   .     A
C7     C95     1.404   .     A
C7     C766    1.417   .     A
C8     C35     1.405   .     A
C8     C96     1.403   .     A
C8     C767    1.416   .     S
C9     C46     1.405   .     A
C9     C97     1.404   .     A
C9     C40     1.416   .     A
C10    C98     1.404   .     A
C10    C57     1.405   .     A
C10    C41     1.416   .     S
C11    C99     1.403   .     A
C11    C68     1.405   .     A
C11    C406    1.416   .     A
C12    C158    1.405   .     A
C12    C39     1.416   .     A
C12    C100    1.403   .     A
C13    Cl171   1.776   .     S
C13    C15     1.405   .     A
C13    C449    1.406   .     S
C14    C101    1.404   .     A
C14    C768    1.416   .     S
C15    C405    1.416   .     A
C15    C102    1.404   .     A
C16    C104    1.403   .     A
C16    C24     1.405   .     A
C16    C42     1.416   .     S
C17    C150    1.412   .     A
C17    C120    1.453   .     S
C17    C148    1.411   .     A
C18    C121    1.453   .     S
C18    C149    1.411   .     A
C18    C146    1.411   .     A
C19    C113    1.452   .     S
C19    C145    1.410   .     A
C19    C152    1.410   .     A
C20    C144    1.410   .     A
C20    C151    1.410   .     A
C20    C115    1.452   .     S
C21    C116    1.453   .     S
C21    C154    1.411   .     A
C21    C143    1.411   .     A
C22    C153    1.411   .     A
C22    C117    1.453   .     S
C22    C142    1.411   .     A
C23    C118    1.452   .     S
C23    C141    1.410   .     A
C23    C156    1.410   .     A
C24    Cl172   1.777   .     S
C24    C86     1.406   .     S
C25    C119    1.452   .     S
C25    C140    1.410   .     A
C25    C155    1.410   .     A
C26    C139    1.410   .     A
C26    C159    1.410   .     A
C26    C129    1.452   .     S
C27    C138    1.410   .     A
C27    C157    1.410   .     A
C27    C130    1.452   .     S
C28    C137    1.410   .     A
C28    C122    1.453   .     S
C28    C161    1.411   .     A
C29    C135    1.411   .     A
C29    C160    1.410   .     A
C29    C123    1.453   .     S
C30    C134    1.410   .     A
C30    C163    1.410   .     A
C30    C124    1.452   .     S
C31    C162    1.410   .     A
C31    C133    1.410   .     A
C31    C126    1.452   .     S
C32    C127    1.453   .     S
C32    C165    1.411   .     A
C32    C132    1.410   .     A
C33    C164    1.411   .     A
C33    C131    1.412   .     A
C33    C128    1.453   .     S
C34    C36     1.415   .     A
C34    C368    1.416   1_455 A
C34    C166    1.416   .     S
C35    Cl173   1.777   .     S
C35    C811    1.406   .     S
C36    C531    1.416   1_455 A
C37    C38     1.416   .     S
C37    C896    1.417   1_545 S
C38    C735    1.417   1_545 A
C39    C736    1.416   1_545 S
C39    C40     1.415   1_556 S
C40    C742    1.416   1_545 S
C40    C39     1.415   1_554 S
C41    C379    1.416   1_455 A
C41    C42     1.415   1_556 S
C42    C375    1.416   1_455 A
C42    C41     1.415   1_554 S
C43    C131    1.490   .     S
C43    O298    1.220   .     D
C43    O299    1.398   .     S
C44    O301    1.397   .     S
C44    O300    1.221   .     D
C44    C132    1.492   .     S
C45    C133    1.491   .     S
C45    O303    1.398   .     S
C45    O302    1.221   .     D
C46    Cl174   1.776   .     S
C46    C84     1.406   .     A
C47    C134    1.489   .     S
C47    O304    1.221   .     D
C47    O306    1.397   .     S
C48    C135    1.490   .     S
C48    O307    1.220   .     D
C48    O308    1.398   .     S
C49    C137    1.492   .     S
C49    O310    1.398   .     S
C49    O309    1.221   .     D
C50    C138    1.491   .     S
C50    O311    1.221   .     D
C50    O312    1.398   .     S
C51    O314    1.397   .     S
C51    O313    1.221   .     D
C51    C139    1.489   .     S
C52    O315    1.221   .     D
C52    O317    1.398   .     S
C52    C140    1.491   .     S
C53    O318    1.221   .     D
C53    C141    1.489   .     S
C53    O319    1.397   .     S
C54    O320    1.220   .     D
C54    O321    1.398   .     S
C54    C142    1.490   .     S
C55    O322    1.221   .     D
C55    C143    1.492   .     S
C55    O323    1.398   .     S
C56    O325    1.398   .     S
C56    C144    1.491   .     S
C56    O324    1.221   .     D
C57    C85     1.406   .     A
C57    Cl175   1.776   .     S
C58    O328    1.397   .     S
C58    O326    1.220   .     D
C58    C145    1.489   .     S
C59    O330    1.398   .     S
C59    O329    1.220   .     D
C59    C146    1.490   .     S
C60    O331    1.221   .     D
C60    C148    1.492   .     S
C60    O332    1.398   .     S
C61    C149    1.492   .     S
C61    O334    1.398   .     S
C61    O333    1.221   .     D
C62    C150    1.490   .     S
C62    O335    1.220   .     D
C62    O336    1.398   .     S
C63    O339    1.397   .     S
C63    O337    1.221   .     D
C63    C151    1.489   .     S
C64    C152    1.491   .     S
C64    O340    1.221   .     D
C64    O341    1.398   .     S
C65    O342    1.221   .     D
C65    C153    1.492   .     S
C65    O343    1.398   .     S
C66    C154    1.490   .     S
C66    O345    1.398   .     S
C66    O344    1.221   .     D
C67    O347    1.397   .     S
C67    C155    1.489   .     S
C67    O346    1.221   .     D
C68    Cl176   1.777   .     S
C68    C450    1.406   .     A
C69    C156    1.491   .     S
C69    O348    1.221   .     D
C69    O235    1.398   .     S
C70    O237    1.397   .     S
C70    C157    1.489   .     S
C70    O236    1.221   .     D
C71    O238    1.220   .     D
C71    O239    1.398   .     S
C71    C159    1.491   .     S
C72    O240    1.221   .     D
C72    O241    1.398   .     S
C72    C160    1.492   .     S
C73    C161    1.491   .     S
C73    O242    1.220   .     D
C73    O243    1.398   .     S
C74    O244    1.221   .     D
C74    C162    1.489   .     S
C74    O246    1.397   .     S
C75    O248    1.398   .     S
C75    O247    1.220   .     D
C75    C163    1.491   .     S
C76    O250    1.398   .     S
C76    O249    1.221   .     D
C76    C164    1.492   .     S
C77    C165    1.490   .     S
C77    O252    1.398   .     S
C77    O251    1.220   .     D
C78    C365    1.406   1_455 A
C78    C107    1.456   .     S
C78    C114    1.406   .     S
C79    C81     1.406   .     A
C79    C108    1.455   .     S
C79    C489    1.406   1_455 S
C80    C92     1.404   .     A
C80    C105    1.454   .     S
C80    C864    1.404   1_545 S
C81    Cl177   1.777   .     S
C82    C106    1.455   .     S
C82    C831    1.404   1_545 A
C82    C147    1.404   .     S
C83    C111    1.455   .     S
C83    C158    1.406   .     A
C83    C763    1.406   1_545 S
C84    C112    1.456   .     S
C84    C730    1.406   1_545 S
C85    C377    1.406   1_455 S
C85    C109    1.456   .     S
C86    C110    1.455   .     S
C86    C432    1.406   1_455 A
C87    C93     1.387   .     A
C87    H185    1.081   .     S
C87    C166    1.404   .     A
C88    H196    1.081   .     S
C88    C91     1.387   .     A
C88    C167    1.403   .     A
C89    H207    1.082   .     S
C89    C95     1.389   .     A
C89    C168    1.404   .     A
C90    H218    1.082   .     S
C90    C94     1.389   .     A
C91    H228    1.081   .     S
C92    Cl178   1.775   .     S
C93    H229    1.081   .     S
C94    H230    1.082   .     S
C95    H231    1.082   .     S
C96    H232    1.081   .     S
C96    C101    1.387   1_556 S
C97    H186    1.081   .     S
C97    C100    1.387   1_554 S
C98    H187    1.081   .     S
C98    C104    1.387   1_556 S
C99    H188    1.081   .     S
C99    C102    1.387   1_554 S
C100   H189    1.081   .     S
C100   C97     1.387   1_556 S
C101   H190    1.081   .     S
C101   C96     1.387   1_554 S
C102   H191    1.081   .     S
C102   C99     1.387   1_556 S
C103   Cl179   1.774   .     S
C103   C810    1.404   .     A
C104   H192    1.081   .     S
C104   C98     1.387   1_554 S
C105   O338    1.275   .     A
C105   O1022   1.275   1_545 S
C106   O962    1.276   1_545 A
C106   O305    1.276   .     S
C107   O609    1.276   1_455 A
C107   O316    1.276   .     S
C108   O253    1.276   .     A
C108   O691    1.276   1_455 S
C109   O254    1.276   .     S
C109   O258    1.276   .     S
C110   O259    1.276   .     A
C110   O255    1.276   .     S
C111   O260    1.276   .     A
C111   O256    1.276   .     A
C112   O257    1.276   .     A
C112   O262    1.276   .     A
C113   O263    1.279   .     A
C113   O291    1.275   .     A
C114   Cl180   1.776   .     S
C114   C166    1.405   .     A
C115   O292    1.279   .     A
C115   O264    1.275   .     A
C116   O289    1.275   .     A
C116   O265    1.279   .     A
C117   O290    1.279   .     A
C117   O266    1.275   .     A
C118   O267    1.279   .     A
C118   O296    1.275   .     A
C119   O268    1.275   .     A
C119   O297    1.279   .     A
C120   O269    1.279   .     A
C120   O293    1.275   .     A
C121   O295    1.279   .     A
C121   O270    1.275   .     A
C122   O271    1.279   .     A
C122   O282    1.275   .     A
C123   O273    1.275   .     A
C123   O284    1.279   .     A
C124   O280    1.275   .     A
C124   O274    1.279   .     A
C125   C167    1.405   .     A
C125   Cl181   1.777   .     S
C125   C443    1.406   .     S
C126   O281    1.279   .     A
C126   O275    1.275   .     A
C127   O287    1.275   .     A
C127   O276    1.279   .     A
C128   O288    1.279   .     A
C128   O277    1.275   .     A
C129   O278    1.279   .     A
C129   O285    1.275   .     A
C130   O286    1.279   .     A
C130   O279    1.275   .     A
C131   C148    1.404   .     A
C132   C146    1.404   .     A
C133   C145    1.404   .     A
C134   C144    1.404   .     A
C135   C143    1.404   .     A
C136   Cl182   1.775   .     S
C136   C168    1.407   .     A
C136   C808    1.404   .     S
C137   C142    1.404   .     A
C138   C141    1.404   .     A
C139   C140    1.404   .     A
C147   Cl183   1.774   .     S
C149   C165    1.404   .     A
C150   C164    1.404   .     A
C151   C163    1.404   .     A
C152   C162    1.404   .     A
C153   C161    1.404   .     A
C154   C160    1.404   .     A
C155   C159    1.404   .     A
C156   C157    1.404   .     A
C158   Cl184   1.777   .     S
C167   C400    1.416   .     A
C168   C765    1.417   .     S
H193   O299    1.013   .     S
H194   O301    1.013   .     S
H195   O303    1.013   .     S
H197   O306    1.013   .     S
H198   O308    1.013   .     S
H199   O310    1.013   .     S
H200   O312    1.013   .     S
H201   O314    1.013   .     S
H202   O317    1.013   .     S
H203   O319    1.013   .     S
H204   O321    1.013   .     S
H205   O323    1.013   .     S
H206   O325    1.013   .     S
H208   O328    1.013   .     S
H209   O330    1.013   .     S
H210   O332    1.013   .     S
H211   O334    1.013   .     S
H212   O336    1.013   .     S
H213   O339    1.013   .     S
H214   O341    1.013   .     S
H215   O343    1.013   .     S
H216   O345    1.014   .     S
H217   O347    1.013   .     S
H219   O235    1.013   .     S
H220   O237    1.013   .     S
H221   O239    1.013   .     S
H222   O241    1.013   .     S
H223   O243    1.013   .     S
H224   O246    1.013   .     S
H225   O248    1.013   .     S
H226   O250    1.013   .     S
H227   O252    1.013   .     S
O233   Zn352   1.945   .     S
O233   Zn360   1.945   .     S
O233   Zn349   1.945   .     S
O233   Zn1084  1.945   1_545 S
O234   Zn351   1.949   .     S
O234   C834    1.276   .     A
O245   Zn354   1.949   .     S
O245   C471    1.276   .     A
O253   Zn353   1.949   .     S
O254   Zn363   1.949   .     S
O255   Zn362   1.949   .     S
O256   Zn357   1.949   .     S
O257   Zn349   1.949   .     S
O258   Zn359   1.949   .     S
O259   Zn358   1.949   .     S
O260   Zn361   1.949   .     S
O261   Zn361   1.945   .     S
O261   Zn357   1.945   .     S
O261   Zn355   1.945   .     S
O261   Zn1079  1.945   1_545 S
O262   Zn360   1.949   .     S
O263   Zn352   1.931   .     S
O264   Zn351   1.931   .     S
O265   Zn354   1.932   .     S
O266   Zn353   1.932   .     S
O267   Zn356   1.931   .     S
O268   Zn355   1.931   .     S
O269   Zn350   1.932   .     S
O270   Zn364   1.932   .     S
O271   Zn351   1.932   .     S
O272   Zn362   1.945   .     S
O272   Zn358   1.945   .     S
O272   Zn350   1.945   .     S
O272   Zn718   1.945   1_455 S
O273   Zn352   1.932   .     S
O274   Zn364   1.931   .     S
O275   Zn350   1.931   .     S
O276   Zn355   1.932   .     S
O277   Zn356   1.932   .     S
O278   Zn353   1.931   .     S
O279   Zn354   1.931   .     S
O280   Zn723   1.931   .     S
O281   Zn358   1.931   .     S
O282   Zn1089  1.932   .     S
O283   Zn363   1.945   .     S
O283   Zn359   1.945   .     S
O283   Zn353   1.945   .     S
O283   Zn728   1.945   1_455 S
O284   Zn360   1.932   .     S
O285   Zn363   1.931   .     S
O286   Zn726   1.931   .     S
O287   Zn357   1.932   .     S
O288   Zn1077  1.932   .     S
O289   Zn722   1.932   .     S
O290   Zn359   1.932   .     S
O291   Zn349   1.931   .     S
O292   Zn1085  1.931   .     S
O293   Zn362   1.932   .     S
O294   Zn356   1.949   .     S
O294   C833    1.275   .     S
O295   Zn727   1.932   .     S
O296   Zn1088  1.931   .     S
O297   Zn361   1.931   .     S
O305   Zn355   1.949   .     S
O316   Zn350   1.949   .     S
O327   Zn364   1.949   .     S
O327   C472    1.276   .     S
O338   Zn352   1.949   .     S
Zn349  O1016   1.932   1_545 S
Zn351  O989    1.945   .     S
Zn354  O636    1.945   .     S
Zn356  O961    1.945   .     S
Zn357  O1020   1.931   1_545 S
Zn358  O653    1.932   1_455 S
Zn359  O644    1.931   1_455 S
Zn360  O1024   1.931   1_545 S
Zn361  O1010   1.932   1_545 S
Zn362  O650    1.931   1_455 S
Zn363  O659    1.932   1_455 S
Zn364  O647    1.945   .     S
C365   C78     1.406   1_655 A
C365   Cl533   1.776   .     S
C365   C368    1.405   .     A
C366   C378    1.405   .     A
C366   Cl534   1.776   .     S
C366   C1176   1.406   .     S
C367   C511    1.407   .     A
C367   C454    1.404   .     A
C367   C402    1.417   .     S
C368   C455    1.404   .     A
C368   C34     1.416   1_655 A
C369   C445    1.405   .     A
C369   C457    1.404   .     A
C369   C400    1.416   .     S
C370   C458    1.404   .     A
C370   C456    1.407   .     A
C370   C401    1.417   .     A
C371   C467    1.407   .     A
C371   C459    1.404   .     A
C371   C1130   1.417   .     A
C372   C399    1.405   .     A
C372   C460    1.403   .     A
C372   C1131   1.416   .     S
C373   C410    1.405   .     A
C373   C461    1.404   .     A
C373   C404    1.416   .     A
C374   C462    1.404   .     A
C374   C421    1.405   .     A
C374   C405    1.416   .     S
C375   C463    1.403   .     A
C375   C432    1.405   .     A
C375   C42     1.416   1_655 A
C376   C522    1.405   .     A
C376   C403    1.416   .     A
C376   C464    1.403   .     A
C377   Cl535   1.776   .     S
C377   C379    1.405   .     A
C377   C85     1.406   1_655 S
C378   C465    1.404   .     A
C378   C1132   1.416   .     S
C379   C41     1.416   1_655 A
C379   C466    1.404   .     A
C380   C468    1.403   .     A
C380   C388    1.405   .     A
C380   C406    1.416   .     S
C381   C514    1.412   .     A
C381   C484    1.453   .     S
C381   C512    1.411   .     A
C382   C485    1.453   .     S
C382   C513    1.411   .     A
C382   C510    1.411   .     A
C383   C477    1.452   .     S
C383   C509    1.410   .     A
C383   C516    1.410   .     A
C384   C508    1.410   .     A
C384   C515    1.410   .     A
C384   C479    1.452   .     S
C385   C480    1.453   .     S
C385   C518    1.411   .     A
C385   C507    1.411   .     A
C386   C517    1.411   .     A
C386   C481    1.453   .     S
C386   C506    1.411   .     A
C387   C482    1.452   .     S
C387   C505    1.410   .     A
C387   C520    1.410   .     A
C388   Cl536   1.777   .     S
C388   C450    1.406   .     S
C389   C483    1.452   .     S
C389   C504    1.410   .     A
C389   C519    1.410   .     A
C390   C503    1.410   .     A
C390   C523    1.410   .     A
C390   C493    1.452   .     S
C391   C502    1.410   .     A
C391   C521    1.410   .     A
C391   C494    1.452   .     S
C392   C501    1.410   .     A
C392   C486    1.453   .     S
C392   C525    1.411   .     A
C393   C499    1.411   .     A
C393   C524    1.410   .     A
C393   C487    1.453   .     S
C394   C498    1.410   .     A
C394   C527    1.410   .     A
C394   C488    1.452   .     S
C395   C526    1.410   .     A
C395   C497    1.410   .     A
C395   C490    1.452   .     S
C396   C491    1.453   .     S
C396   C529    1.411   .     A
C396   C496    1.410   .     A
C397   C528    1.411   .     A
C397   C495    1.412   .     A
C397   C492    1.453   .     S
C398   C400    1.415   .     A
C398   C530    1.416   .     S
C399   Cl537   1.777   .     S
C399   C1175   1.406   .     S
C401   C402    1.416   .     S
C401   C1260   1.417   1_545 S
C402   C1099   1.417   1_545 A
C403   C1100   1.416   1_545 S
C403   C404    1.415   1_556 S
C404   C1106   1.416   1_545 S
C404   C403    1.415   1_554 S
C405   C406    1.415   1_556 S
C406   C405    1.415   1_554 S
C407   C495    1.490   .     S
C407   O662    1.220   .     D
C407   O663    1.398   .     S
C408   O665    1.397   .     S
C408   O664    1.221   .     D
C408   C496    1.492   .     S
C409   C497    1.491   .     S
C409   O667    1.398   .     S
C409   O666    1.221   .     D
C410   Cl538   1.776   .     S
C410   C448    1.406   .     A
C411   C498    1.489   .     S
C411   O668    1.221   .     D
C411   O670    1.397   .     S
C412   C499    1.490   .     S
C412   O671    1.220   .     D
C412   O672    1.398   .     S
C413   C501    1.492   .     S
C413   O674    1.398   .     S
C413   O673    1.221   .     D
C414   C502    1.491   .     S
C414   O675    1.221   .     D
C414   O676    1.398   .     S
C415   O678    1.397   .     S
C415   O677    1.221   .     D
C415   C503    1.489   .     S
C416   O679    1.221   .     D
C416   O681    1.398   .     S
C416   C504    1.491   .     S
C417   O682    1.221   .     D
C417   C505    1.489   .     S
C417   O683    1.397   .     S
C418   O684    1.220   .     D
C418   O685    1.398   .     S
C418   C506    1.490   .     S
C419   O686    1.221   .     D
C419   C507    1.492   .     S
C419   O687    1.398   .     S
C420   O689    1.398   .     S
C420   C508    1.491   .     S
C420   O688    1.221   .     D
C421   C449    1.406   .     A
C421   Cl539   1.776   .     S
C422   O692    1.397   .     S
C422   O690    1.220   .     D
C422   C509    1.489   .     S
C423   O694    1.398   .     S
C423   O693    1.220   .     D
C423   C510    1.490   .     S
C424   O695    1.221   .     D
C424   C512    1.492   .     S
C424   O696    1.398   .     S
C425   C513    1.492   .     S
C425   O698    1.398   .     S
C425   O697    1.221   .     D
C426   C514    1.490   .     S
C426   O699    1.220   .     D
C426   O700    1.398   .     S
C427   O703    1.397   .     S
C427   O701    1.221   .     D
C427   C515    1.489   .     S
C428   C516    1.491   .     S
C428   O704    1.221   .     D
C428   O705    1.398   .     S
C429   O706    1.221   .     D
C429   C517    1.492   .     S
C429   O707    1.398   .     S
C430   C518    1.490   .     S
C430   O709    1.398   .     S
C430   O708    1.221   .     D
C431   O711    1.397   .     S
C431   C519    1.489   .     S
C431   O710    1.221   .     D
C432   Cl540   1.777   .     S
C432   C86     1.406   1_655 A
C433   C520    1.491   .     S
C433   O712    1.221   .     D
C433   O599    1.398   .     S
C434   O601    1.397   .     S
C434   C521    1.489   .     S
C434   O600    1.221   .     D
C435   O602    1.220   .     D
C435   O603    1.398   .     S
C435   C523    1.491   .     S
C436   O604    1.221   .     D
C436   O605    1.398   .     S
C436   C524    1.492   .     S
C437   C525    1.491   .     S
C437   O606    1.220   .     D
C437   O607    1.398   .     S
C438   O608    1.221   .     D
C438   C526    1.489   .     S
C438   O610    1.397   .     S
C439   O612    1.398   .     S
C439   O611    1.220   .     D
C439   C527    1.491   .     S
C440   O614    1.398   .     S
C440   O613    1.221   .     D
C440   C528    1.492   .     S
C441   C529    1.490   .     S
C441   O616    1.398   .     S
C441   O615    1.220   .     D
C442   C471    1.456   .     S
C442   C478    1.406   .     S
C443   C445    1.406   .     A
C443   C472    1.455   .     S
C444   C456    1.404   .     A
C444   C469    1.454   .     S
C444   C1228   1.404   1_545 S
C445   Cl541   1.777   .     S
C446   C470    1.455   .     S
C446   C1195   1.404   1_545 A
C446   C511    1.404   .     S
C447   C475    1.455   .     S
C447   C522    1.406   .     A
C447   C1127   1.406   1_545 S
C448   C476    1.456   .     S
C448   C1094   1.406   1_545 S
C449   C473    1.456   .     S
C450   C474    1.455   .     S
C451   C457    1.387   .     A
C451   H549    1.081   .     S
C451   C530    1.404   .     A
C452   H560    1.081   .     S
C452   C455    1.387   .     A
C452   C531    1.403   .     A
C453   H571    1.082   .     S
C453   C459    1.389   .     A
C453   C532    1.404   .     A
C454   H582    1.082   .     S
C454   C458    1.389   .     A
C455   H592    1.081   .     S
C456   Cl542   1.775   .     S
C457   H593    1.081   .     S
C458   H594    1.082   .     S
C459   H595    1.082   .     S
C460   H596    1.081   .     S
C460   C465    1.387   1_556 S
C461   H550    1.081   .     S
C461   C464    1.387   1_554 S
C462   H551    1.081   .     S
C462   C468    1.387   1_556 S
C463   H552    1.081   .     S
C463   C466    1.387   1_554 S
C464   H553    1.081   .     S
C464   C461    1.387   1_556 S
C465   H554    1.081   .     S
C465   C460    1.387   1_554 S
C466   H555    1.081   .     S
C466   C463    1.387   1_556 S
C467   Cl543   1.774   .     S
C467   C1174   1.404   .     A
C468   H556    1.081   .     S
C468   C462    1.387   1_554 S
C469   O702    1.275   .     A
C469   O1386   1.275   1_545 S
C470   O1326   1.276   1_545 A
C470   O669    1.276   .     S
C471   O680    1.276   .     S
C472   O617    1.276   .     A
C473   O618    1.276   .     S
C473   O622    1.276   .     S
C474   O623    1.276   .     A
C474   O619    1.276   .     S
C475   O624    1.276   .     A
C475   O620    1.276   .     A
C476   O621    1.276   .     A
C476   O626    1.276   .     A
C477   O627    1.279   .     A
C477   O655    1.275   .     A
C478   Cl544   1.776   .     S
C478   C530    1.405   .     A
C479   O656    1.279   .     A
C479   O628    1.275   .     A
C480   O653    1.275   .     A
C480   O629    1.279   .     A
C481   O654    1.279   .     A
C481   O630    1.275   .     A
C482   O631    1.279   .     A
C482   O660    1.275   .     A
C483   O632    1.275   .     A
C483   O661    1.279   .     A
C484   O633    1.279   .     A
C484   O657    1.275   .     A
C485   O659    1.279   .     A
C485   O634    1.275   .     A
C486   O635    1.279   .     A
C486   O646    1.275   .     A
C487   O637    1.275   .     A
C487   O648    1.279   .     A
C488   O644    1.275   .     A
C488   O638    1.279   .     A
C489   C531    1.405   .     A
C489   Cl545   1.777   .     S
C489   C79     1.406   1_655 S
C490   O645    1.279   .     A
C490   O639    1.275   .     A
C491   O651    1.275   .     A
C491   O640    1.279   .     A
C492   O652    1.279   .     A
C492   O641    1.275   .     A
C493   O642    1.279   .     A
C493   O649    1.275   .     A
C494   O650    1.279   .     A
C494   O643    1.275   .     A
C495   C512    1.404   .     A
C496   C510    1.404   .     A
C497   C509    1.404   .     A
C498   C508    1.404   .     A
C499   C507    1.404   .     A
C500   Cl546   1.775   .     S
C500   C532    1.407   .     A
C500   C1172   1.404   .     S
C501   C506    1.404   .     A
C502   C505    1.404   .     A
C503   C504    1.404   .     A
C511   Cl547   1.774   .     S
C513   C529    1.404   .     A
C514   C528    1.404   .     A
C515   C527    1.404   .     A
C516   C526    1.404   .     A
C517   C525    1.404   .     A
C518   C524    1.404   .     A
C519   C523    1.404   .     A
C520   C521    1.404   .     A
C522   Cl548   1.777   .     S
C531   C36     1.416   1_655 A
C532   C1129   1.417   .     S
H557   O663    1.013   .     S
H558   O665    1.013   .     S
H559   O667    1.013   .     S
H561   O670    1.013   .     S
H562   O672    1.013   .     S
H563   O674    1.013   .     S
H564   O676    1.013   .     S
H565   O678    1.013   .     S
H566   O681    1.013   .     S
H567   O683    1.013   .     S
H568   O685    1.013   .     S
H569   O687    1.013   .     S
H570   O689    1.013   .     S
H572   O692    1.013   .     S
H573   O694    1.013   .     S
H574   O696    1.013   .     S
H575   O698    1.013   .     S
H576   O700    1.013   .     S
H577   O703    1.013   .     S
H578   O705    1.013   .     S
H579   O707    1.013   .     S
H580   O709    1.014   .     S
H581   O711    1.013   .     S
H583   O599    1.013   .     S
H584   O601    1.013   .     S
H585   O603    1.013   .     S
H586   O605    1.013   .     S
H587   O607    1.013   .     S
H588   O610    1.013   .     S
H589   O612    1.013   .     S
H590   O614    1.013   .     S
H591   O616    1.013   .     S
O597   Zn716   1.945   .     S
O597   Zn724   1.945   .     S
O597   Zn713   1.945   .     S
O597   Zn1448  1.945   1_545 S
O598   Zn715   1.949   .     S
O598   C1198   1.276   .     A
O609   Zn718   1.949   .     S
O609   C107    1.276   1_655 A
O617   Zn717   1.949   .     S
O618   Zn727   1.949   .     S
O619   Zn726   1.949   .     S
O620   Zn721   1.949   .     S
O621   Zn713   1.949   .     S
O622   Zn723   1.949   .     S
O623   Zn722   1.949   .     S
O624   Zn725   1.949   .     S
O625   Zn725   1.945   .     S
O625   Zn721   1.945   .     S
O625   Zn719   1.945   .     S
O625   Zn1443  1.945   1_545 S
O626   Zn724   1.949   .     S
O627   Zn716   1.931   .     S
O628   Zn715   1.931   .     S
O629   Zn718   1.932   .     S
O630   Zn717   1.932   .     S
O631   Zn720   1.931   .     S
O632   Zn719   1.931   .     S
O633   Zn714   1.932   .     S
O634   Zn728   1.932   .     S
O635   Zn715   1.932   .     S
O636   Zn726   1.945   .     S
O636   Zn722   1.945   .     S
O636   Zn714   1.945   .     S
O637   Zn716   1.932   .     S
O638   Zn728   1.931   .     S
O639   Zn714   1.931   .     S
O640   Zn719   1.932   .     S
O641   Zn720   1.932   .     S
O642   Zn717   1.931   .     S
O643   Zn718   1.931   .     S
O644   Zn359   1.931   1_655 S
O645   Zn722   1.931   .     S
O646   Zn1453  1.932   .     S
O647   Zn727   1.945   .     S
O647   Zn723   1.945   .     S
O647   Zn717   1.945   .     S
O648   Zn724   1.932   .     S
O649   Zn727   1.931   .     S
O650   Zn362   1.931   1_655 S
O651   Zn721   1.932   .     S
O652   Zn1441  1.932   .     S
O653   Zn358   1.932   1_655 S
O654   Zn723   1.932   .     S
O655   Zn713   1.931   .     S
O656   Zn1449  1.931   .     S
O657   Zn726   1.932   .     S
O658   Zn720   1.949   .     S
O658   C1197   1.275   .     S
O659   Zn363   1.932   1_655 S
O660   Zn1452  1.931   .     S
O661   Zn725   1.931   .     S
O669   Zn719   1.949   .     S
O680   Zn714   1.949   .     S
O691   Zn728   1.949   .     S
O691   C108    1.276   1_655 S
O702   Zn716   1.949   .     S
Zn713  O1380   1.932   1_545 S
Zn715  O1353   1.945   .     S
Zn718  O272    1.945   1_655 S
Zn720  O1325   1.945   .     S
Zn721  O1384   1.931   1_545 S
Zn724  O1388   1.931   1_545 S
Zn725  O1374   1.932   1_545 S
Zn728  O283    1.945   1_655 S
C729   C1170   1.406   .     A
C729   Cl897   1.776   .     S
C729   C732    1.405   .     A
C730   C742    1.405   .     A
C730   Cl898   1.776   .     S
C730   C84     1.406   1_565 S
C731   C875    1.407   .     A
C731   C818    1.404   .     A
C731   C766    1.417   .     S
C732   C819    1.404   .     A
C732   C1126   1.416   .     A
C733   C809    1.405   .     A
C733   C821    1.404   .     A
C733   C764    1.416   .     S
C734   C822    1.404   .     A
C734   C820    1.407   .     A
C734   C765    1.417   .     A
C735   C831    1.407   .     A
C735   C823    1.404   .     A
C735   C38     1.417   1_565 A
C736   C763    1.405   .     A
C736   C824    1.403   .     A
C736   C39     1.416   1_565 S
C737   C774    1.405   .     A
C737   C825    1.404   .     A
C737   C768    1.416   .     A
C738   C826    1.404   .     A
C738   C785    1.405   .     A
C738   C769    1.416   .     S
C739   C827    1.403   .     A
C739   C796    1.405   .     A
C739   C1134   1.416   .     A
C740   C886    1.405   .     A
C740   C767    1.416   .     A
C740   C828    1.403   .     A
C741   Cl899   1.776   .     S
C741   C743    1.405   .     A
C741   C1177   1.406   .     S
C742   C829    1.404   .     A
C742   C40     1.416   1_565 S
C743   C1133   1.416   .     A
C743   C830    1.404   .     A
C744   C832    1.403   .     A
C744   C752    1.405   .     A
C744   C770    1.416   .     S
C745   C878    1.412   .     A
C745   C848    1.453   .     S
C745   C876    1.411   .     A
C746   C849    1.453   .     S
C746   C877    1.411   .     A
C746   C874    1.411   .     A
C747   C841    1.452   .     S
C747   C873    1.410   .     A
C747   C880    1.410   .     A
C748   C872    1.410   .     A
C748   C879    1.410   .     A
C748   C843    1.452   .     S
C749   C844    1.453   .     S
C749   C882    1.411   .     A
C749   C871    1.411   .     A
C750   C881    1.411   .     A
C750   C845    1.453   .     S
C750   C870    1.411   .     A
C751   C846    1.452   .     S
C751   C869    1.410   .     A
C751   C884    1.410   .     A
C752   Cl900   1.777   .     S
C752   C814    1.406   .     S
C753   C847    1.452   .     S
C753   C868    1.410   .     A
C753   C883    1.410   .     A
C754   C867    1.410   .     A
C754   C887    1.410   .     A
C754   C857    1.452   .     S
C755   C866    1.410   .     A
C755   C885    1.410   .     A
C755   C858    1.452   .     S
C756   C865    1.410   .     A
C756   C850    1.453   .     S
C756   C889    1.411   .     A
C757   C863    1.411   .     A
C757   C888    1.410   .     A
C757   C851    1.453   .     S
C758   C862    1.410   .     A
C758   C891    1.410   .     A
C758   C852    1.452   .     S
C759   C890    1.410   .     A
C759   C861    1.410   .     A
C759   C854    1.452   .     S
C760   C855    1.453   .     S
C760   C893    1.411   .     A
C760   C860    1.410   .     A
C761   C892    1.411   .     A
C761   C859    1.412   .     A
C761   C856    1.453   .     S
C762   C764    1.415   .     A
C762   C1096   1.416   1_455 A
C762   C894    1.416   .     S
C763   Cl901   1.777   .     S
C763   C83     1.406   1_565 S
C764   C1259   1.416   1_455 A
C765   C766    1.416   .     S
C767   C768    1.415   1_556 S
C768   C767    1.415   1_554 S
C769   C1107   1.416   1_455 A
C769   C770    1.415   1_556 S
C770   C1103   1.416   1_455 A
C770   C769    1.415   1_554 S
C771   C859    1.490   .     S
C771   O1026   1.220   .     D
C771   O1027   1.398   .     S
C772   O1029   1.397   .     S
C772   O1028   1.221   .     D
C772   C860    1.492   .     S
C773   C861    1.491   .     S
C773   O1031   1.398   .     S
C773   O1030   1.221   .     D
C774   Cl902   1.776   .     S
C774   C812    1.406   .     A
C775   C862    1.489   .     S
C775   O1032   1.221   .     D
C775   O1034   1.397   .     S
C776   C863    1.490   .     S
C776   O1035   1.220   .     D
C776   O1036   1.398   .     S
C777   C865    1.492   .     S
C777   O1038   1.398   .     S
C777   O1037   1.221   .     D
C778   C866    1.491   .     S
C778   O1039   1.221   .     D
C778   O1040   1.398   .     S
C779   O1042   1.397   .     S
C779   O1041   1.221   .     D
C779   C867    1.489   .     S
C780   O1043   1.221   .     D
C780   O1045   1.398   .     S
C780   C868    1.491   .     S
C781   O1046   1.221   .     D
C781   C869    1.489   .     S
C781   O1047   1.397   .     S
C782   O1048   1.220   .     D
C782   O1049   1.398   .     S
C782   C870    1.490   .     S
C783   O1050   1.221   .     D
C783   C871    1.492   .     S
C783   O1051   1.398   .     S
C784   O1053   1.398   .     S
C784   C872    1.491   .     S
C784   O1052   1.221   .     D
C785   C813    1.406   .     A
C785   Cl903   1.776   .     S
C786   O1056   1.397   .     S
C786   O1054   1.220   .     D
C786   C873    1.489   .     S
C787   O1058   1.398   .     S
C787   O1057   1.220   .     D
C787   C874    1.490   .     S
C788   O1059   1.221   .     D
C788   C876    1.492   .     S
C788   O1060   1.398   .     S
C789   C877    1.492   .     S
C789   O1062   1.398   .     S
C789   O1061   1.221   .     D
C790   C878    1.490   .     S
C790   O1063   1.220   .     D
C790   O1064   1.398   .     S
C791   O1067   1.397   .     S
C791   O1065   1.221   .     D
C791   C879    1.489   .     S
C792   C880    1.491   .     S
C792   O1068   1.221   .     D
C792   O1069   1.398   .     S
C793   O1070   1.221   .     D
C793   C881    1.492   .     S
C793   O1071   1.398   .     S
C794   C882    1.490   .     S
C794   O1073   1.398   .     S
C794   O1072   1.221   .     D
C795   O1075   1.397   .     S
C795   C883    1.489   .     S
C795   O1074   1.221   .     D
C796   Cl904   1.777   .     S
C796   C1178   1.406   .     A
C797   C884    1.491   .     S
C797   O1076   1.221   .     D
C797   O963    1.398   .     S
C798   O965    1.397   .     S
C798   C885    1.489   .     S
C798   O964    1.221   .     D
C799   O966    1.220   .     D
C799   O967    1.398   .     S
C799   C887    1.491   .     S
C800   O968    1.221   .     D
C800   O969    1.398   .     S
C800   C888    1.492   .     S
C801   C889    1.491   .     S
C801   O970    1.220   .     D
C801   O971    1.398   .     S
C802   O972    1.221   .     D
C802   C890    1.489   .     S
C802   O974    1.397   .     S
C803   O976    1.398   .     S
C803   O975    1.220   .     D
C803   C891    1.491   .     S
C804   O978    1.398   .     S
C804   O977    1.221   .     D
C804   C892    1.492   .     S
C805   C893    1.490   .     S
C805   O980    1.398   .     S
C805   O979    1.220   .     D
C806   C1093   1.406   1_455 A
C806   C835    1.456   .     S
C806   C842    1.406   .     S
C807   C809    1.406   .     A
C807   C836    1.455   .     S
C807   C1217   1.406   1_455 S
C808   C820    1.404   .     A
C808   C833    1.454   .     S
C809   Cl905   1.777   .     S
C810   C834    1.455   .     S
C810   C875    1.404   .     S
C811   C839    1.455   .     S
C811   C886    1.406   .     A
C812   C840    1.456   .     S
C813   C1105   1.406   1_455 S
C813   C837    1.456   .     S
C814   C838    1.455   .     S
C814   C1160   1.406   1_455 A
C815   C821    1.387   .     A
C815   H913    1.081   .     S
C815   C894    1.404   .     A
C816   H924    1.081   .     S
C816   C819    1.387   .     A
C816   C895    1.403   .     A
C817   H935    1.082   .     S
C817   C823    1.389   .     A
C817   C896    1.404   .     A
C818   H946    1.082   .     S
C818   C822    1.389   .     A
C819   H956    1.081   .     S
C820   Cl906   1.775   .     S
C821   H957    1.081   .     S
C822   H958    1.082   .     S
C823   H959    1.082   .     S
C824   H960    1.081   .     S
C824   C829    1.387   1_556 S
C825   H914    1.081   .     S
C825   C828    1.387   1_554 S
C826   H915    1.081   .     S
C826   C832    1.387   1_556 S
C827   H916    1.081   .     S
C827   C830    1.387   1_554 S
C828   H917    1.081   .     S
C828   C825    1.387   1_556 S
C829   H918    1.081   .     S
C829   C824    1.387   1_554 S
C830   H919    1.081   .     S
C830   C827    1.387   1_556 S
C831   Cl907   1.774   .     S
C831   C82     1.404   1_565 A
C832   H920    1.081   .     S
C832   C826    1.387   1_554 S
C833   O1066   1.275   .     A
C834   O1033   1.276   .     S
C835   O1337   1.276   1_455 A
C835   O1044   1.276   .     S
C836   O981    1.276   .     A
C836   O1419   1.276   1_455 S
C837   O982    1.276   .     S
C837   O986    1.276   .     S
C838   O987    1.276   .     A
C838   O983    1.276   .     S
C839   O988    1.276   .     A
C839   O984    1.276   .     A
C840   O985    1.276   .     A
C840   O990    1.276   .     A
C841   O991    1.279   .     A
C841   O1019   1.275   .     A
C842   Cl908   1.776   .     S
C842   C894    1.405   .     A
C843   O1020   1.279   .     A
C843   O992    1.275   .     A
C844   O1017   1.275   .     A
C844   O993    1.279   .     A
C845   O1018   1.279   .     A
C845   O994    1.275   .     A
C846   O995    1.279   .     A
C846   O1024   1.275   .     A
C847   O996    1.275   .     A
C847   O1025   1.279   .     A
C848   O997    1.279   .     A
C848   O1021   1.275   .     A
C849   O1023   1.279   .     A
C849   O998    1.275   .     A
C850   O999    1.279   .     A
C850   O1010   1.275   .     A
C851   O1001   1.275   .     A
C851   O1012   1.279   .     A
C852   O1008   1.275   .     A
C852   O1002   1.279   .     A
C853   C895    1.405   .     A
C853   Cl909   1.777   .     S
C853   C1171   1.406   .     S
C854   O1009   1.279   .     A
C854   O1003   1.275   .     A
C855   O1015   1.275   .     A
C855   O1004   1.279   .     A
C856   O1016   1.279   .     A
C856   O1005   1.275   .     A
C857   O1006   1.279   .     A
C857   O1013   1.275   .     A
C858   O1014   1.279   .     A
C858   O1007   1.275   .     A
C859   C876    1.404   .     A
C860   C874    1.404   .     A
C861   C873    1.404   .     A
C862   C872    1.404   .     A
C863   C871    1.404   .     A
C864   Cl910   1.775   .     S
C864   C896    1.407   .     A
C864   C80     1.404   1_565 S
C865   C870    1.404   .     A
C866   C869    1.404   .     A
C867   C868    1.404   .     A
C875   Cl911   1.774   .     S
C877   C893    1.404   .     A
C878   C892    1.404   .     A
C879   C891    1.404   .     A
C880   C890    1.404   .     A
C881   C889    1.404   .     A
C882   C888    1.404   .     A
C883   C887    1.404   .     A
C884   C885    1.404   .     A
C886   Cl912   1.777   .     S
C895   C1128   1.416   .     A
C896   C37     1.417   1_565 S
H921   O1027   1.013   .     S
H922   O1029   1.013   .     S
H923   O1031   1.013   .     S
H925   O1034   1.013   .     S
H926   O1036   1.013   .     S
H927   O1038   1.013   .     S
H928   O1040   1.013   .     S
H929   O1042   1.013   .     S
H930   O1045   1.013   .     S
H931   O1047   1.013   .     S
H932   O1049   1.013   .     S
H933   O1051   1.013   .     S
H934   O1053   1.013   .     S
H936   O1056   1.013   .     S
H937   O1058   1.013   .     S
H938   O1060   1.013   .     S
H939   O1062   1.013   .     S
H940   O1064   1.013   .     S
H941   O1067   1.013   .     S
H942   O1069   1.013   .     S
H943   O1071   1.013   .     S
H944   O1073   1.014   .     S
H945   O1075   1.013   .     S
H947   O963    1.013   .     S
H948   O965    1.013   .     S
H949   O967    1.013   .     S
H950   O969    1.013   .     S
H951   O971    1.013   .     S
H952   O974    1.013   .     S
H953   O976    1.013   .     S
H954   O978    1.013   .     S
H955   O980    1.013   .     S
O961   Zn1080  1.945   .     S
O961   Zn1088  1.945   .     S
O961   Zn1077  1.945   .     S
O962   Zn1079  1.949   .     S
O962   C106    1.276   1_565 A
O973   Zn1082  1.949   .     S
O973   C1199   1.276   .     A
O981   Zn1081  1.949   .     S
O982   Zn1091  1.949   .     S
O983   Zn1090  1.949   .     S
O984   Zn1085  1.949   .     S
O985   Zn1077  1.949   .     S
O986   Zn1087  1.949   .     S
O987   Zn1086  1.949   .     S
O988   Zn1089  1.949   .     S
O989   Zn1089  1.945   .     S
O989   Zn1085  1.945   .     S
O989   Zn1083  1.945   .     S
O990   Zn1088  1.949   .     S
O991   Zn1080  1.931   .     S
O992   Zn1079  1.931   .     S
O993   Zn1082  1.932   .     S
O994   Zn1081  1.932   .     S
O995   Zn1084  1.931   .     S
O996   Zn1083  1.931   .     S
O997   Zn1078  1.932   .     S
O998   Zn1092  1.932   .     S
O999   Zn1079  1.932   .     S
O1000  Zn1090  1.945   .     S
O1000  Zn1086  1.945   .     S
O1000  Zn1078  1.945   .     S
O1000  Zn1446  1.945   1_455 S
O1001  Zn1080  1.932   .     S
O1002  Zn1092  1.931   .     S
O1003  Zn1078  1.931   .     S
O1004  Zn1083  1.932   .     S
O1005  Zn1084  1.932   .     S
O1006  Zn1081  1.931   .     S
O1007  Zn1082  1.931   .     S
O1008  Zn1451  1.931   .     S
O1009  Zn1086  1.931   .     S
O1010  Zn361   1.932   1_565 S
O1011  Zn1091  1.945   .     S
O1011  Zn1087  1.945   .     S
O1011  Zn1081  1.945   .     S
O1011  Zn1456  1.945   1_455 S
O1012  Zn1088  1.932   .     S
O1013  Zn1091  1.931   .     S
O1014  Zn1454  1.931   .     S
O1015  Zn1085  1.932   .     S
O1016  Zn349   1.932   1_565 S
O1017  Zn1450  1.932   .     S
O1018  Zn1087  1.932   .     S
O1019  Zn1077  1.931   .     S
O1020  Zn357   1.931   1_565 S
O1021  Zn1090  1.932   .     S
O1022  Zn1084  1.949   .     S
O1022  C105    1.275   1_565 S
O1023  Zn1455  1.932   .     S
O1024  Zn360   1.931   1_565 S
O1025  Zn1089  1.931   .     S
O1033  Zn1083  1.949   .     S
O1044  Zn1078  1.949   .     S
O1055  Zn1092  1.949   .     S
O1055  C1200   1.276   .     S
O1066  Zn1080  1.949   .     S
Zn1079 O261    1.945   1_565 S
Zn1082 O1364   1.945   .     S
Zn1084 O233    1.945   1_565 S
Zn1086 O1381   1.932   1_455 S
Zn1087 O1372   1.931   1_455 S
Zn1090 O1378   1.931   1_455 S
Zn1091 O1387   1.932   1_455 S
Zn1092 O1375   1.945   .     S
C1093  C806    1.406   1_655 A
C1093  Cl1261  1.776   .     S
C1093  C1096   1.405   .     A
C1094  C1106   1.405   .     A
C1094  Cl1262  1.776   .     S
C1094  C448    1.406   1_565 S
C1095  C1239   1.407   .     A
C1095  C1182   1.404   .     A
C1095  C1130   1.417   .     S
C1096  C1183   1.404   .     A
C1096  C762    1.416   1_655 A
C1097  C1173   1.405   .     A
C1097  C1185   1.404   .     A
C1097  C1128   1.416   .     S
C1098  C1186   1.404   .     A
C1098  C1184   1.407   .     A
C1098  C1129   1.417   .     A
C1099  C1195   1.407   .     A
C1099  C1187   1.404   .     A
C1099  C402    1.417   1_565 A
C1100  C1127   1.405   .     A
C1100  C1188   1.403   .     A
C1100  C403    1.416   1_565 S
C1101  C1138   1.405   .     A
C1101  C1189   1.404   .     A
C1101  C1132   1.416   .     A
C1102  C1190   1.404   .     A
C1102  C1149   1.405   .     A
C1102  C1133   1.416   .     S
C1103  C1191   1.403   .     A
C1103  C1160   1.405   .     A
C1103  C770    1.416   1_655 A
C1104  C1250   1.405   .     A
C1104  C1131   1.416   .     A
C1104  C1192   1.403   .     A
C1105  Cl1263  1.776   .     S
C1105  C1107   1.405   .     A
C1105  C813    1.406   1_655 S
C1106  C1193   1.404   .     A
C1106  C404    1.416   1_565 S
C1107  C769    1.416   1_655 A
C1107  C1194   1.404   .     A
C1108  C1196   1.403   .     A
C1108  C1116   1.405   .     A
C1108  C1134   1.416   .     S
C1109  C1242   1.412   .     A
C1109  C1212   1.453   .     S
C1109  C1240   1.411   .     A
C1110  C1213   1.453   .     S
C1110  C1241   1.411   .     A
C1110  C1238   1.411   .     A
C1111  C1205   1.452   .     S
C1111  C1237   1.410   .     A
C1111  C1244   1.410   .     A
C1112  C1236   1.410   .     A
C1112  C1243   1.410   .     A
C1112  C1207   1.452   .     S
C1113  C1208   1.453   .     S
C1113  C1246   1.411   .     A
C1113  C1235   1.411   .     A
C1114  C1245   1.411   .     A
C1114  C1209   1.453   .     S
C1114  C1234   1.411   .     A
C1115  C1210   1.452   .     S
C1115  C1233   1.410   .     A
C1115  C1248   1.410   .     A
C1116  Cl1264  1.777   .     S
C1116  C1178   1.406   .     S
C1117  C1211   1.452   .     S
C1117  C1232   1.410   .     A
C1117  C1247   1.410   .     A
C1118  C1231   1.410   .     A
C1118  C1251   1.410   .     A
C1118  C1221   1.452   .     S
C1119  C1230   1.410   .     A
C1119  C1249   1.410   .     A
C1119  C1222   1.452   .     S
C1120  C1229   1.410   .     A
C1120  C1214   1.453   .     S
C1120  C1253   1.411   .     A
C1121  C1227   1.411   .     A
C1121  C1252   1.410   .     A
C1121  C1215   1.453   .     S
C1122  C1226   1.410   .     A
C1122  C1255   1.410   .     A
C1122  C1216   1.452   .     S
C1123  C1254   1.410   .     A
C1123  C1225   1.410   .     A
C1123  C1218   1.452   .     S
C1124  C1219   1.453   .     S
C1124  C1257   1.411   .     A
C1124  C1224   1.410   .     A
C1125  C1256   1.411   .     A
C1125  C1223   1.412   .     A
C1125  C1220   1.453   .     S
C1126  C1128   1.415   .     A
C1126  C1258   1.416   .     S
C1127  Cl1265  1.777   .     S
C1127  C447    1.406   1_565 S
C1129  C1130   1.416   .     S
C1131  C1132   1.415   1_556 S
C1132  C1131   1.415   1_554 S
C1133  C1134   1.415   1_556 S
C1134  C1133   1.415   1_554 S
C1135  C1223   1.490   .     S
C1135  O1390   1.220   .     D
C1135  O1391   1.398   .     S
C1136  O1393   1.397   .     S
C1136  O1392   1.221   .     D
C1136  C1224   1.492   .     S
C1137  C1225   1.491   .     S
C1137  O1395   1.398   .     S
C1137  O1394   1.221   .     D
C1138  Cl1266  1.776   .     S
C1138  C1176   1.406   .     A
C1139  C1226   1.489   .     S
C1139  O1396   1.221   .     D
C1139  O1398   1.397   .     S
C1140  C1227   1.490   .     S
C1140  O1399   1.220   .     D
C1140  O1400   1.398   .     S
C1141  C1229   1.492   .     S
C1141  O1402   1.398   .     S
C1141  O1401   1.221   .     D
C1142  C1230   1.491   .     S
C1142  O1403   1.221   .     D
C1142  O1404   1.398   .     S
C1143  O1406   1.397   .     S
C1143  O1405   1.221   .     D
C1143  C1231   1.489   .     S
C1144  O1407   1.221   .     D
C1144  O1409   1.398   .     S
C1144  C1232   1.491   .     S
C1145  O1410   1.221   .     D
C1145  C1233   1.489   .     S
C1145  O1411   1.397   .     S
C1146  O1412   1.220   .     D
C1146  O1413   1.398   .     S
C1146  C1234   1.490   .     S
C1147  O1414   1.221   .     D
C1147  C1235   1.492   .     S
C1147  O1415   1.398   .     S
C1148  O1417   1.398   .     S
C1148  C1236   1.491   .     S
C1148  O1416   1.221   .     D
C1149  C1177   1.406   .     A
C1149  Cl1267  1.776   .     S
C1150  O1420   1.397   .     S
C1150  O1418   1.220   .     D
C1150  C1237   1.489   .     S
C1151  O1422   1.398   .     S
C1151  O1421   1.220   .     D
C1151  C1238   1.490   .     S
C1152  O1423   1.221   .     D
C1152  C1240   1.492   .     S
C1152  O1424   1.398   .     S
C1153  C1241   1.492   .     S
C1153  O1426   1.398   .     S
C1153  O1425   1.221   .     D
C1154  C1242   1.490   .     S
C1154  O1427   1.220   .     D
C1154  O1428   1.398   .     S
C1155  O1431   1.397   .     S
C1155  O1429   1.221   .     D
C1155  C1243   1.489   .     S
C1156  C1244   1.491   .     S
C1156  O1432   1.221   .     D
C1156  O1433   1.398   .     S
C1157  O1434   1.221   .     D
C1157  C1245   1.492   .     S
C1157  O1435   1.398   .     S
C1158  C1246   1.490   .     S
C1158  O1437   1.398   .     S
C1158  O1436   1.221   .     D
C1159  O1439   1.397   .     S
C1159  C1247   1.489   .     S
C1159  O1438   1.221   .     D
C1160  Cl1268  1.777   .     S
C1160  C814    1.406   1_655 A
C1161  C1248   1.491   .     S
C1161  O1440   1.221   .     D
C1161  O1327   1.398   .     S
C1162  O1329   1.397   .     S
C1162  C1249   1.489   .     S
C1162  O1328   1.221   .     D
C1163  O1330   1.220   .     D
C1163  O1331   1.398   .     S
C1163  C1251   1.491   .     S
C1164  O1332   1.221   .     D
C1164  O1333   1.398   .     S
C1164  C1252   1.492   .     S
C1165  C1253   1.491   .     S
C1165  O1334   1.220   .     D
C1165  O1335   1.398   .     S
C1166  O1336   1.221   .     D
C1166  C1254   1.489   .     S
C1166  O1338   1.397   .     S
C1167  O1340   1.398   .     S
C1167  O1339   1.220   .     D
C1167  C1255   1.491   .     S
C1168  O1342   1.398   .     S
C1168  O1341   1.221   .     D
C1168  C1256   1.492   .     S
C1169  C1257   1.490   .     S
C1169  O1344   1.398   .     S
C1169  O1343   1.220   .     D
C1170  C1199   1.456   .     S
C1170  C1206   1.406   .     S
C1171  C1173   1.406   .     A
C1171  C1200   1.455   .     S
C1172  C1184   1.404   .     A
C1172  C1197   1.454   .     S
C1173  Cl1269  1.777   .     S
C1174  C1198   1.455   .     S
C1174  C1239   1.404   .     S
C1175  C1203   1.455   .     S
C1175  C1250   1.406   .     A
C1176  C1204   1.456   .     S
C1177  C1201   1.456   .     S
C1178  C1202   1.455   .     S
C1179  C1185   1.387   .     A
C1179  H1277   1.081   .     S
C1179  C1258   1.404   .     A
C1180  H1288   1.081   .     S
C1180  C1183   1.387   .     A
C1180  C1259   1.403   .     A
C1181  H1299   1.082   .     S
C1181  C1187   1.389   .     A
C1181  C1260   1.404   .     A
C1182  H1310   1.082   .     S
C1182  C1186   1.389   .     A
C1183  H1320   1.081   .     S
C1184  Cl1270  1.775   .     S
C1185  H1321   1.081   .     S
C1186  H1322   1.082   .     S
C1187  H1323   1.082   .     S
C1188  H1324   1.081   .     S
C1188  C1193   1.387   1_556 S
C1189  H1278   1.081   .     S
C1189  C1192   1.387   1_554 S
C1190  H1279   1.081   .     S
C1190  C1196   1.387   1_556 S
C1191  H1280   1.081   .     S
C1191  C1194   1.387   1_554 S
C1192  H1281   1.081   .     S
C1192  C1189   1.387   1_556 S
C1193  H1282   1.081   .     S
C1193  C1188   1.387   1_554 S
C1194  H1283   1.081   .     S
C1194  C1191   1.387   1_556 S
C1195  Cl1271  1.774   .     S
C1195  C446    1.404   1_565 A
C1196  H1284   1.081   .     S
C1196  C1190   1.387   1_554 S
C1197  O1430   1.275   .     A
C1198  O1397   1.276   .     S
C1199  O1408   1.276   .     S
C1200  O1345   1.276   .     A
C1201  O1346   1.276   .     S
C1201  O1350   1.276   .     S
C1202  O1351   1.276   .     A
C1202  O1347   1.276   .     S
C1203  O1352   1.276   .     A
C1203  O1348   1.276   .     A
C1204  O1349   1.276   .     A
C1204  O1354   1.276   .     A
C1205  O1355   1.279   .     A
C1205  O1383   1.275   .     A
C1206  Cl1272  1.776   .     S
C1206  C1258   1.405   .     A
C1207  O1384   1.279   .     A
C1207  O1356   1.275   .     A
C1208  O1381   1.275   .     A
C1208  O1357   1.279   .     A
C1209  O1382   1.279   .     A
C1209  O1358   1.275   .     A
C1210  O1359   1.279   .     A
C1210  O1388   1.275   .     A
C1211  O1360   1.275   .     A
C1211  O1389   1.279   .     A
C1212  O1361   1.279   .     A
C1212  O1385   1.275   .     A
C1213  O1387   1.279   .     A
C1213  O1362   1.275   .     A
C1214  O1363   1.279   .     A
C1214  O1374   1.275   .     A
C1215  O1365   1.275   .     A
C1215  O1376   1.279   .     A
C1216  O1372   1.275   .     A
C1216  O1366   1.279   .     A
C1217  C1259   1.405   .     A
C1217  Cl1273  1.777   .     S
C1217  C807    1.406   1_655 S
C1218  O1373   1.279   .     A
C1218  O1367   1.275   .     A
C1219  O1379   1.275   .     A
C1219  O1368   1.279   .     A
C1220  O1380   1.279   .     A
C1220  O1369   1.275   .     A
C1221  O1370   1.279   .     A
C1221  O1377   1.275   .     A
C1222  O1378   1.279   .     A
C1222  O1371   1.275   .     A
C1223  C1240   1.404   .     A
C1224  C1238   1.404   .     A
C1225  C1237   1.404   .     A
C1226  C1236   1.404   .     A
C1227  C1235   1.404   .     A
C1228  Cl1274  1.775   .     S
C1228  C1260   1.407   .     A
C1228  C444    1.404   1_565 S
C1229  C1234   1.404   .     A
C1230  C1233   1.404   .     A
C1231  C1232   1.404   .     A
C1239  Cl1275  1.774   .     S
C1241  C1257   1.404   .     A
C1242  C1256   1.404   .     A
C1243  C1255   1.404   .     A
C1244  C1254   1.404   .     A
C1245  C1253   1.404   .     A
C1246  C1252   1.404   .     A
C1247  C1251   1.404   .     A
C1248  C1249   1.404   .     A
C1250  Cl1276  1.777   .     S
C1259  C764    1.416   1_655 A
C1260  C401    1.417   1_565 S
H1285  O1391   1.013   .     S
H1286  O1393   1.013   .     S
H1287  O1395   1.013   .     S
H1289  O1398   1.013   .     S
H1290  O1400   1.013   .     S
H1291  O1402   1.013   .     S
H1292  O1404   1.013   .     S
H1293  O1406   1.013   .     S
H1294  O1409   1.013   .     S
H1295  O1411   1.013   .     S
H1296  O1413   1.013   .     S
H1297  O1415   1.013   .     S
H1298  O1417   1.013   .     S
H1300  O1420   1.013   .     S
H1301  O1422   1.013   .     S
H1302  O1424   1.013   .     S
H1303  O1426   1.013   .     S
H1304  O1428   1.013   .     S
H1305  O1431   1.013   .     S
H1306  O1433   1.013   .     S
H1307  O1435   1.013   .     S
H1308  O1437   1.014   .     S
H1309  O1439   1.013   .     S
H1311  O1327   1.013   .     S
H1312  O1329   1.013   .     S
H1313  O1331   1.013   .     S
H1314  O1333   1.013   .     S
H1315  O1335   1.013   .     S
H1316  O1338   1.013   .     S
H1317  O1340   1.013   .     S
H1318  O1342   1.013   .     S
H1319  O1344   1.013   .     S
O1325  Zn1444  1.945   .     S
O1325  Zn1452  1.945   .     S
O1325  Zn1441  1.945   .     S
O1326  Zn1443  1.949   .     S
O1326  C470    1.276   1_565 A
O1337  Zn1446  1.949   .     S
O1337  C835    1.276   1_655 A
O1345  Zn1445  1.949   .     S
O1346  Zn1455  1.949   .     S
O1347  Zn1454  1.949   .     S
O1348  Zn1449  1.949   .     S
O1349  Zn1441  1.949   .     S
O1350  Zn1451  1.949   .     S
O1351  Zn1450  1.949   .     S
O1352  Zn1453  1.949   .     S
O1353  Zn1453  1.945   .     S
O1353  Zn1449  1.945   .     S
O1353  Zn1447  1.945   .     S
O1354  Zn1452  1.949   .     S
O1355  Zn1444  1.931   .     S
O1356  Zn1443  1.931   .     S
O1357  Zn1446  1.932   .     S
O1358  Zn1445  1.932   .     S
O1359  Zn1448  1.931   .     S
O1360  Zn1447  1.931   .     S
O1361  Zn1442  1.932   .     S
O1362  Zn1456  1.932   .     S
O1363  Zn1443  1.932   .     S
O1364  Zn1454  1.945   .     S
O1364  Zn1450  1.945   .     S
O1364  Zn1442  1.945   .     S
O1365  Zn1444  1.932   .     S
O1366  Zn1456  1.931   .     S
O1367  Zn1442  1.931   .     S
O1368  Zn1447  1.932   .     S
O1369  Zn1448  1.932   .     S
O1370  Zn1445  1.931   .     S
O1371  Zn1446  1.931   .     S
O1372  Zn1087  1.931   1_655 S
O1373  Zn1450  1.931   .     S
O1374  Zn725   1.932   1_565 S
O1375  Zn1455  1.945   .     S
O1375  Zn1451  1.945   .     S
O1375  Zn1445  1.945   .     S
O1376  Zn1452  1.932   .     S
O1377  Zn1455  1.931   .     S
O1378  Zn1090  1.931   1_655 S
O1379  Zn1449  1.932   .     S
O1380  Zn713   1.932   1_565 S
O1381  Zn1086  1.932   1_655 S
O1382  Zn1451  1.932   .     S
O1383  Zn1441  1.931   .     S
O1384  Zn721   1.931   1_565 S
O1385  Zn1454  1.932   .     S
O1386  Zn1448  1.949   .     S
O1386  C469    1.275   1_565 S
O1387  Zn1091  1.932   1_655 S
O1388  Zn724   1.931   1_565 S
O1389  Zn1453  1.931   .     S
O1397  Zn1447  1.949   .     S
O1408  Zn1442  1.949   .     S
O1419  Zn1456  1.949   .     S
O1419  C836    1.276   1_655 S
O1430  Zn1444  1.949   .     S
Zn1443 O625    1.945   1_565 S
Zn1446 O1000   1.945   1_655 S
Zn1448 O597    1.945   1_565 S
Zn1456 O1011   1.945   1_655 S
