data_str_m2_o1_o18_pcu_sym.215
_audit_creation_date              2020-01-03
_audit_creation_method            'Materials Studio'
_symmetry_space_group_name_H-M    'P1'
_symmetry_Int_Tables_number       1
_symmetry_cell_setting            triclinic
loop_
_symmetry_equiv_pos_as_xyz
  x,y,z
_cell_length_a                    28.5638
_cell_length_b                    32.5017
_cell_length_c                    30.9551
_cell_angle_alpha                 89.8798
_cell_angle_beta                  74.4739
_cell_angle_gamma                 90.0106
loop_
_atom_site_label
_atom_site_type_symbol
_atom_site_fract_x
_atom_site_fract_y
_atom_site_fract_z
_atom_site_U_iso_or_equiv
_atom_site_adp_type
_atom_site_occupancy
C1     C     0.33331   0.08736   0.25004   0.00000  Uiso   1.00
C2     C     0.00002   0.24597   0.24997   0.00000  Uiso   1.00
C3     C     0.18954   0.13688   0.04363   0.00000  Uiso   1.00
C4     C     0.13913   0.17651   0.45255   0.00000  Uiso   1.00
C5     C     0.23777   0.12969   0.02112   0.00000  Uiso   1.00
C6     C     0.09071   0.18295   0.47486   0.00000  Uiso   1.00
C7     C     0.29074   0.02127   0.25014   0.00000  Uiso   1.00
C8     C     0.04258   0.31206   0.24989   0.00000  Uiso   1.00
C9     C     0.29077   0.31204   0.25009   0.00000  Uiso   1.00
C10    C     0.04256   0.02130   0.24994   0.00000  Uiso   1.00
C11    C     0.00002   0.29059   0.24997   0.00000  Uiso   1.00
C12    C     0.33331   0.04274   0.25005   0.00000  Uiso   1.00
C13    C     0.18287   0.14266   0.27950   0.00000  Uiso   1.00
C14    C     0.15046   0.19068   0.22051   0.00000  Uiso   1.00
C15    C     0.13326   0.14270   0.27951   0.00000  Uiso   1.00
C16    C     0.20007   0.19064   0.22049   0.00000  Uiso   1.00
C17    C     0.30610   0.16592   0.33606   0.00000  Uiso   1.00
C18    C     0.02724   0.16697   0.16390   0.00000  Uiso   1.00
C19    C     0.29096   0.16070   0.38487   0.00000  Uiso   1.00
C20    C     0.04209   0.16848   0.11472   0.00000  Uiso   1.00
C21    C     0.30463   0.13309   0.45299   0.00000  Uiso   1.00
C22    C     0.02529   0.18471   0.04412   0.00000  Uiso   1.00
C23    C     0.32197   0.14306   0.40774   0.00000  Uiso   1.00
C24    C     0.00938   0.17992   0.09044   0.00000  Uiso   1.00
C25    C     0.24290   0.16937   0.40772   0.00000  Uiso   1.00
C26    C     0.09044   0.16026   0.09218   0.00000  Uiso   1.00
C27    C     0.22354   0.15795   0.45283   0.00000  Uiso   1.00
C28    C     0.10737   0.16334   0.04525   0.00000  Uiso   1.00
C29    C     0.25553   0.14029   0.47590   0.00000  Uiso   1.00
C30    C     0.07424   0.17696   0.02119   0.00000  Uiso   1.00
C31    C     0.17337   0.16350   0.47537   0.00000  Uiso   1.00
C32    C     0.15667   0.15472   0.02197   0.00000  Uiso   1.00
Cu33   Cu    0.04689   0.16667   0.25000   0.00000  Uiso   1.00
Cu34   Cu    0.28645   0.16666   0.25000   0.00000  Uiso   1.00
H35    H     0.11457   0.15286   0.11241   0.00000  Uiso   1.00
H36    H     0.22144   0.18513   0.38913   0.00000  Uiso   1.00
H37    H     0.30515   0.18661   0.10745   0.00000  Uiso   1.00
H38    H     0.02593   0.13583   0.39032   0.00000  Uiso   1.00
H39    H     0.17887   0.12665   0.07796   0.00000  Uiso   1.00
H40    H     0.14811   0.18106   0.41683   0.00000  Uiso   1.00
H41    H     0.25745   0.03727   0.25025   0.00000  Uiso   1.00
H42    H     0.07588   0.29607   0.24979   0.00000  Uiso   1.00
H43    H     0.25749   0.29602   0.25015   0.00000  Uiso   1.00
H44    H     0.07583   0.03731   0.24989   0.00000  Uiso   1.00
H45    H     0.19466   0.12336   0.30309   0.00000  Uiso   1.00
H46    H     0.13867   0.20999   0.19693   0.00000  Uiso   1.00
H47    H     0.10769   0.12347   0.30312   0.00000  Uiso   1.00
H48    H     0.22564   0.20987   0.19689   0.00000  Uiso   1.00
N49    N     0.11736   0.16668   0.24999   0.00000  Uiso   1.00
N50    N     0.21597   0.16666   0.25001   0.00000  Uiso   1.00
O51    O     0.03958   0.10655   0.25000   0.00000  Uiso   1.00
O52    O     0.29375   0.22678   0.25000   0.00000  Uiso   1.00
O53    O     0.29372   0.10654   0.25001   0.00000  Uiso   1.00
O54    O     0.03961   0.22679   0.25000   0.00000  Uiso   1.00
O55    O     0.01852   0.16668   0.31492   0.00000  Uiso   1.00
O56    O     0.31481   0.16666   0.18509   0.00000  Uiso   1.00
O57    O     0.27267   0.16667   0.31492   0.00000  Uiso   1.00
O58    O     0.06067   0.16667   0.18508   0.00000  Uiso   1.00
F59    F     0.26694   0.11221   0.04422   0.00000  Uiso   1.00
F60    F     0.06028   0.19590   0.45061   0.00000  Uiso   1.00
F61    F     0.00243   0.11527   0.47375   0.00000  Uiso   1.00
F62    F     0.32614   0.19790   0.02216   0.00000  Uiso   1.00
C63    C     0.66664   0.08736   0.25004   0.00000  Uiso   1.00
C64    C     0.33336   0.24597   0.24997   0.00000  Uiso   1.00
C65    C     0.52288   0.13688   0.04363   0.00000  Uiso   1.00
C66    C     0.47246   0.17651   0.45255   0.00000  Uiso   1.00
C67    C     0.57110   0.12969   0.02112   0.00000  Uiso   1.00
C68    C     0.42405   0.18295   0.47486   0.00000  Uiso   1.00
C69    C     0.62408   0.02127   0.25014   0.00000  Uiso   1.00
C70    C     0.37591   0.31206   0.24989   0.00000  Uiso   1.00
C71    C     0.62410   0.31204   0.25009   0.00000  Uiso   1.00
C72    C     0.37589   0.02130   0.24994   0.00000  Uiso   1.00
C73    C     0.33335   0.29059   0.24997   0.00000  Uiso   1.00
C74    C     0.66664   0.04274   0.25005   0.00000  Uiso   1.00
C75    C     0.51620   0.14266   0.27950   0.00000  Uiso   1.00
C76    C     0.48380   0.19068   0.22051   0.00000  Uiso   1.00
C77    C     0.46660   0.14270   0.27951   0.00000  Uiso   1.00
C78    C     0.53340   0.19064   0.22049   0.00000  Uiso   1.00
C79    C     0.63943   0.16592   0.33606   0.00000  Uiso   1.00
C80    C     0.36057   0.16697   0.16390   0.00000  Uiso   1.00
C81    C     0.62429   0.16070   0.38487   0.00000  Uiso   1.00
C82    C     0.37543   0.16848   0.11472   0.00000  Uiso   1.00
C83    C     0.63797   0.13309   0.45299   0.00000  Uiso   1.00
C84    C     0.35862   0.18471   0.04412   0.00000  Uiso   1.00
C85    C     0.65530   0.14306   0.40774   0.00000  Uiso   1.00
C86    C     0.34271   0.17992   0.09044   0.00000  Uiso   1.00
C87    C     0.57623   0.16937   0.40772   0.00000  Uiso   1.00
C88    C     0.42377   0.16026   0.09218   0.00000  Uiso   1.00
C89    C     0.55687   0.15795   0.45283   0.00000  Uiso   1.00
C90    C     0.44071   0.16334   0.04525   0.00000  Uiso   1.00
C91    C     0.58886   0.14029   0.47590   0.00000  Uiso   1.00
C92    C     0.40758   0.17696   0.02119   0.00000  Uiso   1.00
C93    C     0.50670   0.16350   0.47537   0.00000  Uiso   1.00
C94    C     0.49001   0.15472   0.02197   0.00000  Uiso   1.00
Cu95   Cu    0.38022   0.16667   0.25000   0.00000  Uiso   1.00
Cu96   Cu    0.61978   0.16666   0.25000   0.00000  Uiso   1.00
H97    H     0.44791   0.15286   0.11241   0.00000  Uiso   1.00
H98    H     0.55477   0.18513   0.38913   0.00000  Uiso   1.00
H99    H     0.63849   0.18661   0.10745   0.00000  Uiso   1.00
H100   H     0.35926   0.13583   0.39032   0.00000  Uiso   1.00
H101   H     0.51220   0.12665   0.07796   0.00000  Uiso   1.00
H102   H     0.48144   0.18106   0.41683   0.00000  Uiso   1.00
H103   H     0.59078   0.03727   0.25025   0.00000  Uiso   1.00
H104   H     0.40921   0.29607   0.24979   0.00000  Uiso   1.00
H105   H     0.59082   0.29602   0.25015   0.00000  Uiso   1.00
H106   H     0.40917   0.03731   0.24989   0.00000  Uiso   1.00
H107   H     0.52799   0.12336   0.30309   0.00000  Uiso   1.00
H108   H     0.47200   0.20999   0.19693   0.00000  Uiso   1.00
H109   H     0.44102   0.12347   0.30312   0.00000  Uiso   1.00
H110   H     0.55897   0.20987   0.19689   0.00000  Uiso   1.00
N111   N     0.45069   0.16668   0.24999   0.00000  Uiso   1.00
N112   N     0.54931   0.16666   0.25001   0.00000  Uiso   1.00
O113   O     0.37291   0.10655   0.25000   0.00000  Uiso   1.00
O114   O     0.62709   0.22678   0.25000   0.00000  Uiso   1.00
O115   O     0.62706   0.10654   0.25001   0.00000  Uiso   1.00
O116   O     0.37294   0.22679   0.25000   0.00000  Uiso   1.00
O117   O     0.35186   0.16668   0.31492   0.00000  Uiso   1.00
O118   O     0.64814   0.16666   0.18509   0.00000  Uiso   1.00
O119   O     0.60600   0.16667   0.31492   0.00000  Uiso   1.00
O120   O     0.39400   0.16667   0.18508   0.00000  Uiso   1.00
F121   F     0.60027   0.11221   0.04422   0.00000  Uiso   1.00
F122   F     0.39362   0.19590   0.45061   0.00000  Uiso   1.00
F123   F     0.33577   0.11527   0.47375   0.00000  Uiso   1.00
F124   F     0.65948   0.19790   0.02216   0.00000  Uiso   1.00
C125   C     0.99997   0.08736   0.25004   0.00000  Uiso   1.00
C126   C     0.66669   0.24597   0.24997   0.00000  Uiso   1.00
C127   C     0.85621   0.13688   0.04363   0.00000  Uiso   1.00
C128   C     0.80579   0.17651   0.45255   0.00000  Uiso   1.00
C129   C     0.90443   0.12969   0.02112   0.00000  Uiso   1.00
C130   C     0.75738   0.18295   0.47486   0.00000  Uiso   1.00
C131   C     0.95741   0.02127   0.25014   0.00000  Uiso   1.00
C132   C     0.70925   0.31206   0.24989   0.00000  Uiso   1.00
C133   C     0.95743   0.31204   0.25009   0.00000  Uiso   1.00
C134   C     0.70922   0.02130   0.24994   0.00000  Uiso   1.00
C135   C     0.66668   0.29059   0.24997   0.00000  Uiso   1.00
C136   C     0.99998   0.04274   0.25005   0.00000  Uiso   1.00
C137   C     0.84953   0.14266   0.27950   0.00000  Uiso   1.00
C138   C     0.81713   0.19068   0.22051   0.00000  Uiso   1.00
C139   C     0.79993   0.14270   0.27951   0.00000  Uiso   1.00
C140   C     0.86674   0.19064   0.22049   0.00000  Uiso   1.00
C141   C     0.97276   0.16592   0.33606   0.00000  Uiso   1.00
C142   C     0.69390   0.16697   0.16390   0.00000  Uiso   1.00
C143   C     0.95762   0.16070   0.38487   0.00000  Uiso   1.00
C144   C     0.70876   0.16848   0.11472   0.00000  Uiso   1.00
C145   C     0.97130   0.13309   0.45299   0.00000  Uiso   1.00
C146   C     0.69196   0.18471   0.04412   0.00000  Uiso   1.00
C147   C     0.98864   0.14306   0.40774   0.00000  Uiso   1.00
C148   C     0.67605   0.17992   0.09044   0.00000  Uiso   1.00
C149   C     0.90957   0.16937   0.40772   0.00000  Uiso   1.00
C150   C     0.75711   0.16026   0.09218   0.00000  Uiso   1.00
C151   C     0.89020   0.15795   0.45283   0.00000  Uiso   1.00
C152   C     0.77404   0.16334   0.04525   0.00000  Uiso   1.00
C153   C     0.92219   0.14029   0.47590   0.00000  Uiso   1.00
C154   C     0.74091   0.17696   0.02119   0.00000  Uiso   1.00
C155   C     0.84004   0.16350   0.47537   0.00000  Uiso   1.00
C156   C     0.82334   0.15472   0.02197   0.00000  Uiso   1.00
Cu157  Cu    0.71355   0.16667   0.25000   0.00000  Uiso   1.00
Cu158  Cu    0.95311   0.16666   0.25000   0.00000  Uiso   1.00
H159   H     0.78124   0.15286   0.11241   0.00000  Uiso   1.00
H160   H     0.88811   0.18513   0.38913   0.00000  Uiso   1.00
H161   H     0.97182   0.18661   0.10745   0.00000  Uiso   1.00
H162   H     0.69260   0.13583   0.39032   0.00000  Uiso   1.00
H163   H     0.84553   0.12665   0.07796   0.00000  Uiso   1.00
H164   H     0.81477   0.18106   0.41683   0.00000  Uiso   1.00
H165   H     0.92411   0.03727   0.25025   0.00000  Uiso   1.00
H166   H     0.74254   0.29607   0.24979   0.00000  Uiso   1.00
H167   H     0.92415   0.29602   0.25015   0.00000  Uiso   1.00
H168   H     0.74250   0.03731   0.24989   0.00000  Uiso   1.00
H169   H     0.86133   0.12336   0.30309   0.00000  Uiso   1.00
H170   H     0.80533   0.20999   0.19693   0.00000  Uiso   1.00
H171   H     0.77436   0.12347   0.30312   0.00000  Uiso   1.00
H172   H     0.89231   0.20987   0.19689   0.00000  Uiso   1.00
N173   N     0.78403   0.16668   0.24999   0.00000  Uiso   1.00
N174   N     0.88264   0.16666   0.25001   0.00000  Uiso   1.00
O175   O     0.70625   0.10655   0.25000   0.00000  Uiso   1.00
O176   O     0.96042   0.22678   0.25000   0.00000  Uiso   1.00
O177   O     0.96039   0.10654   0.25001   0.00000  Uiso   1.00
O178   O     0.70628   0.22679   0.25000   0.00000  Uiso   1.00
O179   O     0.68519   0.16668   0.31492   0.00000  Uiso   1.00
O180   O     0.98148   0.16666   0.18509   0.00000  Uiso   1.00
O181   O     0.93933   0.16667   0.31492   0.00000  Uiso   1.00
O182   O     0.72733   0.16667   0.18508   0.00000  Uiso   1.00
F183   F     0.93361   0.11221   0.04422   0.00000  Uiso   1.00
F184   F     0.72695   0.19590   0.45061   0.00000  Uiso   1.00
F185   F     0.66910   0.11527   0.47375   0.00000  Uiso   1.00
F186   F     0.99281   0.19790   0.02216   0.00000  Uiso   1.00
C187   C     0.33331   0.42069   0.25004   0.00000  Uiso   1.00
C188   C     0.00002   0.57931   0.24997   0.00000  Uiso   1.00
C189   C     0.18954   0.47022   0.04363   0.00000  Uiso   1.00
C190   C     0.13913   0.50984   0.45255   0.00000  Uiso   1.00
C191   C     0.23777   0.46302   0.02112   0.00000  Uiso   1.00
C192   C     0.09071   0.51628   0.47486   0.00000  Uiso   1.00
C193   C     0.29074   0.35461   0.25014   0.00000  Uiso   1.00
C194   C     0.04258   0.64540   0.24989   0.00000  Uiso   1.00
C195   C     0.29077   0.64537   0.25009   0.00000  Uiso   1.00
C196   C     0.04256   0.35463   0.24994   0.00000  Uiso   1.00
C197   C     0.00002   0.62393   0.24997   0.00000  Uiso   1.00
C198   C     0.33331   0.37607   0.25005   0.00000  Uiso   1.00
C199   C     0.18287   0.47600   0.27950   0.00000  Uiso   1.00
C200   C     0.15046   0.52401   0.22051   0.00000  Uiso   1.00
C201   C     0.13326   0.47603   0.27951   0.00000  Uiso   1.00
C202   C     0.20007   0.52397   0.22049   0.00000  Uiso   1.00
C203   C     0.30610   0.49925   0.33606   0.00000  Uiso   1.00
C204   C     0.02724   0.50030   0.16390   0.00000  Uiso   1.00
C205   C     0.29096   0.49403   0.38487   0.00000  Uiso   1.00
C206   C     0.04209   0.50181   0.11472   0.00000  Uiso   1.00
C207   C     0.30463   0.46642   0.45299   0.00000  Uiso   1.00
C208   C     0.02529   0.51804   0.04412   0.00000  Uiso   1.00
C209   C     0.32197   0.47639   0.40774   0.00000  Uiso   1.00
C210   C     0.00938   0.51325   0.09044   0.00000  Uiso   1.00
C211   C     0.24290   0.50270   0.40772   0.00000  Uiso   1.00
C212   C     0.09044   0.49359   0.09218   0.00000  Uiso   1.00
C213   C     0.22354   0.49128   0.45283   0.00000  Uiso   1.00
C214   C     0.10737   0.49667   0.04525   0.00000  Uiso   1.00
C215   C     0.25553   0.47362   0.47590   0.00000  Uiso   1.00
C216   C     0.07424   0.51029   0.02119   0.00000  Uiso   1.00
C217   C     0.17337   0.49683   0.47537   0.00000  Uiso   1.00
C218   C     0.15667   0.48806   0.02197   0.00000  Uiso   1.00
Cu219  Cu    0.04689   0.50001   0.25000   0.00000  Uiso   1.00
Cu220  Cu    0.28645   0.49999   0.25000   0.00000  Uiso   1.00
H221   H     0.11457   0.48619   0.11241   0.00000  Uiso   1.00
H222   H     0.22144   0.51846   0.38913   0.00000  Uiso   1.00
H223   H     0.30515   0.51995   0.10745   0.00000  Uiso   1.00
H224   H     0.02593   0.46917   0.39032   0.00000  Uiso   1.00
H225   H     0.17887   0.45998   0.07796   0.00000  Uiso   1.00
H226   H     0.14811   0.51440   0.41683   0.00000  Uiso   1.00
H227   H     0.25745   0.37060   0.25025   0.00000  Uiso   1.00
H228   H     0.07588   0.62940   0.24979   0.00000  Uiso   1.00
H229   H     0.25749   0.62935   0.25015   0.00000  Uiso   1.00
H230   H     0.07583   0.37065   0.24989   0.00000  Uiso   1.00
H231   H     0.19466   0.45669   0.30309   0.00000  Uiso   1.00
H232   H     0.13867   0.54332   0.19693   0.00000  Uiso   1.00
H233   H     0.10769   0.45681   0.30312   0.00000  Uiso   1.00
H234   H     0.22564   0.54320   0.19689   0.00000  Uiso   1.00
N235   N     0.11736   0.50001   0.24999   0.00000  Uiso   1.00
N236   N     0.21597   0.49999   0.25001   0.00000  Uiso   1.00
O237   O     0.03958   0.43989   0.25000   0.00000  Uiso   1.00
O238   O     0.29375   0.56011   0.25000   0.00000  Uiso   1.00
O239   O     0.29372   0.43988   0.25001   0.00000  Uiso   1.00
O240   O     0.03961   0.56012   0.25000   0.00000  Uiso   1.00
O241   O     0.01852   0.50001   0.31492   0.00000  Uiso   1.00
O242   O     0.31481   0.49999   0.18509   0.00000  Uiso   1.00
O243   O     0.27267   0.50000   0.31492   0.00000  Uiso   1.00
O244   O     0.06067   0.50000   0.18508   0.00000  Uiso   1.00
F245   F     0.26694   0.44554   0.04422   0.00000  Uiso   1.00
F246   F     0.06028   0.52924   0.45061   0.00000  Uiso   1.00
F247   F     0.00243   0.44860   0.47375   0.00000  Uiso   1.00
F248   F     0.32614   0.53124   0.02216   0.00000  Uiso   1.00
C249   C     0.66664   0.42069   0.25004   0.00000  Uiso   1.00
C250   C     0.33336   0.57931   0.24997   0.00000  Uiso   1.00
C251   C     0.52288   0.47022   0.04363   0.00000  Uiso   1.00
C252   C     0.47246   0.50984   0.45255   0.00000  Uiso   1.00
C253   C     0.57110   0.46302   0.02112   0.00000  Uiso   1.00
C254   C     0.42405   0.51628   0.47486   0.00000  Uiso   1.00
C255   C     0.62408   0.35461   0.25014   0.00000  Uiso   1.00
C256   C     0.37591   0.64540   0.24989   0.00000  Uiso   1.00
C257   C     0.62410   0.64537   0.25009   0.00000  Uiso   1.00
C258   C     0.37589   0.35463   0.24994   0.00000  Uiso   1.00
C259   C     0.33335   0.62393   0.24997   0.00000  Uiso   1.00
C260   C     0.66664   0.37607   0.25005   0.00000  Uiso   1.00
C261   C     0.51620   0.47600   0.27950   0.00000  Uiso   1.00
C262   C     0.48380   0.52401   0.22051   0.00000  Uiso   1.00
C263   C     0.46660   0.47603   0.27951   0.00000  Uiso   1.00
C264   C     0.53340   0.52397   0.22049   0.00000  Uiso   1.00
C265   C     0.63943   0.49925   0.33606   0.00000  Uiso   1.00
C266   C     0.36057   0.50030   0.16390   0.00000  Uiso   1.00
C267   C     0.62429   0.49403   0.38487   0.00000  Uiso   1.00
C268   C     0.37543   0.50181   0.11472   0.00000  Uiso   1.00
C269   C     0.63797   0.46642   0.45299   0.00000  Uiso   1.00
C270   C     0.35862   0.51804   0.04412   0.00000  Uiso   1.00
C271   C     0.65530   0.47639   0.40774   0.00000  Uiso   1.00
C272   C     0.34271   0.51325   0.09044   0.00000  Uiso   1.00
C273   C     0.57623   0.50270   0.40772   0.00000  Uiso   1.00
C274   C     0.42377   0.49359   0.09218   0.00000  Uiso   1.00
C275   C     0.55687   0.49128   0.45283   0.00000  Uiso   1.00
C276   C     0.44071   0.49667   0.04525   0.00000  Uiso   1.00
C277   C     0.58886   0.47362   0.47590   0.00000  Uiso   1.00
C278   C     0.40758   0.51029   0.02119   0.00000  Uiso   1.00
C279   C     0.50670   0.49683   0.47537   0.00000  Uiso   1.00
C280   C     0.49001   0.48806   0.02197   0.00000  Uiso   1.00
Cu281  Cu    0.38022   0.50001   0.25000   0.00000  Uiso   1.00
Cu282  Cu    0.61978   0.49999   0.25000   0.00000  Uiso   1.00
H283   H     0.44791   0.48619   0.11241   0.00000  Uiso   1.00
H284   H     0.55477   0.51846   0.38913   0.00000  Uiso   1.00
H285   H     0.63849   0.51995   0.10745   0.00000  Uiso   1.00
H286   H     0.35926   0.46917   0.39032   0.00000  Uiso   1.00
H287   H     0.51220   0.45998   0.07796   0.00000  Uiso   1.00
H288   H     0.48144   0.51440   0.41683   0.00000  Uiso   1.00
H289   H     0.59078   0.37060   0.25025   0.00000  Uiso   1.00
H290   H     0.40921   0.62940   0.24979   0.00000  Uiso   1.00
H291   H     0.59082   0.62935   0.25015   0.00000  Uiso   1.00
H292   H     0.40917   0.37065   0.24989   0.00000  Uiso   1.00
H293   H     0.52799   0.45669   0.30309   0.00000  Uiso   1.00
H294   H     0.47200   0.54332   0.19693   0.00000  Uiso   1.00
H295   H     0.44102   0.45681   0.30312   0.00000  Uiso   1.00
H296   H     0.55897   0.54320   0.19689   0.00000  Uiso   1.00
N297   N     0.45069   0.50001   0.24999   0.00000  Uiso   1.00
N298   N     0.54931   0.49999   0.25001   0.00000  Uiso   1.00
O299   O     0.37291   0.43989   0.25000   0.00000  Uiso   1.00
O300   O     0.62709   0.56011   0.25000   0.00000  Uiso   1.00
O301   O     0.62706   0.43988   0.25001   0.00000  Uiso   1.00
O302   O     0.37294   0.56012   0.25000   0.00000  Uiso   1.00
O303   O     0.35186   0.50001   0.31492   0.00000  Uiso   1.00
O304   O     0.64814   0.49999   0.18509   0.00000  Uiso   1.00
O305   O     0.60600   0.50000   0.31492   0.00000  Uiso   1.00
O306   O     0.39400   0.50000   0.18508   0.00000  Uiso   1.00
F307   F     0.60027   0.44554   0.04422   0.00000  Uiso   1.00
F308   F     0.39362   0.52924   0.45061   0.00000  Uiso   1.00
F309   F     0.33577   0.44860   0.47375   0.00000  Uiso   1.00
F310   F     0.65948   0.53124   0.02216   0.00000  Uiso   1.00
C311   C     0.99997   0.42069   0.25004   0.00000  Uiso   1.00
C312   C     0.66669   0.57931   0.24997   0.00000  Uiso   1.00
C313   C     0.85621   0.47022   0.04363   0.00000  Uiso   1.00
C314   C     0.80579   0.50984   0.45255   0.00000  Uiso   1.00
C315   C     0.90443   0.46302   0.02112   0.00000  Uiso   1.00
C316   C     0.75738   0.51628   0.47486   0.00000  Uiso   1.00
C317   C     0.95741   0.35461   0.25014   0.00000  Uiso   1.00
C318   C     0.70925   0.64540   0.24989   0.00000  Uiso   1.00
C319   C     0.95743   0.64537   0.25009   0.00000  Uiso   1.00
C320   C     0.70922   0.35463   0.24994   0.00000  Uiso   1.00
C321   C     0.66668   0.62393   0.24997   0.00000  Uiso   1.00
C322   C     0.99998   0.37607   0.25005   0.00000  Uiso   1.00
C323   C     0.84953   0.47600   0.27950   0.00000  Uiso   1.00
C324   C     0.81713   0.52401   0.22051   0.00000  Uiso   1.00
C325   C     0.79993   0.47603   0.27951   0.00000  Uiso   1.00
C326   C     0.86674   0.52397   0.22049   0.00000  Uiso   1.00
C327   C     0.97276   0.49925   0.33606   0.00000  Uiso   1.00
C328   C     0.69390   0.50030   0.16390   0.00000  Uiso   1.00
C329   C     0.95762   0.49403   0.38487   0.00000  Uiso   1.00
C330   C     0.70876   0.50181   0.11472   0.00000  Uiso   1.00
C331   C     0.97130   0.46642   0.45299   0.00000  Uiso   1.00
C332   C     0.69196   0.51804   0.04412   0.00000  Uiso   1.00
C333   C     0.98864   0.47639   0.40774   0.00000  Uiso   1.00
C334   C     0.67605   0.51325   0.09044   0.00000  Uiso   1.00
C335   C     0.90957   0.50270   0.40772   0.00000  Uiso   1.00
C336   C     0.75711   0.49359   0.09218   0.00000  Uiso   1.00
C337   C     0.89020   0.49128   0.45283   0.00000  Uiso   1.00
C338   C     0.77404   0.49667   0.04525   0.00000  Uiso   1.00
C339   C     0.92219   0.47362   0.47590   0.00000  Uiso   1.00
C340   C     0.74091   0.51029   0.02119   0.00000  Uiso   1.00
C341   C     0.84004   0.49683   0.47537   0.00000  Uiso   1.00
C342   C     0.82334   0.48806   0.02197   0.00000  Uiso   1.00
Cu343  Cu    0.71355   0.50001   0.25000   0.00000  Uiso   1.00
Cu344  Cu    0.95311   0.49999   0.25000   0.00000  Uiso   1.00
H345   H     0.78124   0.48619   0.11241   0.00000  Uiso   1.00
H346   H     0.88811   0.51846   0.38913   0.00000  Uiso   1.00
H347   H     0.97182   0.51995   0.10745   0.00000  Uiso   1.00
H348   H     0.69260   0.46917   0.39032   0.00000  Uiso   1.00
H349   H     0.84553   0.45998   0.07796   0.00000  Uiso   1.00
H350   H     0.81477   0.51440   0.41683   0.00000  Uiso   1.00
H351   H     0.92411   0.37060   0.25025   0.00000  Uiso   1.00
H352   H     0.74254   0.62940   0.24979   0.00000  Uiso   1.00
H353   H     0.92415   0.62935   0.25015   0.00000  Uiso   1.00
H354   H     0.74250   0.37065   0.24989   0.00000  Uiso   1.00
H355   H     0.86133   0.45669   0.30309   0.00000  Uiso   1.00
H356   H     0.80533   0.54332   0.19693   0.00000  Uiso   1.00
H357   H     0.77436   0.45681   0.30312   0.00000  Uiso   1.00
H358   H     0.89231   0.54320   0.19689   0.00000  Uiso   1.00
N359   N     0.78403   0.50001   0.24999   0.00000  Uiso   1.00
N360   N     0.88264   0.49999   0.25001   0.00000  Uiso   1.00
O361   O     0.70625   0.43989   0.25000   0.00000  Uiso   1.00
O362   O     0.96042   0.56011   0.25000   0.00000  Uiso   1.00
O363   O     0.96039   0.43988   0.25001   0.00000  Uiso   1.00
O364   O     0.70628   0.56012   0.25000   0.00000  Uiso   1.00
O365   O     0.68519   0.50001   0.31492   0.00000  Uiso   1.00
O366   O     0.98148   0.49999   0.18509   0.00000  Uiso   1.00
O367   O     0.93933   0.50000   0.31492   0.00000  Uiso   1.00
O368   O     0.72733   0.50000   0.18508   0.00000  Uiso   1.00
F369   F     0.93361   0.44554   0.04422   0.00000  Uiso   1.00
F370   F     0.72695   0.52924   0.45061   0.00000  Uiso   1.00
F371   F     0.66910   0.44860   0.47375   0.00000  Uiso   1.00
F372   F     0.99281   0.53124   0.02216   0.00000  Uiso   1.00
C373   C     0.33331   0.75403   0.25004   0.00000  Uiso   1.00
C374   C     0.00002   0.91264   0.24997   0.00000  Uiso   1.00
C375   C     0.18954   0.80355   0.04363   0.00000  Uiso   1.00
C376   C     0.13913   0.84317   0.45255   0.00000  Uiso   1.00
C377   C     0.23777   0.79636   0.02112   0.00000  Uiso   1.00
C378   C     0.09071   0.84962   0.47486   0.00000  Uiso   1.00
C379   C     0.29074   0.68794   0.25014   0.00000  Uiso   1.00
C380   C     0.04258   0.97873   0.24989   0.00000  Uiso   1.00
C381   C     0.29077   0.97871   0.25009   0.00000  Uiso   1.00
C382   C     0.04256   0.68796   0.24994   0.00000  Uiso   1.00
C383   C     0.00002   0.95726   0.24997   0.00000  Uiso   1.00
C384   C     0.33331   0.70941   0.25005   0.00000  Uiso   1.00
C385   C     0.18287   0.80933   0.27950   0.00000  Uiso   1.00
C386   C     0.15046   0.85734   0.22051   0.00000  Uiso   1.00
C387   C     0.13326   0.80937   0.27951   0.00000  Uiso   1.00
C388   C     0.20007   0.85730   0.22049   0.00000  Uiso   1.00
C389   C     0.30610   0.83259   0.33606   0.00000  Uiso   1.00
C390   C     0.02724   0.83363   0.16390   0.00000  Uiso   1.00
C391   C     0.29096   0.82737   0.38487   0.00000  Uiso   1.00
C392   C     0.04209   0.83515   0.11472   0.00000  Uiso   1.00
C393   C     0.30463   0.79976   0.45299   0.00000  Uiso   1.00
C394   C     0.02529   0.85137   0.04412   0.00000  Uiso   1.00
C395   C     0.32197   0.80972   0.40774   0.00000  Uiso   1.00
C396   C     0.00938   0.84659   0.09044   0.00000  Uiso   1.00
C397   C     0.24290   0.83604   0.40772   0.00000  Uiso   1.00
C398   C     0.09044   0.82693   0.09218   0.00000  Uiso   1.00
C399   C     0.22354   0.82462   0.45283   0.00000  Uiso   1.00
C400   C     0.10737   0.83001   0.04525   0.00000  Uiso   1.00
C401   C     0.25553   0.80696   0.47590   0.00000  Uiso   1.00
C402   C     0.07424   0.84362   0.02119   0.00000  Uiso   1.00
C403   C     0.17337   0.83017   0.47537   0.00000  Uiso   1.00
C404   C     0.15667   0.82139   0.02197   0.00000  Uiso   1.00
Cu405  Cu    0.04689   0.83334   0.25000   0.00000  Uiso   1.00
Cu406  Cu    0.28645   0.83333   0.25000   0.00000  Uiso   1.00
H407   H     0.11457   0.81953   0.11241   0.00000  Uiso   1.00
H408   H     0.22144   0.85179   0.38913   0.00000  Uiso   1.00
H409   H     0.30515   0.85328   0.10745   0.00000  Uiso   1.00
H410   H     0.02593   0.80250   0.39032   0.00000  Uiso   1.00
H411   H     0.17887   0.79332   0.07796   0.00000  Uiso   1.00
H412   H     0.14811   0.84773   0.41683   0.00000  Uiso   1.00
H413   H     0.25745   0.70394   0.25025   0.00000  Uiso   1.00
H414   H     0.07588   0.96273   0.24979   0.00000  Uiso   1.00
H415   H     0.25749   0.96269   0.25015   0.00000  Uiso   1.00
H416   H     0.07583   0.70398   0.24989   0.00000  Uiso   1.00
H417   H     0.19466   0.79003   0.30309   0.00000  Uiso   1.00
H418   H     0.13867   0.87666   0.19693   0.00000  Uiso   1.00
H419   H     0.10769   0.79014   0.30312   0.00000  Uiso   1.00
H420   H     0.22564   0.87654   0.19689   0.00000  Uiso   1.00
N421   N     0.11736   0.83334   0.24999   0.00000  Uiso   1.00
N422   N     0.21597   0.83332   0.25001   0.00000  Uiso   1.00
O423   O     0.03958   0.77322   0.25000   0.00000  Uiso   1.00
O424   O     0.29375   0.89345   0.25000   0.00000  Uiso   1.00
O425   O     0.29372   0.77321   0.25001   0.00000  Uiso   1.00
O426   O     0.03961   0.89346   0.25000   0.00000  Uiso   1.00
O427   O     0.01852   0.83334   0.31492   0.00000  Uiso   1.00
O428   O     0.31481   0.83332   0.18509   0.00000  Uiso   1.00
O429   O     0.27267   0.83333   0.31492   0.00000  Uiso   1.00
O430   O     0.06067   0.83333   0.18508   0.00000  Uiso   1.00
F431   F     0.26694   0.77887   0.04422   0.00000  Uiso   1.00
F432   F     0.06028   0.86257   0.45061   0.00000  Uiso   1.00
F433   F     0.00243   0.78193   0.47375   0.00000  Uiso   1.00
F434   F     0.32614   0.86457   0.02216   0.00000  Uiso   1.00
C435   C     0.66664   0.75403   0.25004   0.00000  Uiso   1.00
C436   C     0.33336   0.91264   0.24997   0.00000  Uiso   1.00
C437   C     0.52288   0.80355   0.04363   0.00000  Uiso   1.00
C438   C     0.47246   0.84317   0.45255   0.00000  Uiso   1.00
C439   C     0.57110   0.79636   0.02112   0.00000  Uiso   1.00
C440   C     0.42405   0.84962   0.47486   0.00000  Uiso   1.00
C441   C     0.62408   0.68794   0.25014   0.00000  Uiso   1.00
C442   C     0.37591   0.97873   0.24989   0.00000  Uiso   1.00
C443   C     0.62410   0.97871   0.25009   0.00000  Uiso   1.00
C444   C     0.37589   0.68796   0.24994   0.00000  Uiso   1.00
C445   C     0.33335   0.95726   0.24997   0.00000  Uiso   1.00
C446   C     0.66664   0.70941   0.25005   0.00000  Uiso   1.00
C447   C     0.51620   0.80933   0.27950   0.00000  Uiso   1.00
C448   C     0.48380   0.85734   0.22051   0.00000  Uiso   1.00
C449   C     0.46660   0.80937   0.27951   0.00000  Uiso   1.00
C450   C     0.53340   0.85730   0.22049   0.00000  Uiso   1.00
C451   C     0.63943   0.83259   0.33606   0.00000  Uiso   1.00
C452   C     0.36057   0.83363   0.16390   0.00000  Uiso   1.00
C453   C     0.62429   0.82737   0.38487   0.00000  Uiso   1.00
C454   C     0.37543   0.83515   0.11472   0.00000  Uiso   1.00
C455   C     0.63797   0.79976   0.45299   0.00000  Uiso   1.00
C456   C     0.35862   0.85137   0.04412   0.00000  Uiso   1.00
C457   C     0.65530   0.80972   0.40774   0.00000  Uiso   1.00
C458   C     0.34271   0.84659   0.09044   0.00000  Uiso   1.00
C459   C     0.57623   0.83604   0.40772   0.00000  Uiso   1.00
C460   C     0.42377   0.82693   0.09218   0.00000  Uiso   1.00
C461   C     0.55687   0.82462   0.45283   0.00000  Uiso   1.00
C462   C     0.44071   0.83001   0.04525   0.00000  Uiso   1.00
C463   C     0.58886   0.80696   0.47590   0.00000  Uiso   1.00
C464   C     0.40758   0.84362   0.02119   0.00000  Uiso   1.00
C465   C     0.50670   0.83017   0.47537   0.00000  Uiso   1.00
C466   C     0.49001   0.82139   0.02197   0.00000  Uiso   1.00
Cu467  Cu    0.38022   0.83334   0.25000   0.00000  Uiso   1.00
Cu468  Cu    0.61978   0.83333   0.25000   0.00000  Uiso   1.00
H469   H     0.44791   0.81953   0.11241   0.00000  Uiso   1.00
H470   H     0.55477   0.85179   0.38913   0.00000  Uiso   1.00
H471   H     0.63849   0.85328   0.10745   0.00000  Uiso   1.00
H472   H     0.35926   0.80250   0.39032   0.00000  Uiso   1.00
H473   H     0.51220   0.79332   0.07796   0.00000  Uiso   1.00
H474   H     0.48144   0.84773   0.41683   0.00000  Uiso   1.00
H475   H     0.59078   0.70394   0.25025   0.00000  Uiso   1.00
H476   H     0.40921   0.96273   0.24979   0.00000  Uiso   1.00
H477   H     0.59082   0.96269   0.25015   0.00000  Uiso   1.00
H478   H     0.40917   0.70398   0.24989   0.00000  Uiso   1.00
H479   H     0.52799   0.79003   0.30309   0.00000  Uiso   1.00
H480   H     0.47200   0.87666   0.19693   0.00000  Uiso   1.00
H481   H     0.44102   0.79014   0.30312   0.00000  Uiso   1.00
H482   H     0.55897   0.87654   0.19689   0.00000  Uiso   1.00
N483   N     0.45069   0.83334   0.24999   0.00000  Uiso   1.00
N484   N     0.54931   0.83332   0.25001   0.00000  Uiso   1.00
O485   O     0.37291   0.77322   0.25000   0.00000  Uiso   1.00
O486   O     0.62709   0.89345   0.25000   0.00000  Uiso   1.00
O487   O     0.62706   0.77321   0.25001   0.00000  Uiso   1.00
O488   O     0.37294   0.89346   0.25000   0.00000  Uiso   1.00
O489   O     0.35186   0.83334   0.31492   0.00000  Uiso   1.00
O490   O     0.64814   0.83332   0.18509   0.00000  Uiso   1.00
O491   O     0.60600   0.83333   0.31492   0.00000  Uiso   1.00
O492   O     0.39400   0.83333   0.18508   0.00000  Uiso   1.00
F493   F     0.60027   0.77887   0.04422   0.00000  Uiso   1.00
F494   F     0.39362   0.86257   0.45061   0.00000  Uiso   1.00
F495   F     0.33577   0.78193   0.47375   0.00000  Uiso   1.00
F496   F     0.65948   0.86457   0.02216   0.00000  Uiso   1.00
C497   C     0.99997   0.75403   0.25004   0.00000  Uiso   1.00
C498   C     0.66669   0.91264   0.24997   0.00000  Uiso   1.00
C499   C     0.85621   0.80355   0.04363   0.00000  Uiso   1.00
C500   C     0.80579   0.84317   0.45255   0.00000  Uiso   1.00
C501   C     0.90443   0.79636   0.02112   0.00000  Uiso   1.00
C502   C     0.75738   0.84962   0.47486   0.00000  Uiso   1.00
C503   C     0.95741   0.68794   0.25014   0.00000  Uiso   1.00
C504   C     0.70925   0.97873   0.24989   0.00000  Uiso   1.00
C505   C     0.95743   0.97871   0.25009   0.00000  Uiso   1.00
C506   C     0.70922   0.68796   0.24994   0.00000  Uiso   1.00
C507   C     0.66668   0.95726   0.24997   0.00000  Uiso   1.00
C508   C     0.99998   0.70941   0.25005   0.00000  Uiso   1.00
C509   C     0.84953   0.80933   0.27950   0.00000  Uiso   1.00
C510   C     0.81713   0.85734   0.22051   0.00000  Uiso   1.00
C511   C     0.79993   0.80937   0.27951   0.00000  Uiso   1.00
C512   C     0.86674   0.85730   0.22049   0.00000  Uiso   1.00
C513   C     0.97276   0.83259   0.33606   0.00000  Uiso   1.00
C514   C     0.69390   0.83363   0.16390   0.00000  Uiso   1.00
C515   C     0.95762   0.82737   0.38487   0.00000  Uiso   1.00
C516   C     0.70876   0.83515   0.11472   0.00000  Uiso   1.00
C517   C     0.97130   0.79976   0.45299   0.00000  Uiso   1.00
C518   C     0.69196   0.85137   0.04412   0.00000  Uiso   1.00
C519   C     0.98864   0.80972   0.40774   0.00000  Uiso   1.00
C520   C     0.67605   0.84659   0.09044   0.00000  Uiso   1.00
C521   C     0.90957   0.83604   0.40772   0.00000  Uiso   1.00
C522   C     0.75711   0.82693   0.09218   0.00000  Uiso   1.00
C523   C     0.89020   0.82462   0.45283   0.00000  Uiso   1.00
C524   C     0.77404   0.83001   0.04525   0.00000  Uiso   1.00
C525   C     0.92219   0.80696   0.47590   0.00000  Uiso   1.00
C526   C     0.74091   0.84362   0.02119   0.00000  Uiso   1.00
C527   C     0.84004   0.83017   0.47537   0.00000  Uiso   1.00
C528   C     0.82334   0.82139   0.02197   0.00000  Uiso   1.00
Cu529  Cu    0.71355   0.83334   0.25000   0.00000  Uiso   1.00
Cu530  Cu    0.95311   0.83333   0.25000   0.00000  Uiso   1.00
H531   H     0.78124   0.81953   0.11241   0.00000  Uiso   1.00
H532   H     0.88811   0.85179   0.38913   0.00000  Uiso   1.00
H533   H     0.97182   0.85328   0.10745   0.00000  Uiso   1.00
H534   H     0.69260   0.80250   0.39032   0.00000  Uiso   1.00
H535   H     0.84553   0.79332   0.07796   0.00000  Uiso   1.00
H536   H     0.81477   0.84773   0.41683   0.00000  Uiso   1.00
H537   H     0.92411   0.70394   0.25025   0.00000  Uiso   1.00
H538   H     0.74254   0.96273   0.24979   0.00000  Uiso   1.00
H539   H     0.92415   0.96269   0.25015   0.00000  Uiso   1.00
H540   H     0.74250   0.70398   0.24989   0.00000  Uiso   1.00
H541   H     0.86133   0.79003   0.30309   0.00000  Uiso   1.00
H542   H     0.80533   0.87666   0.19693   0.00000  Uiso   1.00
H543   H     0.77436   0.79014   0.30312   0.00000  Uiso   1.00
H544   H     0.89231   0.87654   0.19689   0.00000  Uiso   1.00
N545   N     0.78403   0.83334   0.24999   0.00000  Uiso   1.00
N546   N     0.88264   0.83332   0.25001   0.00000  Uiso   1.00
O547   O     0.70625   0.77322   0.25000   0.00000  Uiso   1.00
O548   O     0.96042   0.89345   0.25000   0.00000  Uiso   1.00
O549   O     0.96039   0.77321   0.25001   0.00000  Uiso   1.00
O550   O     0.70628   0.89346   0.25000   0.00000  Uiso   1.00
O551   O     0.68519   0.83334   0.31492   0.00000  Uiso   1.00
O552   O     0.98148   0.83332   0.18509   0.00000  Uiso   1.00
O553   O     0.93933   0.83333   0.31492   0.00000  Uiso   1.00
O554   O     0.72733   0.83333   0.18508   0.00000  Uiso   1.00
F555   F     0.93361   0.77887   0.04422   0.00000  Uiso   1.00
F556   F     0.72695   0.86257   0.45061   0.00000  Uiso   1.00
F557   F     0.66910   0.78193   0.47375   0.00000  Uiso   1.00
F558   F     0.99281   0.86457   0.02216   0.00000  Uiso   1.00
C559   C     0.33331   0.08736   0.75004   0.00000  Uiso   1.00
C560   C     0.00002   0.24597   0.74997   0.00000  Uiso   1.00
C561   C     0.18954   0.13688   0.54363   0.00000  Uiso   1.00
C562   C     0.13913   0.17651   0.95255   0.00000  Uiso   1.00
C563   C     0.23777   0.12969   0.52112   0.00000  Uiso   1.00
C564   C     0.09071   0.18295   0.97486   0.00000  Uiso   1.00
C565   C     0.29074   0.02127   0.75014   0.00000  Uiso   1.00
C566   C     0.04258   0.31206   0.74989   0.00000  Uiso   1.00
C567   C     0.29077   0.31204   0.75009   0.00000  Uiso   1.00
C568   C     0.04256   0.02130   0.74994   0.00000  Uiso   1.00
C569   C     0.00002   0.29059   0.74997   0.00000  Uiso   1.00
C570   C     0.33331   0.04274   0.75005   0.00000  Uiso   1.00
C571   C     0.18287   0.14266   0.77950   0.00000  Uiso   1.00
C572   C     0.15046   0.19068   0.72051   0.00000  Uiso   1.00
C573   C     0.13326   0.14270   0.77951   0.00000  Uiso   1.00
C574   C     0.20007   0.19064   0.72049   0.00000  Uiso   1.00
C575   C     0.30610   0.16592   0.83606   0.00000  Uiso   1.00
C576   C     0.02724   0.16697   0.66390   0.00000  Uiso   1.00
C577   C     0.29096   0.16070   0.88487   0.00000  Uiso   1.00
C578   C     0.04209   0.16848   0.61472   0.00000  Uiso   1.00
C579   C     0.30463   0.13309   0.95299   0.00000  Uiso   1.00
C580   C     0.02529   0.18471   0.54412   0.00000  Uiso   1.00
C581   C     0.32197   0.14306   0.90774   0.00000  Uiso   1.00
C582   C     0.00938   0.17992   0.59044   0.00000  Uiso   1.00
C583   C     0.24290   0.16937   0.90772   0.00000  Uiso   1.00
C584   C     0.09044   0.16026   0.59218   0.00000  Uiso   1.00
C585   C     0.22354   0.15795   0.95283   0.00000  Uiso   1.00
C586   C     0.10737   0.16334   0.54525   0.00000  Uiso   1.00
C587   C     0.25553   0.14029   0.97590   0.00000  Uiso   1.00
C588   C     0.07424   0.17696   0.52119   0.00000  Uiso   1.00
C589   C     0.17337   0.16350   0.97537   0.00000  Uiso   1.00
C590   C     0.15667   0.15472   0.52197   0.00000  Uiso   1.00
Cu591  Cu    0.04689   0.16667   0.75000   0.00000  Uiso   1.00
Cu592  Cu    0.28645   0.16666   0.75000   0.00000  Uiso   1.00
H593   H     0.11457   0.15286   0.61241   0.00000  Uiso   1.00
H594   H     0.22144   0.18513   0.88913   0.00000  Uiso   1.00
H595   H     0.30515   0.18661   0.60745   0.00000  Uiso   1.00
H596   H     0.02593   0.13583   0.89032   0.00000  Uiso   1.00
H597   H     0.17887   0.12665   0.57796   0.00000  Uiso   1.00
H598   H     0.14811   0.18106   0.91683   0.00000  Uiso   1.00
H599   H     0.25745   0.03727   0.75025   0.00000  Uiso   1.00
H600   H     0.07588   0.29607   0.74979   0.00000  Uiso   1.00
H601   H     0.25749   0.29602   0.75015   0.00000  Uiso   1.00
H602   H     0.07583   0.03731   0.74989   0.00000  Uiso   1.00
H603   H     0.19466   0.12336   0.80309   0.00000  Uiso   1.00
H604   H     0.13867   0.20999   0.69693   0.00000  Uiso   1.00
H605   H     0.10769   0.12347   0.80312   0.00000  Uiso   1.00
H606   H     0.22564   0.20987   0.69689   0.00000  Uiso   1.00
N607   N     0.11736   0.16668   0.74999   0.00000  Uiso   1.00
N608   N     0.21597   0.16666   0.75001   0.00000  Uiso   1.00
O609   O     0.03958   0.10655   0.75000   0.00000  Uiso   1.00
O610   O     0.29375   0.22678   0.75000   0.00000  Uiso   1.00
O611   O     0.29372   0.10654   0.75001   0.00000  Uiso   1.00
O612   O     0.03961   0.22679   0.75000   0.00000  Uiso   1.00
O613   O     0.01852   0.16668   0.81492   0.00000  Uiso   1.00
O614   O     0.31481   0.16666   0.68509   0.00000  Uiso   1.00
O615   O     0.27267   0.16667   0.81492   0.00000  Uiso   1.00
O616   O     0.06067   0.16667   0.68508   0.00000  Uiso   1.00
F617   F     0.26694   0.11221   0.54422   0.00000  Uiso   1.00
F618   F     0.06028   0.19590   0.95061   0.00000  Uiso   1.00
F619   F     0.00243   0.11527   0.97375   0.00000  Uiso   1.00
F620   F     0.32614   0.19790   0.52216   0.00000  Uiso   1.00
C621   C     0.66664   0.08736   0.75004   0.00000  Uiso   1.00
C622   C     0.33336   0.24597   0.74997   0.00000  Uiso   1.00
C623   C     0.52288   0.13688   0.54363   0.00000  Uiso   1.00
C624   C     0.47246   0.17651   0.95255   0.00000  Uiso   1.00
C625   C     0.57110   0.12969   0.52112   0.00000  Uiso   1.00
C626   C     0.42405   0.18295   0.97486   0.00000  Uiso   1.00
C627   C     0.62408   0.02127   0.75014   0.00000  Uiso   1.00
C628   C     0.37591   0.31206   0.74989   0.00000  Uiso   1.00
C629   C     0.62410   0.31204   0.75009   0.00000  Uiso   1.00
C630   C     0.37589   0.02130   0.74994   0.00000  Uiso   1.00
C631   C     0.33335   0.29059   0.74997   0.00000  Uiso   1.00
C632   C     0.66664   0.04274   0.75005   0.00000  Uiso   1.00
C633   C     0.51620   0.14266   0.77950   0.00000  Uiso   1.00
C634   C     0.48380   0.19068   0.72051   0.00000  Uiso   1.00
C635   C     0.46660   0.14270   0.77951   0.00000  Uiso   1.00
C636   C     0.53340   0.19064   0.72049   0.00000  Uiso   1.00
C637   C     0.63943   0.16592   0.83606   0.00000  Uiso   1.00
C638   C     0.36057   0.16697   0.66390   0.00000  Uiso   1.00
C639   C     0.62429   0.16070   0.88487   0.00000  Uiso   1.00
C640   C     0.37543   0.16848   0.61472   0.00000  Uiso   1.00
C641   C     0.63797   0.13309   0.95299   0.00000  Uiso   1.00
C642   C     0.35862   0.18471   0.54412   0.00000  Uiso   1.00
C643   C     0.65530   0.14306   0.90774   0.00000  Uiso   1.00
C644   C     0.34271   0.17992   0.59044   0.00000  Uiso   1.00
C645   C     0.57623   0.16937   0.90772   0.00000  Uiso   1.00
C646   C     0.42377   0.16026   0.59218   0.00000  Uiso   1.00
C647   C     0.55687   0.15795   0.95283   0.00000  Uiso   1.00
C648   C     0.44071   0.16334   0.54525   0.00000  Uiso   1.00
C649   C     0.58886   0.14029   0.97590   0.00000  Uiso   1.00
C650   C     0.40758   0.17696   0.52119   0.00000  Uiso   1.00
C651   C     0.50670   0.16350   0.97537   0.00000  Uiso   1.00
C652   C     0.49001   0.15472   0.52197   0.00000  Uiso   1.00
Cu653  Cu    0.38022   0.16667   0.75000   0.00000  Uiso   1.00
Cu654  Cu    0.61978   0.16666   0.75000   0.00000  Uiso   1.00
H655   H     0.44791   0.15286   0.61241   0.00000  Uiso   1.00
H656   H     0.55477   0.18513   0.88913   0.00000  Uiso   1.00
H657   H     0.63849   0.18661   0.60745   0.00000  Uiso   1.00
H658   H     0.35926   0.13583   0.89032   0.00000  Uiso   1.00
H659   H     0.51220   0.12665   0.57796   0.00000  Uiso   1.00
H660   H     0.48144   0.18106   0.91683   0.00000  Uiso   1.00
H661   H     0.59078   0.03727   0.75025   0.00000  Uiso   1.00
H662   H     0.40921   0.29607   0.74979   0.00000  Uiso   1.00
H663   H     0.59082   0.29602   0.75015   0.00000  Uiso   1.00
H664   H     0.40917   0.03731   0.74989   0.00000  Uiso   1.00
H665   H     0.52799   0.12336   0.80309   0.00000  Uiso   1.00
H666   H     0.47200   0.20999   0.69693   0.00000  Uiso   1.00
H667   H     0.44102   0.12347   0.80312   0.00000  Uiso   1.00
H668   H     0.55897   0.20987   0.69689   0.00000  Uiso   1.00
N669   N     0.45069   0.16668   0.74999   0.00000  Uiso   1.00
N670   N     0.54931   0.16666   0.75001   0.00000  Uiso   1.00
O671   O     0.37291   0.10655   0.75000   0.00000  Uiso   1.00
O672   O     0.62709   0.22678   0.75000   0.00000  Uiso   1.00
O673   O     0.62706   0.10654   0.75001   0.00000  Uiso   1.00
O674   O     0.37294   0.22679   0.75000   0.00000  Uiso   1.00
O675   O     0.35186   0.16668   0.81492   0.00000  Uiso   1.00
O676   O     0.64814   0.16666   0.68509   0.00000  Uiso   1.00
O677   O     0.60600   0.16667   0.81492   0.00000  Uiso   1.00
O678   O     0.39400   0.16667   0.68508   0.00000  Uiso   1.00
F679   F     0.60027   0.11221   0.54422   0.00000  Uiso   1.00
F680   F     0.39362   0.19590   0.95061   0.00000  Uiso   1.00
F681   F     0.33577   0.11527   0.97375   0.00000  Uiso   1.00
F682   F     0.65948   0.19790   0.52216   0.00000  Uiso   1.00
C683   C     0.99997   0.08736   0.75004   0.00000  Uiso   1.00
C684   C     0.66669   0.24597   0.74997   0.00000  Uiso   1.00
C685   C     0.85621   0.13688   0.54363   0.00000  Uiso   1.00
C686   C     0.80579   0.17651   0.95255   0.00000  Uiso   1.00
C687   C     0.90443   0.12969   0.52112   0.00000  Uiso   1.00
C688   C     0.75738   0.18295   0.97486   0.00000  Uiso   1.00
C689   C     0.95741   0.02127   0.75014   0.00000  Uiso   1.00
C690   C     0.70925   0.31206   0.74989   0.00000  Uiso   1.00
C691   C     0.95743   0.31204   0.75009   0.00000  Uiso   1.00
C692   C     0.70922   0.02130   0.74994   0.00000  Uiso   1.00
C693   C     0.66668   0.29059   0.74997   0.00000  Uiso   1.00
C694   C     0.99998   0.04274   0.75005   0.00000  Uiso   1.00
C695   C     0.84953   0.14266   0.77950   0.00000  Uiso   1.00
C696   C     0.81713   0.19068   0.72051   0.00000  Uiso   1.00
C697   C     0.79993   0.14270   0.77951   0.00000  Uiso   1.00
C698   C     0.86674   0.19064   0.72049   0.00000  Uiso   1.00
C699   C     0.97276   0.16592   0.83606   0.00000  Uiso   1.00
C700   C     0.69390   0.16697   0.66390   0.00000  Uiso   1.00
C701   C     0.95762   0.16070   0.88487   0.00000  Uiso   1.00
C702   C     0.70876   0.16848   0.61472   0.00000  Uiso   1.00
C703   C     0.97130   0.13309   0.95299   0.00000  Uiso   1.00
C704   C     0.69196   0.18471   0.54412   0.00000  Uiso   1.00
C705   C     0.98864   0.14306   0.90774   0.00000  Uiso   1.00
C706   C     0.67605   0.17992   0.59044   0.00000  Uiso   1.00
C707   C     0.90957   0.16937   0.90772   0.00000  Uiso   1.00
C708   C     0.75711   0.16026   0.59218   0.00000  Uiso   1.00
C709   C     0.89020   0.15795   0.95283   0.00000  Uiso   1.00
C710   C     0.77404   0.16334   0.54525   0.00000  Uiso   1.00
C711   C     0.92219   0.14029   0.97590   0.00000  Uiso   1.00
C712   C     0.74091   0.17696   0.52119   0.00000  Uiso   1.00
C713   C     0.84004   0.16350   0.97537   0.00000  Uiso   1.00
C714   C     0.82334   0.15472   0.52197   0.00000  Uiso   1.00
Cu715  Cu    0.71355   0.16667   0.75000   0.00000  Uiso   1.00
Cu716  Cu    0.95311   0.16666   0.75000   0.00000  Uiso   1.00
H717   H     0.78124   0.15286   0.61241   0.00000  Uiso   1.00
H718   H     0.88811   0.18513   0.88913   0.00000  Uiso   1.00
H719   H     0.97182   0.18661   0.60745   0.00000  Uiso   1.00
H720   H     0.69260   0.13583   0.89032   0.00000  Uiso   1.00
H721   H     0.84553   0.12665   0.57796   0.00000  Uiso   1.00
H722   H     0.81477   0.18106   0.91683   0.00000  Uiso   1.00
H723   H     0.92411   0.03727   0.75025   0.00000  Uiso   1.00
H724   H     0.74254   0.29607   0.74979   0.00000  Uiso   1.00
H725   H     0.92415   0.29602   0.75015   0.00000  Uiso   1.00
H726   H     0.74250   0.03731   0.74989   0.00000  Uiso   1.00
H727   H     0.86133   0.12336   0.80309   0.00000  Uiso   1.00
H728   H     0.80533   0.20999   0.69693   0.00000  Uiso   1.00
H729   H     0.77436   0.12347   0.80312   0.00000  Uiso   1.00
H730   H     0.89231   0.20987   0.69689   0.00000  Uiso   1.00
N731   N     0.78403   0.16668   0.74999   0.00000  Uiso   1.00
N732   N     0.88264   0.16666   0.75001   0.00000  Uiso   1.00
O733   O     0.70625   0.10655   0.75000   0.00000  Uiso   1.00
O734   O     0.96042   0.22678   0.75000   0.00000  Uiso   1.00
O735   O     0.96039   0.10654   0.75001   0.00000  Uiso   1.00
O736   O     0.70628   0.22679   0.75000   0.00000  Uiso   1.00
O737   O     0.68519   0.16668   0.81492   0.00000  Uiso   1.00
O738   O     0.98148   0.16666   0.68509   0.00000  Uiso   1.00
O739   O     0.93933   0.16667   0.81492   0.00000  Uiso   1.00
O740   O     0.72733   0.16667   0.68508   0.00000  Uiso   1.00
F741   F     0.93361   0.11221   0.54422   0.00000  Uiso   1.00
F742   F     0.72695   0.19590   0.95061   0.00000  Uiso   1.00
F743   F     0.66910   0.11527   0.97375   0.00000  Uiso   1.00
F744   F     0.99281   0.19790   0.52216   0.00000  Uiso   1.00
C745   C     0.33331   0.42069   0.75004   0.00000  Uiso   1.00
C746   C     0.00002   0.57931   0.74997   0.00000  Uiso   1.00
C747   C     0.18954   0.47022   0.54363   0.00000  Uiso   1.00
C748   C     0.13913   0.50984   0.95255   0.00000  Uiso   1.00
C749   C     0.23777   0.46302   0.52112   0.00000  Uiso   1.00
C750   C     0.09071   0.51628   0.97486   0.00000  Uiso   1.00
C751   C     0.29074   0.35461   0.75014   0.00000  Uiso   1.00
C752   C     0.04258   0.64540   0.74989   0.00000  Uiso   1.00
C753   C     0.29077   0.64537   0.75009   0.00000  Uiso   1.00
C754   C     0.04256   0.35463   0.74994   0.00000  Uiso   1.00
C755   C     0.00002   0.62393   0.74997   0.00000  Uiso   1.00
C756   C     0.33331   0.37607   0.75005   0.00000  Uiso   1.00
C757   C     0.18287   0.47600   0.77950   0.00000  Uiso   1.00
C758   C     0.15046   0.52401   0.72051   0.00000  Uiso   1.00
C759   C     0.13326   0.47603   0.77951   0.00000  Uiso   1.00
C760   C     0.20007   0.52397   0.72049   0.00000  Uiso   1.00
C761   C     0.30610   0.49925   0.83606   0.00000  Uiso   1.00
C762   C     0.02724   0.50030   0.66390   0.00000  Uiso   1.00
C763   C     0.29096   0.49403   0.88487   0.00000  Uiso   1.00
C764   C     0.04209   0.50181   0.61472   0.00000  Uiso   1.00
C765   C     0.30463   0.46642   0.95299   0.00000  Uiso   1.00
C766   C     0.02529   0.51804   0.54412   0.00000  Uiso   1.00
C767   C     0.32197   0.47639   0.90774   0.00000  Uiso   1.00
C768   C     0.00938   0.51325   0.59044   0.00000  Uiso   1.00
C769   C     0.24290   0.50270   0.90772   0.00000  Uiso   1.00
C770   C     0.09044   0.49359   0.59218   0.00000  Uiso   1.00
C771   C     0.22354   0.49128   0.95283   0.00000  Uiso   1.00
C772   C     0.10737   0.49667   0.54525   0.00000  Uiso   1.00
C773   C     0.25553   0.47362   0.97590   0.00000  Uiso   1.00
C774   C     0.07424   0.51029   0.52119   0.00000  Uiso   1.00
C775   C     0.17337   0.49683   0.97537   0.00000  Uiso   1.00
C776   C     0.15667   0.48806   0.52197   0.00000  Uiso   1.00
Cu777  Cu    0.04689   0.50001   0.75000   0.00000  Uiso   1.00
Cu778  Cu    0.28645   0.49999   0.75000   0.00000  Uiso   1.00
H779   H     0.11457   0.48619   0.61241   0.00000  Uiso   1.00
H780   H     0.22144   0.51846   0.88913   0.00000  Uiso   1.00
H781   H     0.30515   0.51995   0.60745   0.00000  Uiso   1.00
H782   H     0.02593   0.46917   0.89032   0.00000  Uiso   1.00
H783   H     0.17887   0.45998   0.57796   0.00000  Uiso   1.00
H784   H     0.14811   0.51440   0.91683   0.00000  Uiso   1.00
H785   H     0.25745   0.37060   0.75025   0.00000  Uiso   1.00
H786   H     0.07588   0.62940   0.74979   0.00000  Uiso   1.00
H787   H     0.25749   0.62935   0.75015   0.00000  Uiso   1.00
H788   H     0.07583   0.37065   0.74989   0.00000  Uiso   1.00
H789   H     0.19466   0.45669   0.80309   0.00000  Uiso   1.00
H790   H     0.13867   0.54332   0.69693   0.00000  Uiso   1.00
H791   H     0.10769   0.45681   0.80312   0.00000  Uiso   1.00
H792   H     0.22564   0.54320   0.69689   0.00000  Uiso   1.00
N793   N     0.11736   0.50001   0.74999   0.00000  Uiso   1.00
N794   N     0.21597   0.49999   0.75001   0.00000  Uiso   1.00
O795   O     0.03958   0.43989   0.75000   0.00000  Uiso   1.00
O796   O     0.29375   0.56011   0.75000   0.00000  Uiso   1.00
O797   O     0.29372   0.43988   0.75001   0.00000  Uiso   1.00
O798   O     0.03961   0.56012   0.75000   0.00000  Uiso   1.00
O799   O     0.01852   0.50001   0.81492   0.00000  Uiso   1.00
O800   O     0.31481   0.49999   0.68509   0.00000  Uiso   1.00
O801   O     0.27267   0.50000   0.81492   0.00000  Uiso   1.00
O802   O     0.06067   0.50000   0.68508   0.00000  Uiso   1.00
F803   F     0.26694   0.44554   0.54422   0.00000  Uiso   1.00
F804   F     0.06028   0.52924   0.95061   0.00000  Uiso   1.00
F805   F     0.00243   0.44860   0.97375   0.00000  Uiso   1.00
F806   F     0.32614   0.53124   0.52216   0.00000  Uiso   1.00
C807   C     0.66664   0.42069   0.75004   0.00000  Uiso   1.00
C808   C     0.33336   0.57931   0.74997   0.00000  Uiso   1.00
C809   C     0.52288   0.47022   0.54363   0.00000  Uiso   1.00
C810   C     0.47246   0.50984   0.95255   0.00000  Uiso   1.00
C811   C     0.57110   0.46302   0.52112   0.00000  Uiso   1.00
C812   C     0.42405   0.51628   0.97486   0.00000  Uiso   1.00
C813   C     0.62408   0.35461   0.75014   0.00000  Uiso   1.00
C814   C     0.37591   0.64540   0.74989   0.00000  Uiso   1.00
C815   C     0.62410   0.64537   0.75009   0.00000  Uiso   1.00
C816   C     0.37589   0.35463   0.74994   0.00000  Uiso   1.00
C817   C     0.33335   0.62393   0.74997   0.00000  Uiso   1.00
C818   C     0.66664   0.37607   0.75005   0.00000  Uiso   1.00
C819   C     0.51620   0.47600   0.77950   0.00000  Uiso   1.00
C820   C     0.48380   0.52401   0.72051   0.00000  Uiso   1.00
C821   C     0.46660   0.47603   0.77951   0.00000  Uiso   1.00
C822   C     0.53340   0.52397   0.72049   0.00000  Uiso   1.00
C823   C     0.63943   0.49925   0.83606   0.00000  Uiso   1.00
C824   C     0.36057   0.50030   0.66390   0.00000  Uiso   1.00
C825   C     0.62429   0.49403   0.88487   0.00000  Uiso   1.00
C826   C     0.37543   0.50181   0.61472   0.00000  Uiso   1.00
C827   C     0.63797   0.46642   0.95299   0.00000  Uiso   1.00
C828   C     0.35862   0.51804   0.54412   0.00000  Uiso   1.00
C829   C     0.65530   0.47639   0.90774   0.00000  Uiso   1.00
C830   C     0.34271   0.51325   0.59044   0.00000  Uiso   1.00
C831   C     0.57623   0.50270   0.90772   0.00000  Uiso   1.00
C832   C     0.42377   0.49359   0.59218   0.00000  Uiso   1.00
C833   C     0.55687   0.49128   0.95283   0.00000  Uiso   1.00
C834   C     0.44071   0.49667   0.54525   0.00000  Uiso   1.00
C835   C     0.58886   0.47362   0.97590   0.00000  Uiso   1.00
C836   C     0.40758   0.51029   0.52119   0.00000  Uiso   1.00
C837   C     0.50670   0.49683   0.97537   0.00000  Uiso   1.00
C838   C     0.49001   0.48806   0.52197   0.00000  Uiso   1.00
Cu839  Cu    0.38022   0.50001   0.75000   0.00000  Uiso   1.00
Cu840  Cu    0.61978   0.49999   0.75000   0.00000  Uiso   1.00
H841   H     0.44791   0.48619   0.61241   0.00000  Uiso   1.00
H842   H     0.55477   0.51846   0.88913   0.00000  Uiso   1.00
H843   H     0.63849   0.51995   0.60745   0.00000  Uiso   1.00
H844   H     0.35926   0.46917   0.89032   0.00000  Uiso   1.00
H845   H     0.51220   0.45998   0.57796   0.00000  Uiso   1.00
H846   H     0.48144   0.51440   0.91683   0.00000  Uiso   1.00
H847   H     0.59078   0.37060   0.75025   0.00000  Uiso   1.00
H848   H     0.40921   0.62940   0.74979   0.00000  Uiso   1.00
H849   H     0.59082   0.62935   0.75015   0.00000  Uiso   1.00
H850   H     0.40917   0.37065   0.74989   0.00000  Uiso   1.00
H851   H     0.52799   0.45669   0.80309   0.00000  Uiso   1.00
H852   H     0.47200   0.54332   0.69693   0.00000  Uiso   1.00
H853   H     0.44102   0.45681   0.80312   0.00000  Uiso   1.00
H854   H     0.55897   0.54320   0.69689   0.00000  Uiso   1.00
N855   N     0.45069   0.50001   0.74999   0.00000  Uiso   1.00
N856   N     0.54931   0.49999   0.75001   0.00000  Uiso   1.00
O857   O     0.37291   0.43989   0.75000   0.00000  Uiso   1.00
O858   O     0.62709   0.56011   0.75000   0.00000  Uiso   1.00
O859   O     0.62706   0.43988   0.75001   0.00000  Uiso   1.00
O860   O     0.37294   0.56012   0.75000   0.00000  Uiso   1.00
O861   O     0.35186   0.50001   0.81492   0.00000  Uiso   1.00
O862   O     0.64814   0.49999   0.68509   0.00000  Uiso   1.00
O863   O     0.60600   0.50000   0.81492   0.00000  Uiso   1.00
O864   O     0.39400   0.50000   0.68508   0.00000  Uiso   1.00
F865   F     0.60027   0.44554   0.54422   0.00000  Uiso   1.00
F866   F     0.39362   0.52924   0.95061   0.00000  Uiso   1.00
F867   F     0.33577   0.44860   0.97375   0.00000  Uiso   1.00
F868   F     0.65948   0.53124   0.52216   0.00000  Uiso   1.00
C869   C     0.99997   0.42069   0.75004   0.00000  Uiso   1.00
C870   C     0.66669   0.57931   0.74997   0.00000  Uiso   1.00
C871   C     0.85621   0.47022   0.54363   0.00000  Uiso   1.00
C872   C     0.80579   0.50984   0.95255   0.00000  Uiso   1.00
C873   C     0.90443   0.46302   0.52112   0.00000  Uiso   1.00
C874   C     0.75738   0.51628   0.97486   0.00000  Uiso   1.00
C875   C     0.95741   0.35461   0.75014   0.00000  Uiso   1.00
C876   C     0.70925   0.64540   0.74989   0.00000  Uiso   1.00
C877   C     0.95743   0.64537   0.75009   0.00000  Uiso   1.00
C878   C     0.70922   0.35463   0.74994   0.00000  Uiso   1.00
C879   C     0.66668   0.62393   0.74997   0.00000  Uiso   1.00
C880   C     0.99998   0.37607   0.75005   0.00000  Uiso   1.00
C881   C     0.84953   0.47600   0.77950   0.00000  Uiso   1.00
C882   C     0.81713   0.52401   0.72051   0.00000  Uiso   1.00
C883   C     0.79993   0.47603   0.77951   0.00000  Uiso   1.00
C884   C     0.86674   0.52397   0.72049   0.00000  Uiso   1.00
C885   C     0.97276   0.49925   0.83606   0.00000  Uiso   1.00
C886   C     0.69390   0.50030   0.66390   0.00000  Uiso   1.00
C887   C     0.95762   0.49403   0.88487   0.00000  Uiso   1.00
C888   C     0.70876   0.50181   0.61472   0.00000  Uiso   1.00
C889   C     0.97130   0.46642   0.95299   0.00000  Uiso   1.00
C890   C     0.69196   0.51804   0.54412   0.00000  Uiso   1.00
C891   C     0.98864   0.47639   0.90774   0.00000  Uiso   1.00
C892   C     0.67605   0.51325   0.59044   0.00000  Uiso   1.00
C893   C     0.90957   0.50270   0.90772   0.00000  Uiso   1.00
C894   C     0.75711   0.49359   0.59218   0.00000  Uiso   1.00
C895   C     0.89020   0.49128   0.95283   0.00000  Uiso   1.00
C896   C     0.77404   0.49667   0.54525   0.00000  Uiso   1.00
C897   C     0.92219   0.47362   0.97590   0.00000  Uiso   1.00
C898   C     0.74091   0.51029   0.52119   0.00000  Uiso   1.00
C899   C     0.84004   0.49683   0.97537   0.00000  Uiso   1.00
C900   C     0.82334   0.48806   0.52197   0.00000  Uiso   1.00
Cu901  Cu    0.71355   0.50001   0.75000   0.00000  Uiso   1.00
Cu902  Cu    0.95311   0.49999   0.75000   0.00000  Uiso   1.00
H903   H     0.78124   0.48619   0.61241   0.00000  Uiso   1.00
H904   H     0.88811   0.51846   0.88913   0.00000  Uiso   1.00
H905   H     0.97182   0.51995   0.60745   0.00000  Uiso   1.00
H906   H     0.69260   0.46917   0.89032   0.00000  Uiso   1.00
H907   H     0.84553   0.45998   0.57796   0.00000  Uiso   1.00
H908   H     0.81477   0.51440   0.91683   0.00000  Uiso   1.00
H909   H     0.92411   0.37060   0.75025   0.00000  Uiso   1.00
H910   H     0.74254   0.62940   0.74979   0.00000  Uiso   1.00
H911   H     0.92415   0.62935   0.75015   0.00000  Uiso   1.00
H912   H     0.74250   0.37065   0.74989   0.00000  Uiso   1.00
H913   H     0.86133   0.45669   0.80309   0.00000  Uiso   1.00
H914   H     0.80533   0.54332   0.69693   0.00000  Uiso   1.00
H915   H     0.77436   0.45681   0.80312   0.00000  Uiso   1.00
H916   H     0.89231   0.54320   0.69689   0.00000  Uiso   1.00
N917   N     0.78403   0.50001   0.74999   0.00000  Uiso   1.00
N918   N     0.88264   0.49999   0.75001   0.00000  Uiso   1.00
O919   O     0.70625   0.43989   0.75000   0.00000  Uiso   1.00
O920   O     0.96042   0.56011   0.75000   0.00000  Uiso   1.00
O921   O     0.96039   0.43988   0.75001   0.00000  Uiso   1.00
O922   O     0.70628   0.56012   0.75000   0.00000  Uiso   1.00
O923   O     0.68519   0.50001   0.81492   0.00000  Uiso   1.00
O924   O     0.98148   0.49999   0.68509   0.00000  Uiso   1.00
O925   O     0.93933   0.50000   0.81492   0.00000  Uiso   1.00
O926   O     0.72733   0.50000   0.68508   0.00000  Uiso   1.00
F927   F     0.93361   0.44554   0.54422   0.00000  Uiso   1.00
F928   F     0.72695   0.52924   0.95061   0.00000  Uiso   1.00
F929   F     0.66910   0.44860   0.97375   0.00000  Uiso   1.00
F930   F     0.99281   0.53124   0.52216   0.00000  Uiso   1.00
C931   C     0.33331   0.75403   0.75004   0.00000  Uiso   1.00
C932   C     0.00002   0.91264   0.74997   0.00000  Uiso   1.00
C933   C     0.18954   0.80355   0.54363   0.00000  Uiso   1.00
C934   C     0.13913   0.84317   0.95255   0.00000  Uiso   1.00
C935   C     0.23777   0.79636   0.52112   0.00000  Uiso   1.00
C936   C     0.09071   0.84962   0.97486   0.00000  Uiso   1.00
C937   C     0.29074   0.68794   0.75014   0.00000  Uiso   1.00
C938   C     0.04258   0.97873   0.74989   0.00000  Uiso   1.00
C939   C     0.29077   0.97871   0.75009   0.00000  Uiso   1.00
C940   C     0.04256   0.68796   0.74994   0.00000  Uiso   1.00
C941   C     0.00002   0.95726   0.74997   0.00000  Uiso   1.00
C942   C     0.33331   0.70941   0.75005   0.00000  Uiso   1.00
C943   C     0.18287   0.80933   0.77950   0.00000  Uiso   1.00
C944   C     0.15046   0.85734   0.72051   0.00000  Uiso   1.00
C945   C     0.13326   0.80937   0.77951   0.00000  Uiso   1.00
C946   C     0.20007   0.85730   0.72049   0.00000  Uiso   1.00
C947   C     0.30610   0.83259   0.83606   0.00000  Uiso   1.00
C948   C     0.02724   0.83363   0.66390   0.00000  Uiso   1.00
C949   C     0.29096   0.82737   0.88487   0.00000  Uiso   1.00
C950   C     0.04209   0.83515   0.61472   0.00000  Uiso   1.00
C951   C     0.30463   0.79976   0.95299   0.00000  Uiso   1.00
C952   C     0.02529   0.85137   0.54412   0.00000  Uiso   1.00
C953   C     0.32197   0.80972   0.90774   0.00000  Uiso   1.00
C954   C     0.00938   0.84659   0.59044   0.00000  Uiso   1.00
C955   C     0.24290   0.83604   0.90772   0.00000  Uiso   1.00
C956   C     0.09044   0.82693   0.59218   0.00000  Uiso   1.00
C957   C     0.22354   0.82462   0.95283   0.00000  Uiso   1.00
C958   C     0.10737   0.83001   0.54525   0.00000  Uiso   1.00
C959   C     0.25553   0.80696   0.97590   0.00000  Uiso   1.00
C960   C     0.07424   0.84362   0.52119   0.00000  Uiso   1.00
C961   C     0.17337   0.83017   0.97537   0.00000  Uiso   1.00
C962   C     0.15667   0.82139   0.52197   0.00000  Uiso   1.00
Cu963  Cu    0.04689   0.83334   0.75000   0.00000  Uiso   1.00
Cu964  Cu    0.28645   0.83333   0.75000   0.00000  Uiso   1.00
H965   H     0.11457   0.81953   0.61241   0.00000  Uiso   1.00
H966   H     0.22144   0.85179   0.88913   0.00000  Uiso   1.00
H967   H     0.30515   0.85328   0.60745   0.00000  Uiso   1.00
H968   H     0.02593   0.80250   0.89032   0.00000  Uiso   1.00
H969   H     0.17887   0.79332   0.57796   0.00000  Uiso   1.00
H970   H     0.14811   0.84773   0.91683   0.00000  Uiso   1.00
H971   H     0.25745   0.70394   0.75025   0.00000  Uiso   1.00
H972   H     0.07588   0.96273   0.74979   0.00000  Uiso   1.00
H973   H     0.25749   0.96269   0.75015   0.00000  Uiso   1.00
H974   H     0.07583   0.70398   0.74989   0.00000  Uiso   1.00
H975   H     0.19466   0.79003   0.80309   0.00000  Uiso   1.00
H976   H     0.13867   0.87666   0.69693   0.00000  Uiso   1.00
H977   H     0.10769   0.79014   0.80312   0.00000  Uiso   1.00
H978   H     0.22564   0.87654   0.69689   0.00000  Uiso   1.00
N979   N     0.11736   0.83334   0.74999   0.00000  Uiso   1.00
N980   N     0.21597   0.83332   0.75001   0.00000  Uiso   1.00
O981   O     0.03958   0.77322   0.75000   0.00000  Uiso   1.00
O982   O     0.29375   0.89345   0.75000   0.00000  Uiso   1.00
O983   O     0.29372   0.77321   0.75001   0.00000  Uiso   1.00
O984   O     0.03961   0.89346   0.75000   0.00000  Uiso   1.00
O985   O     0.01852   0.83334   0.81492   0.00000  Uiso   1.00
O986   O     0.31481   0.83332   0.68509   0.00000  Uiso   1.00
O987   O     0.27267   0.83333   0.81492   0.00000  Uiso   1.00
O988   O     0.06067   0.83333   0.68508   0.00000  Uiso   1.00
F989   F     0.26694   0.77887   0.54422   0.00000  Uiso   1.00
F990   F     0.06028   0.86257   0.95061   0.00000  Uiso   1.00
F991   F     0.00243   0.78193   0.97375   0.00000  Uiso   1.00
F992   F     0.32614   0.86457   0.52216   0.00000  Uiso   1.00
C993   C     0.66664   0.75403   0.75004   0.00000  Uiso   1.00
C994   C     0.33336   0.91264   0.74997   0.00000  Uiso   1.00
C995   C     0.52288   0.80355   0.54363   0.00000  Uiso   1.00
C996   C     0.47246   0.84317   0.95255   0.00000  Uiso   1.00
C997   C     0.57110   0.79636   0.52112   0.00000  Uiso   1.00
C998   C     0.42405   0.84962   0.97486   0.00000  Uiso   1.00
C999   C     0.62408   0.68794   0.75014   0.00000  Uiso   1.00
C1000  C     0.37591   0.97873   0.74989   0.00000  Uiso   1.00
C1001  C     0.62410   0.97871   0.75009   0.00000  Uiso   1.00
C1002  C     0.37589   0.68796   0.74994   0.00000  Uiso   1.00
C1003  C     0.33335   0.95726   0.74997   0.00000  Uiso   1.00
C1004  C     0.66664   0.70941   0.75005   0.00000  Uiso   1.00
C1005  C     0.51620   0.80933   0.77950   0.00000  Uiso   1.00
C1006  C     0.48380   0.85734   0.72051   0.00000  Uiso   1.00
C1007  C     0.46660   0.80937   0.77951   0.00000  Uiso   1.00
C1008  C     0.53340   0.85730   0.72049   0.00000  Uiso   1.00
C1009  C     0.63943   0.83259   0.83606   0.00000  Uiso   1.00
C1010  C     0.36057   0.83363   0.66390   0.00000  Uiso   1.00
C1011  C     0.62429   0.82737   0.88487   0.00000  Uiso   1.00
C1012  C     0.37543   0.83515   0.61472   0.00000  Uiso   1.00
C1013  C     0.63797   0.79976   0.95299   0.00000  Uiso   1.00
C1014  C     0.35862   0.85137   0.54412   0.00000  Uiso   1.00
C1015  C     0.65530   0.80972   0.90774   0.00000  Uiso   1.00
C1016  C     0.34271   0.84659   0.59044   0.00000  Uiso   1.00
C1017  C     0.57623   0.83604   0.90772   0.00000  Uiso   1.00
C1018  C     0.42377   0.82693   0.59218   0.00000  Uiso   1.00
C1019  C     0.55687   0.82462   0.95283   0.00000  Uiso   1.00
C1020  C     0.44071   0.83001   0.54525   0.00000  Uiso   1.00
C1021  C     0.58886   0.80696   0.97590   0.00000  Uiso   1.00
C1022  C     0.40758   0.84362   0.52119   0.00000  Uiso   1.00
C1023  C     0.50670   0.83017   0.97537   0.00000  Uiso   1.00
C1024  C     0.49001   0.82139   0.52197   0.00000  Uiso   1.00
Cu1025 Cu    0.38022   0.83334   0.75000   0.00000  Uiso   1.00
Cu1026 Cu    0.61978   0.83333   0.75000   0.00000  Uiso   1.00
H1027  H     0.44791   0.81953   0.61241   0.00000  Uiso   1.00
H1028  H     0.55477   0.85179   0.88913   0.00000  Uiso   1.00
H1029  H     0.63849   0.85328   0.60745   0.00000  Uiso   1.00
H1030  H     0.35926   0.80250   0.89032   0.00000  Uiso   1.00
H1031  H     0.51220   0.79332   0.57796   0.00000  Uiso   1.00
H1032  H     0.48144   0.84773   0.91683   0.00000  Uiso   1.00
H1033  H     0.59078   0.70394   0.75025   0.00000  Uiso   1.00
H1034  H     0.40921   0.96273   0.74979   0.00000  Uiso   1.00
H1035  H     0.59082   0.96269   0.75015   0.00000  Uiso   1.00
H1036  H     0.40917   0.70398   0.74989   0.00000  Uiso   1.00
H1037  H     0.52799   0.79003   0.80309   0.00000  Uiso   1.00
H1038  H     0.47200   0.87666   0.69693   0.00000  Uiso   1.00
H1039  H     0.44102   0.79014   0.80312   0.00000  Uiso   1.00
H1040  H     0.55897   0.87654   0.69689   0.00000  Uiso   1.00
N1041  N     0.45069   0.83334   0.74999   0.00000  Uiso   1.00
N1042  N     0.54931   0.83332   0.75001   0.00000  Uiso   1.00
O1043  O     0.37291   0.77322   0.75000   0.00000  Uiso   1.00
O1044  O     0.62709   0.89345   0.75000   0.00000  Uiso   1.00
O1045  O     0.62706   0.77321   0.75001   0.00000  Uiso   1.00
O1046  O     0.37294   0.89346   0.75000   0.00000  Uiso   1.00
O1047  O     0.35186   0.83334   0.81492   0.00000  Uiso   1.00
O1048  O     0.64814   0.83332   0.68509   0.00000  Uiso   1.00
O1049  O     0.60600   0.83333   0.81492   0.00000  Uiso   1.00
O1050  O     0.39400   0.83333   0.68508   0.00000  Uiso   1.00
F1051  F     0.60027   0.77887   0.54422   0.00000  Uiso   1.00
F1052  F     0.39362   0.86257   0.95061   0.00000  Uiso   1.00
F1053  F     0.33577   0.78193   0.97375   0.00000  Uiso   1.00
F1054  F     0.65948   0.86457   0.52216   0.00000  Uiso   1.00
C1055  C     0.99997   0.75403   0.75004   0.00000  Uiso   1.00
C1056  C     0.66669   0.91264   0.74997   0.00000  Uiso   1.00
C1057  C     0.85621   0.80355   0.54363   0.00000  Uiso   1.00
C1058  C     0.80579   0.84317   0.95255   0.00000  Uiso   1.00
C1059  C     0.90443   0.79636   0.52112   0.00000  Uiso   1.00
C1060  C     0.75738   0.84962   0.97486   0.00000  Uiso   1.00
C1061  C     0.95741   0.68794   0.75014   0.00000  Uiso   1.00
C1062  C     0.70925   0.97873   0.74989   0.00000  Uiso   1.00
C1063  C     0.95743   0.97871   0.75009   0.00000  Uiso   1.00
C1064  C     0.70922   0.68796   0.74994   0.00000  Uiso   1.00
C1065  C     0.66668   0.95726   0.74997   0.00000  Uiso   1.00
C1066  C     0.99998   0.70941   0.75005   0.00000  Uiso   1.00
C1067  C     0.84953   0.80933   0.77950   0.00000  Uiso   1.00
C1068  C     0.81713   0.85734   0.72051   0.00000  Uiso   1.00
C1069  C     0.79993   0.80937   0.77951   0.00000  Uiso   1.00
C1070  C     0.86674   0.85730   0.72049   0.00000  Uiso   1.00
C1071  C     0.97276   0.83259   0.83606   0.00000  Uiso   1.00
C1072  C     0.69390   0.83363   0.66390   0.00000  Uiso   1.00
C1073  C     0.95762   0.82737   0.88487   0.00000  Uiso   1.00
C1074  C     0.70876   0.83515   0.61472   0.00000  Uiso   1.00
C1075  C     0.97130   0.79976   0.95299   0.00000  Uiso   1.00
C1076  C     0.69196   0.85137   0.54412   0.00000  Uiso   1.00
C1077  C     0.98864   0.80972   0.90774   0.00000  Uiso   1.00
C1078  C     0.67605   0.84659   0.59044   0.00000  Uiso   1.00
C1079  C     0.90957   0.83604   0.90772   0.00000  Uiso   1.00
C1080  C     0.75711   0.82693   0.59218   0.00000  Uiso   1.00
C1081  C     0.89020   0.82462   0.95283   0.00000  Uiso   1.00
C1082  C     0.77404   0.83001   0.54525   0.00000  Uiso   1.00
C1083  C     0.92219   0.80696   0.97590   0.00000  Uiso   1.00
C1084  C     0.74091   0.84362   0.52119   0.00000  Uiso   1.00
C1085  C     0.84004   0.83017   0.97537   0.00000  Uiso   1.00
C1086  C     0.82334   0.82139   0.52197   0.00000  Uiso   1.00
Cu1087 Cu    0.71355   0.83334   0.75000   0.00000  Uiso   1.00
Cu1088 Cu    0.95311   0.83333   0.75000   0.00000  Uiso   1.00
H1089  H     0.78124   0.81953   0.61241   0.00000  Uiso   1.00
H1090  H     0.88811   0.85179   0.88913   0.00000  Uiso   1.00
H1091  H     0.97182   0.85328   0.60745   0.00000  Uiso   1.00
H1092  H     0.69260   0.80250   0.89032   0.00000  Uiso   1.00
H1093  H     0.84553   0.79332   0.57796   0.00000  Uiso   1.00
H1094  H     0.81477   0.84773   0.91683   0.00000  Uiso   1.00
H1095  H     0.92411   0.70394   0.75025   0.00000  Uiso   1.00
H1096  H     0.74254   0.96273   0.74979   0.00000  Uiso   1.00
H1097  H     0.92415   0.96269   0.75015   0.00000  Uiso   1.00
H1098  H     0.74250   0.70398   0.74989   0.00000  Uiso   1.00
H1099  H     0.86133   0.79003   0.80309   0.00000  Uiso   1.00
H1100  H     0.80533   0.87666   0.69693   0.00000  Uiso   1.00
H1101  H     0.77436   0.79014   0.80312   0.00000  Uiso   1.00
H1102  H     0.89231   0.87654   0.69689   0.00000  Uiso   1.00
N1103  N     0.78403   0.83334   0.74999   0.00000  Uiso   1.00
N1104  N     0.88264   0.83332   0.75001   0.00000  Uiso   1.00
O1105  O     0.70625   0.77322   0.75000   0.00000  Uiso   1.00
O1106  O     0.96042   0.89345   0.75000   0.00000  Uiso   1.00
O1107  O     0.96039   0.77321   0.75001   0.00000  Uiso   1.00
O1108  O     0.70628   0.89346   0.75000   0.00000  Uiso   1.00
O1109  O     0.68519   0.83334   0.81492   0.00000  Uiso   1.00
O1110  O     0.98148   0.83332   0.68509   0.00000  Uiso   1.00
O1111  O     0.93933   0.83333   0.81492   0.00000  Uiso   1.00
O1112  O     0.72733   0.83333   0.68508   0.00000  Uiso   1.00
F1113  F     0.93361   0.77887   0.54422   0.00000  Uiso   1.00
F1114  F     0.72695   0.86257   0.95061   0.00000  Uiso   1.00
F1115  F     0.66910   0.78193   0.97375   0.00000  Uiso   1.00
F1116  F     0.99281   0.86457   0.52216   0.00000  Uiso   1.00
loop_
_geom_bond_atom_site_label_1
_geom_bond_atom_site_label_2
_geom_bond_distance
_geom_bond_site_symmetry_2
_ccdc_geom_bond_type
C1     C12     1.450   .     S
C1     O53     1.292   .     A
C1     O113    1.292   .     S
C2     C11     1.450   .     S
C2     O54     1.292   .     A
C2     O176    1.292   1_455 S
C3     C5      1.387   .     A
C3     H39     1.076   .     S
C3     C32     1.415   .     A
C4     C6      1.387   .     A
C4     C31     1.415   .     A
C4     H40     1.076   .     S
C5     F59     1.359   .     S
C5     C587    1.398   1_554 S
C6     F60     1.358   .     S
C6     C588    1.398   .     S
C7     C12     1.401   .     A
C7     H41     1.083   .     S
C7     C381    1.384   1_545 S
C8     C11     1.401   .     A
C8     H42     1.083   .     S
C8     C196    1.384   .     S
C9     H43     1.083   .     S
C9     C193    1.384   .     S
C9     C73     1.401   .     S
C10    H44     1.083   .     S
C10    C380    1.384   1_545 S
C10    C136    1.401   1_455 S
C11    C133    1.401   1_455 S
C12    C72     1.401   .     S
C13    C15     1.417   .     A
C13    H45     1.082   .     S
C13    N50     1.368   .     A
C14    H46     1.082   .     S
C14    C16     1.417   .     A
C14    N49     1.368   .     A
C15    H47     1.082   .     S
C15    N49     1.367   .     A
C16    H48     1.082   .     S
C16    N50     1.367   .     A
C17    C19     1.465   .     S
C17    O57     1.294   .     A
C17    O117    1.296   .     S
C18    C20     1.468   .     S
C18    O58     1.295   .     A
C18    O180    1.296   1_455 S
C19    C23     1.396   .     A
C19    C25     1.395   .     A
C20    C24     1.397   .     A
C20    C26     1.397   .     A
C21    C23     1.392   .     A
C21    C29     1.412   .     A
C21    F123    1.358   .     S
C22    C24     1.392   .     A
C22    C30     1.411   .     A
C22    F186    1.358   1_455 S
C23    H100    1.083   .     S
C24    H161    1.083   1_455 S
C25    H36     1.076   .     S
C25    C27     1.406   .     A
C26    C28     1.406   .     A
C26    H35     1.075   .     S
C27    C29     1.422   .     A
C27    C31     1.428   .     A
C28    C30     1.422   .     A
C28    C32     1.428   .     A
C29    C563    1.398   .     S
C30    C564    1.398   1_554 S
C31    C590    1.421   .     S
C32    C589    1.421   1_554 S
Cu33   O55     1.955   .     S
Cu33   O58     1.942   .     S
Cu33   N49     2.013   .     S
Cu33   O54     1.965   .     S
Cu33   O51     1.965   .     S
Cu33   Cu158   2.679   1_455 S
Cu34   O57     1.942   .     S
Cu34   O56     1.955   .     S
Cu34   N50     2.013   .     S
Cu34   O53     1.965   .     S
Cu34   O52     1.965   .     S
Cu34   Cu95    2.679   .     S
H37    C86     1.083   .     S
H38    C147    1.083   1_455 S
O51    C125    1.292   1_455 S
O52    C64     1.292   .     S
O55    C141    1.296   1_455 S
O56    C80     1.296   .     S
F61    C145    1.358   1_455 S
F62    C84     1.358   .     S
C63    C74     1.450   .     S
C63    O115    1.292   .     A
C63    O175    1.292   .     S
C64    C73     1.450   .     S
C64    O116    1.292   .     A
C65    C67     1.387   .     A
C65    H101    1.076   .     S
C65    C94     1.415   .     A
C66    C68     1.387   .     A
C66    C93     1.415   .     A
C66    H102    1.076   .     S
C67    F121    1.359   .     S
C67    C649    1.398   1_554 S
C68    F122    1.358   .     S
C68    C650    1.398   .     S
C69    C74     1.401   .     A
C69    H103    1.083   .     S
C69    C443    1.384   1_545 S
C70    C73     1.401   .     A
C70    H104    1.083   .     S
C70    C258    1.384   .     S
C71    H105    1.083   .     S
C71    C255    1.384   .     S
C71    C135    1.401   .     S
C72    H106    1.083   .     S
C72    C442    1.384   1_545 S
C74    C134    1.401   .     S
C75    C77     1.417   .     A
C75    H107    1.082   .     S
C75    N112    1.368   .     A
C76    H108    1.082   .     S
C76    C78     1.417   .     A
C76    N111    1.368   .     A
C77    H109    1.082   .     S
C77    N111    1.367   .     A
C78    H110    1.082   .     S
C78    N112    1.367   .     A
C79    C81     1.465   .     S
C79    O119    1.294   .     A
C79    O179    1.296   .     S
C80    C82     1.468   .     S
C80    O120    1.295   .     A
C81    C85     1.396   .     A
C81    C87     1.395   .     A
C82    C86     1.397   .     A
C82    C88     1.397   .     A
C83    C85     1.392   .     A
C83    C91     1.412   .     A
C83    F185    1.358   .     S
C84    C86     1.392   .     A
C84    C92     1.411   .     A
C85    H162    1.083   .     S
C87    H98     1.076   .     S
C87    C89     1.406   .     A
C88    C90     1.406   .     A
C88    H97     1.075   .     S
C89    C91     1.422   .     A
C89    C93     1.428   .     A
C90    C92     1.422   .     A
C90    C94     1.428   .     A
C91    C625    1.398   .     S
C92    C626    1.398   1_554 S
C93    C652    1.421   .     S
C94    C651    1.421   1_554 S
Cu95   O117    1.955   .     S
Cu95   O120    1.942   .     S
Cu95   N111    2.013   .     S
Cu95   O116    1.965   .     S
Cu95   O113    1.965   .     S
Cu96   O119    1.942   .     S
Cu96   O118    1.955   .     S
Cu96   N112    2.013   .     S
Cu96   O115    1.965   .     S
Cu96   O114    1.965   .     S
Cu96   Cu157   2.679   .     S
H99    C148    1.083   .     S
O114   C126    1.292   .     S
O118   C142    1.296   .     S
F124   C146    1.358   .     S
C125   C136    1.450   .     S
C125   O177    1.292   .     A
C125   O51     1.292   1_655 S
C126   C135    1.450   .     S
C126   O178    1.292   .     A
C127   C129    1.387   .     A
C127   H163    1.076   .     S
C127   C156    1.415   .     A
C128   C130    1.387   .     A
C128   C155    1.415   .     A
C128   H164    1.076   .     S
C129   F183    1.359   .     S
C129   C711    1.398   1_554 S
C130   F184    1.358   .     S
C130   C712    1.398   .     S
C131   C136    1.401   .     A
C131   H165    1.083   .     S
C131   C505    1.384   1_545 S
C132   C135    1.401   .     A
C132   H166    1.083   .     S
C132   C320    1.384   .     S
C133   H167    1.083   .     S
C133   C317    1.384   .     S
C133   C11     1.401   1_655 S
C134   H168    1.083   .     S
C134   C504    1.384   1_545 S
C136   C10     1.401   1_655 S
C137   C139    1.417   .     A
C137   H169    1.082   .     S
C137   N174    1.368   .     A
C138   H170    1.082   .     S
C138   C140    1.417   .     A
C138   N173    1.368   .     A
C139   H171    1.082   .     S
C139   N173    1.367   .     A
C140   H172    1.082   .     S
C140   N174    1.367   .     A
C141   C143    1.465   .     S
C141   O181    1.294   .     A
C141   O55     1.296   1_655 S
C142   C144    1.468   .     S
C142   O182    1.295   .     A
C143   C147    1.396   .     A
C143   C149    1.395   .     A
C144   C148    1.397   .     A
C144   C150    1.397   .     A
C145   C147    1.392   .     A
C145   C153    1.412   .     A
C145   F61     1.358   1_655 S
C146   C148    1.392   .     A
C146   C154    1.411   .     A
C147   H38     1.083   1_655 S
C149   H160    1.076   .     S
C149   C151    1.406   .     A
C150   C152    1.406   .     A
C150   H159    1.075   .     S
C151   C153    1.422   .     A
C151   C155    1.428   .     A
C152   C154    1.422   .     A
C152   C156    1.428   .     A
C153   C687    1.398   .     S
C154   C688    1.398   1_554 S
C155   C714    1.421   .     S
C156   C713    1.421   1_554 S
Cu157  O179    1.955   .     S
Cu157  O182    1.942   .     S
Cu157  N173    2.013   .     S
Cu157  O178    1.965   .     S
Cu157  O175    1.965   .     S
Cu158  O181    1.942   .     S
Cu158  O180    1.955   .     S
Cu158  N174    2.013   .     S
Cu158  O177    1.965   .     S
Cu158  O176    1.965   .     S
Cu158  Cu33    2.679   1_655 S
H161   C24     1.083   1_655 S
O176   C2      1.292   1_655 S
O180   C18     1.296   1_655 S
F186   C22     1.358   1_655 S
C187   C198    1.450   .     S
C187   O239    1.292   .     A
C187   O299    1.292   .     S
C188   C197    1.450   .     S
C188   O240    1.292   .     A
C188   O362    1.292   1_455 S
C189   C191    1.387   .     A
C189   H225    1.076   .     S
C189   C218    1.415   .     A
C190   C192    1.387   .     A
C190   C217    1.415   .     A
C190   H226    1.076   .     S
C191   F245    1.359   .     S
C191   C773    1.398   1_554 S
C192   F246    1.358   .     S
C192   C774    1.398   .     S
C193   C198    1.401   .     A
C193   H227    1.083   .     S
C194   C197    1.401   .     A
C194   H228    1.083   .     S
C194   C382    1.384   .     S
C195   H229    1.083   .     S
C195   C379    1.384   .     S
C195   C259    1.401   .     S
C196   H230    1.083   .     S
C196   C322    1.401   1_455 S
C197   C319    1.401   1_455 S
C198   C258    1.401   .     S
C199   C201    1.417   .     A
C199   H231    1.082   .     S
C199   N236    1.368   .     A
C200   H232    1.082   .     S
C200   C202    1.417   .     A
C200   N235    1.368   .     A
C201   H233    1.082   .     S
C201   N235    1.367   .     A
C202   H234    1.082   .     S
C202   N236    1.367   .     A
C203   C205    1.465   .     S
C203   O243    1.294   .     A
C203   O303    1.296   .     S
C204   C206    1.468   .     S
C204   O244    1.295   .     A
C204   O366    1.296   1_455 S
C205   C209    1.396   .     A
C205   C211    1.395   .     A
C206   C210    1.397   .     A
C206   C212    1.397   .     A
C207   C209    1.392   .     A
C207   C215    1.412   .     A
C207   F309    1.358   .     S
C208   C210    1.392   .     A
C208   C216    1.411   .     A
C208   F372    1.358   1_455 S
C209   H286    1.083   .     S
C210   H347    1.083   1_455 S
C211   H222    1.076   .     S
C211   C213    1.406   .     A
C212   C214    1.406   .     A
C212   H221    1.075   .     S
C213   C215    1.422   .     A
C213   C217    1.428   .     A
C214   C216    1.422   .     A
C214   C218    1.428   .     A
C215   C749    1.398   .     S
C216   C750    1.398   1_554 S
C217   C776    1.421   .     S
C218   C775    1.421   1_554 S
Cu219  O241    1.955   .     S
Cu219  O244    1.942   .     S
Cu219  N235    2.013   .     S
Cu219  O240    1.965   .     S
Cu219  O237    1.965   .     S
Cu219  Cu344   2.679   1_455 S
Cu220  O243    1.942   .     S
Cu220  O242    1.955   .     S
Cu220  N236    2.013   .     S
Cu220  O239    1.965   .     S
Cu220  O238    1.965   .     S
Cu220  Cu281   2.679   .     S
H223   C272    1.083   .     S
H224   C333    1.083   1_455 S
O237   C311    1.292   1_455 S
O238   C250    1.292   .     S
O241   C327    1.296   1_455 S
O242   C266    1.296   .     S
F247   C331    1.358   1_455 S
F248   C270    1.358   .     S
C249   C260    1.450   .     S
C249   O301    1.292   .     A
C249   O361    1.292   .     S
C250   C259    1.450   .     S
C250   O302    1.292   .     A
C251   C253    1.387   .     A
C251   H287    1.076   .     S
C251   C280    1.415   .     A
C252   C254    1.387   .     A
C252   C279    1.415   .     A
C252   H288    1.076   .     S
C253   F307    1.359   .     S
C253   C835    1.398   1_554 S
C254   F308    1.358   .     S
C254   C836    1.398   .     S
C255   C260    1.401   .     A
C255   H289    1.083   .     S
C256   C259    1.401   .     A
C256   H290    1.083   .     S
C256   C444    1.384   .     S
C257   H291    1.083   .     S
C257   C441    1.384   .     S
C257   C321    1.401   .     S
C258   H292    1.083   .     S
C260   C320    1.401   .     S
C261   C263    1.417   .     A
C261   H293    1.082   .     S
C261   N298    1.368   .     A
C262   H294    1.082   .     S
C262   C264    1.417   .     A
C262   N297    1.368   .     A
C263   H295    1.082   .     S
C263   N297    1.367   .     A
C264   H296    1.082   .     S
C264   N298    1.367   .     A
C265   C267    1.465   .     S
C265   O305    1.294   .     A
C265   O365    1.296   .     S
C266   C268    1.468   .     S
C266   O306    1.295   .     A
C267   C271    1.396   .     A
C267   C273    1.395   .     A
C268   C272    1.397   .     A
C268   C274    1.397   .     A
C269   C271    1.392   .     A
C269   C277    1.412   .     A
C269   F371    1.358   .     S
C270   C272    1.392   .     A
C270   C278    1.411   .     A
C271   H348    1.083   .     S
C273   H284    1.076   .     S
C273   C275    1.406   .     A
C274   C276    1.406   .     A
C274   H283    1.075   .     S
C275   C277    1.422   .     A
C275   C279    1.428   .     A
C276   C278    1.422   .     A
C276   C280    1.428   .     A
C277   C811    1.398   .     S
C278   C812    1.398   1_554 S
C279   C838    1.421   .     S
C280   C837    1.421   1_554 S
Cu281  O303    1.955   .     S
Cu281  O306    1.942   .     S
Cu281  N297    2.013   .     S
Cu281  O302    1.965   .     S
Cu281  O299    1.965   .     S
Cu282  O305    1.942   .     S
Cu282  O304    1.955   .     S
Cu282  N298    2.013   .     S
Cu282  O301    1.965   .     S
Cu282  O300    1.965   .     S
Cu282  Cu343   2.679   .     S
H285   C334    1.083   .     S
O300   C312    1.292   .     S
O304   C328    1.296   .     S
F310   C332    1.358   .     S
C311   C322    1.450   .     S
C311   O363    1.292   .     A
C311   O237    1.292   1_655 S
C312   C321    1.450   .     S
C312   O364    1.292   .     A
C313   C315    1.387   .     A
C313   H349    1.076   .     S
C313   C342    1.415   .     A
C314   C316    1.387   .     A
C314   C341    1.415   .     A
C314   H350    1.076   .     S
C315   F369    1.359   .     S
C315   C897    1.398   1_554 S
C316   F370    1.358   .     S
C316   C898    1.398   .     S
C317   C322    1.401   .     A
C317   H351    1.083   .     S
C318   C321    1.401   .     A
C318   H352    1.083   .     S
C318   C506    1.384   .     S
C319   H353    1.083   .     S
C319   C503    1.384   .     S
C319   C197    1.401   1_655 S
C320   H354    1.083   .     S
C322   C196    1.401   1_655 S
C323   C325    1.417   .     A
C323   H355    1.082   .     S
C323   N360    1.368   .     A
C324   H356    1.082   .     S
C324   C326    1.417   .     A
C324   N359    1.368   .     A
C325   H357    1.082   .     S
C325   N359    1.367   .     A
C326   H358    1.082   .     S
C326   N360    1.367   .     A
C327   C329    1.465   .     S
C327   O367    1.294   .     A
C327   O241    1.296   1_655 S
C328   C330    1.468   .     S
C328   O368    1.295   .     A
C329   C333    1.396   .     A
C329   C335    1.395   .     A
C330   C334    1.397   .     A
C330   C336    1.397   .     A
C331   C333    1.392   .     A
C331   C339    1.412   .     A
C331   F247    1.358   1_655 S
C332   C334    1.392   .     A
C332   C340    1.411   .     A
C333   H224    1.083   1_655 S
C335   H346    1.076   .     S
C335   C337    1.406   .     A
C336   C338    1.406   .     A
C336   H345    1.075   .     S
C337   C339    1.422   .     A
C337   C341    1.428   .     A
C338   C340    1.422   .     A
C338   C342    1.428   .     A
C339   C873    1.398   .     S
C340   C874    1.398   1_554 S
C341   C900    1.421   .     S
C342   C899    1.421   1_554 S
Cu343  O365    1.955   .     S
Cu343  O368    1.942   .     S
Cu343  N359    2.013   .     S
Cu343  O364    1.965   .     S
Cu343  O361    1.965   .     S
Cu344  O367    1.942   .     S
Cu344  O366    1.955   .     S
Cu344  N360    2.013   .     S
Cu344  O363    1.965   .     S
Cu344  O362    1.965   .     S
Cu344  Cu219   2.679   1_655 S
H347   C210    1.083   1_655 S
O362   C188    1.292   1_655 S
O366   C204    1.296   1_655 S
F372   C208    1.358   1_655 S
C373   C384    1.450   .     S
C373   O425    1.292   .     A
C373   O485    1.292   .     S
C374   C383    1.450   .     S
C374   O426    1.292   .     A
C374   O548    1.292   1_455 S
C375   C377    1.387   .     A
C375   H411    1.076   .     S
C375   C404    1.415   .     A
C376   C378    1.387   .     A
C376   C403    1.415   .     A
C376   H412    1.076   .     S
C377   F431    1.359   .     S
C377   C959    1.398   1_554 S
C378   F432    1.358   .     S
C378   C960    1.398   .     S
C379   C384    1.401   .     A
C379   H413    1.083   .     S
C380   C383    1.401   .     A
C380   H414    1.083   .     S
C380   C10     1.384   1_565 S
C381   H415    1.083   .     S
C381   C7      1.384   1_565 S
C381   C445    1.401   .     S
C382   H416    1.083   .     S
C382   C508    1.401   1_455 S
C383   C505    1.401   1_455 S
C384   C444    1.401   .     S
C385   C387    1.417   .     A
C385   H417    1.082   .     S
C385   N422    1.368   .     A
C386   H418    1.082   .     S
C386   C388    1.417   .     A
C386   N421    1.368   .     A
C387   H419    1.082   .     S
C387   N421    1.367   .     A
C388   H420    1.082   .     S
C388   N422    1.367   .     A
C389   C391    1.465   .     S
C389   O429    1.294   .     A
C389   O489    1.296   .     S
C390   C392    1.468   .     S
C390   O430    1.295   .     A
C390   O552    1.296   1_455 S
C391   C395    1.396   .     A
C391   C397    1.395   .     A
C392   C396    1.397   .     A
C392   C398    1.397   .     A
C393   C395    1.392   .     A
C393   C401    1.412   .     A
C393   F495    1.358   .     S
C394   C396    1.392   .     A
C394   C402    1.411   .     A
C394   F558    1.358   1_455 S
C395   H472    1.083   .     S
C396   H533    1.083   1_455 S
C397   H408    1.076   .     S
C397   C399    1.406   .     A
C398   C400    1.406   .     A
C398   H407    1.075   .     S
C399   C401    1.422   .     A
C399   C403    1.428   .     A
C400   C402    1.422   .     A
C400   C404    1.428   .     A
C401   C935    1.398   .     S
C402   C936    1.398   1_554 S
C403   C962    1.421   .     S
C404   C961    1.421   1_554 S
Cu405  O427    1.955   .     S
Cu405  O430    1.942   .     S
Cu405  N421    2.013   .     S
Cu405  O426    1.965   .     S
Cu405  O423    1.965   .     S
Cu405  Cu530   2.679   1_455 S
Cu406  O429    1.942   .     S
Cu406  O428    1.955   .     S
Cu406  N422    2.013   .     S
Cu406  O425    1.965   .     S
Cu406  O424    1.965   .     S
Cu406  Cu467   2.679   .     S
H409   C458    1.083   .     S
H410   C519    1.083   1_455 S
O423   C497    1.292   1_455 S
O424   C436    1.292   .     S
O427   C513    1.296   1_455 S
O428   C452    1.296   .     S
F433   C517    1.358   1_455 S
F434   C456    1.358   .     S
C435   C446    1.450   .     S
C435   O487    1.292   .     A
C435   O547    1.292   .     S
C436   C445    1.450   .     S
C436   O488    1.292   .     A
C437   C439    1.387   .     A
C437   H473    1.076   .     S
C437   C466    1.415   .     A
C438   C440    1.387   .     A
C438   C465    1.415   .     A
C438   H474    1.076   .     S
C439   F493    1.359   .     S
C439   C1021   1.398   1_554 S
C440   F494    1.358   .     S
C440   C1022   1.398   .     S
C441   C446    1.401   .     A
C441   H475    1.083   .     S
C442   C445    1.401   .     A
C442   H476    1.083   .     S
C442   C72     1.384   1_565 S
C443   H477    1.083   .     S
C443   C69     1.384   1_565 S
C443   C507    1.401   .     S
C444   H478    1.083   .     S
C446   C506    1.401   .     S
C447   C449    1.417   .     A
C447   H479    1.082   .     S
C447   N484    1.368   .     A
C448   H480    1.082   .     S
C448   C450    1.417   .     A
C448   N483    1.368   .     A
C449   H481    1.082   .     S
C449   N483    1.367   .     A
C450   H482    1.082   .     S
C450   N484    1.367   .     A
C451   C453    1.465   .     S
C451   O491    1.294   .     A
C451   O551    1.296   .     S
C452   C454    1.468   .     S
C452   O492    1.295   .     A
C453   C457    1.396   .     A
C453   C459    1.395   .     A
C454   C458    1.397   .     A
C454   C460    1.397   .     A
C455   C457    1.392   .     A
C455   C463    1.412   .     A
C455   F557    1.358   .     S
C456   C458    1.392   .     A
C456   C464    1.411   .     A
C457   H534    1.083   .     S
C459   H470    1.076   .     S
C459   C461    1.406   .     A
C460   C462    1.406   .     A
C460   H469    1.075   .     S
C461   C463    1.422   .     A
C461   C465    1.428   .     A
C462   C464    1.422   .     A
C462   C466    1.428   .     A
C463   C997    1.398   .     S
C464   C998    1.398   1_554 S
C465   C1024   1.421   .     S
C466   C1023   1.421   1_554 S
Cu467  O489    1.955   .     S
Cu467  O492    1.942   .     S
Cu467  N483    2.013   .     S
Cu467  O488    1.965   .     S
Cu467  O485    1.965   .     S
Cu468  O491    1.942   .     S
Cu468  O490    1.955   .     S
Cu468  N484    2.013   .     S
Cu468  O487    1.965   .     S
Cu468  O486    1.965   .     S
Cu468  Cu529   2.679   .     S
H471   C520    1.083   .     S
O486   C498    1.292   .     S
O490   C514    1.296   .     S
F496   C518    1.358   .     S
C497   C508    1.450   .     S
C497   O549    1.292   .     A
C497   O423    1.292   1_655 S
C498   C507    1.450   .     S
C498   O550    1.292   .     A
C499   C501    1.387   .     A
C499   H535    1.076   .     S
C499   C528    1.415   .     A
C500   C502    1.387   .     A
C500   C527    1.415   .     A
C500   H536    1.076   .     S
C501   F555    1.359   .     S
C501   C1083   1.398   1_554 S
C502   F556    1.358   .     S
C502   C1084   1.398   .     S
C503   C508    1.401   .     A
C503   H537    1.083   .     S
C504   C507    1.401   .     A
C504   H538    1.083   .     S
C504   C134    1.384   1_565 S
C505   H539    1.083   .     S
C505   C131    1.384   1_565 S
C505   C383    1.401   1_655 S
C506   H540    1.083   .     S
C508   C382    1.401   1_655 S
C509   C511    1.417   .     A
C509   H541    1.082   .     S
C509   N546    1.368   .     A
C510   H542    1.082   .     S
C510   C512    1.417   .     A
C510   N545    1.368   .     A
C511   H543    1.082   .     S
C511   N545    1.367   .     A
C512   H544    1.082   .     S
C512   N546    1.367   .     A
C513   C515    1.465   .     S
C513   O553    1.294   .     A
C513   O427    1.296   1_655 S
C514   C516    1.468   .     S
C514   O554    1.295   .     A
C515   C519    1.396   .     A
C515   C521    1.395   .     A
C516   C520    1.397   .     A
C516   C522    1.397   .     A
C517   C519    1.392   .     A
C517   C525    1.412   .     A
C517   F433    1.358   1_655 S
C518   C520    1.392   .     A
C518   C526    1.411   .     A
C519   H410    1.083   1_655 S
C521   H532    1.076   .     S
C521   C523    1.406   .     A
C522   C524    1.406   .     A
C522   H531    1.075   .     S
C523   C525    1.422   .     A
C523   C527    1.428   .     A
C524   C526    1.422   .     A
C524   C528    1.428   .     A
C525   C1059   1.398   .     S
C526   C1060   1.398   1_554 S
C527   C1086   1.421   .     S
C528   C1085   1.421   1_554 S
Cu529  O551    1.955   .     S
Cu529  O554    1.942   .     S
Cu529  N545    2.013   .     S
Cu529  O550    1.965   .     S
Cu529  O547    1.965   .     S
Cu530  O553    1.942   .     S
Cu530  O552    1.955   .     S
Cu530  N546    2.013   .     S
Cu530  O549    1.965   .     S
Cu530  O548    1.965   .     S
Cu530  Cu405   2.679   1_655 S
H533   C396    1.083   1_655 S
O548   C374    1.292   1_655 S
O552   C390    1.296   1_655 S
F558   C394    1.358   1_655 S
C559   C570    1.450   .     S
C559   O611    1.292   .     A
C559   O671    1.292   .     S
C560   C569    1.450   .     S
C560   O612    1.292   .     A
C560   O734    1.292   1_455 S
C561   C563    1.387   .     A
C561   H597    1.076   .     S
C561   C590    1.415   .     A
C562   C564    1.387   .     A
C562   C589    1.415   .     A
C562   H598    1.076   .     S
C563   F617    1.359   .     S
C564   F618    1.358   .     S
C564   C30     1.398   1_556 S
C565   C570    1.401   .     A
C565   H599    1.083   .     S
C565   C939    1.384   1_545 S
C566   C569    1.401   .     A
C566   H600    1.083   .     S
C566   C754    1.384   .     S
C567   H601    1.083   .     S
C567   C751    1.384   .     S
C567   C631    1.401   .     S
C568   H602    1.083   .     S
C568   C938    1.384   1_545 S
C568   C694    1.401   1_455 S
C569   C691    1.401   1_455 S
C570   C630    1.401   .     S
C571   C573    1.417   .     A
C571   H603    1.082   .     S
C571   N608    1.368   .     A
C572   H604    1.082   .     S
C572   C574    1.417   .     A
C572   N607    1.368   .     A
C573   H605    1.082   .     S
C573   N607    1.367   .     A
C574   H606    1.082   .     S
C574   N608    1.367   .     A
C575   C577    1.465   .     S
C575   O615    1.294   .     A
C575   O675    1.296   .     S
C576   C578    1.468   .     S
C576   O616    1.295   .     A
C576   O738    1.296   1_455 S
C577   C581    1.396   .     A
C577   C583    1.395   .     A
C578   C582    1.397   .     A
C578   C584    1.397   .     A
C579   C581    1.392   .     A
C579   C587    1.412   .     A
C579   F681    1.358   .     S
C580   C582    1.392   .     A
C580   C588    1.411   .     A
C580   F744    1.358   1_455 S
C581   H658    1.083   .     S
C582   H719    1.083   1_455 S
C583   H594    1.076   .     S
C583   C585    1.406   .     A
C584   C586    1.406   .     A
C584   H593    1.075   .     S
C585   C587    1.422   .     A
C585   C589    1.428   .     A
C586   C588    1.422   .     A
C586   C590    1.428   .     A
C587   C5      1.398   1_556 S
C589   C32     1.421   1_556 S
Cu591  O613    1.955   .     S
Cu591  O616    1.942   .     S
Cu591  N607    2.013   .     S
Cu591  O612    1.965   .     S
Cu591  O609    1.965   .     S
Cu591  Cu716   2.679   1_455 S
Cu592  O615    1.942   .     S
Cu592  O614    1.955   .     S
Cu592  N608    2.013   .     S
Cu592  O611    1.965   .     S
Cu592  O610    1.965   .     S
Cu592  Cu653   2.679   .     S
H595   C644    1.083   .     S
H596   C705    1.083   1_455 S
O609   C683    1.292   1_455 S
O610   C622    1.292   .     S
O613   C699    1.296   1_455 S
O614   C638    1.296   .     S
F619   C703    1.358   1_455 S
F620   C642    1.358   .     S
C621   C632    1.450   .     S
C621   O673    1.292   .     A
C621   O733    1.292   .     S
C622   C631    1.450   .     S
C622   O674    1.292   .     A
C623   C625    1.387   .     A
C623   H659    1.076   .     S
C623   C652    1.415   .     A
C624   C626    1.387   .     A
C624   C651    1.415   .     A
C624   H660    1.076   .     S
C625   F679    1.359   .     S
C626   F680    1.358   .     S
C626   C92     1.398   1_556 S
C627   C632    1.401   .     A
C627   H661    1.083   .     S
C627   C1001   1.384   1_545 S
C628   C631    1.401   .     A
C628   H662    1.083   .     S
C628   C816    1.384   .     S
C629   H663    1.083   .     S
C629   C813    1.384   .     S
C629   C693    1.401   .     S
C630   H664    1.083   .     S
C630   C1000   1.384   1_545 S
C632   C692    1.401   .     S
C633   C635    1.417   .     A
C633   H665    1.082   .     S
C633   N670    1.368   .     A
C634   H666    1.082   .     S
C634   C636    1.417   .     A
C634   N669    1.368   .     A
C635   H667    1.082   .     S
C635   N669    1.367   .     A
C636   H668    1.082   .     S
C636   N670    1.367   .     A
C637   C639    1.465   .     S
C637   O677    1.294   .     A
C637   O737    1.296   .     S
C638   C640    1.468   .     S
C638   O678    1.295   .     A
C639   C643    1.396   .     A
C639   C645    1.395   .     A
C640   C644    1.397   .     A
C640   C646    1.397   .     A
C641   C643    1.392   .     A
C641   C649    1.412   .     A
C641   F743    1.358   .     S
C642   C644    1.392   .     A
C642   C650    1.411   .     A
C643   H720    1.083   .     S
C645   H656    1.076   .     S
C645   C647    1.406   .     A
C646   C648    1.406   .     A
C646   H655    1.075   .     S
C647   C649    1.422   .     A
C647   C651    1.428   .     A
C648   C650    1.422   .     A
C648   C652    1.428   .     A
C649   C67     1.398   1_556 S
C651   C94     1.421   1_556 S
Cu653  O675    1.955   .     S
Cu653  O678    1.942   .     S
Cu653  N669    2.013   .     S
Cu653  O674    1.965   .     S
Cu653  O671    1.965   .     S
Cu654  O677    1.942   .     S
Cu654  O676    1.955   .     S
Cu654  N670    2.013   .     S
Cu654  O673    1.965   .     S
Cu654  O672    1.965   .     S
Cu654  Cu715   2.679   .     S
H657   C706    1.083   .     S
O672   C684    1.292   .     S
O676   C700    1.296   .     S
F682   C704    1.358   .     S
C683   C694    1.450   .     S
C683   O735    1.292   .     A
C683   O609    1.292   1_655 S
C684   C693    1.450   .     S
C684   O736    1.292   .     A
C685   C687    1.387   .     A
C685   H721    1.076   .     S
C685   C714    1.415   .     A
C686   C688    1.387   .     A
C686   C713    1.415   .     A
C686   H722    1.076   .     S
C687   F741    1.359   .     S
C688   F742    1.358   .     S
C688   C154    1.398   1_556 S
C689   C694    1.401   .     A
C689   H723    1.083   .     S
C689   C1063   1.384   1_545 S
C690   C693    1.401   .     A
C690   H724    1.083   .     S
C690   C878    1.384   .     S
C691   H725    1.083   .     S
C691   C875    1.384   .     S
C691   C569    1.401   1_655 S
C692   H726    1.083   .     S
C692   C1062   1.384   1_545 S
C694   C568    1.401   1_655 S
C695   C697    1.417   .     A
C695   H727    1.082   .     S
C695   N732    1.368   .     A
C696   H728    1.082   .     S
C696   C698    1.417   .     A
C696   N731    1.368   .     A
C697   H729    1.082   .     S
C697   N731    1.367   .     A
C698   H730    1.082   .     S
C698   N732    1.367   .     A
C699   C701    1.465   .     S
C699   O739    1.294   .     A
C699   O613    1.296   1_655 S
C700   C702    1.468   .     S
C700   O740    1.295   .     A
C701   C705    1.396   .     A
C701   C707    1.395   .     A
C702   C706    1.397   .     A
C702   C708    1.397   .     A
C703   C705    1.392   .     A
C703   C711    1.412   .     A
C703   F619    1.358   1_655 S
C704   C706    1.392   .     A
C704   C712    1.411   .     A
C705   H596    1.083   1_655 S
C707   H718    1.076   .     S
C707   C709    1.406   .     A
C708   C710    1.406   .     A
C708   H717    1.075   .     S
C709   C711    1.422   .     A
C709   C713    1.428   .     A
C710   C712    1.422   .     A
C710   C714    1.428   .     A
C711   C129    1.398   1_556 S
C713   C156    1.421   1_556 S
Cu715  O737    1.955   .     S
Cu715  O740    1.942   .     S
Cu715  N731    2.013   .     S
Cu715  O736    1.965   .     S
Cu715  O733    1.965   .     S
Cu716  O739    1.942   .     S
Cu716  O738    1.955   .     S
Cu716  N732    2.013   .     S
Cu716  O735    1.965   .     S
Cu716  O734    1.965   .     S
Cu716  Cu591   2.679   1_655 S
H719   C582    1.083   1_655 S
O734   C560    1.292   1_655 S
O738   C576    1.296   1_655 S
F744   C580    1.358   1_655 S
C745   C756    1.450   .     S
C745   O797    1.292   .     A
C745   O857    1.292   .     S
C746   C755    1.450   .     S
C746   O798    1.292   .     A
C746   O920    1.292   1_455 S
C747   C749    1.387   .     A
C747   H783    1.076   .     S
C747   C776    1.415   .     A
C748   C750    1.387   .     A
C748   C775    1.415   .     A
C748   H784    1.076   .     S
C749   F803    1.359   .     S
C750   F804    1.358   .     S
C750   C216    1.398   1_556 S
C751   C756    1.401   .     A
C751   H785    1.083   .     S
C752   C755    1.401   .     A
C752   H786    1.083   .     S
C752   C940    1.384   .     S
C753   H787    1.083   .     S
C753   C937    1.384   .     S
C753   C817    1.401   .     S
C754   H788    1.083   .     S
C754   C880    1.401   1_455 S
C755   C877    1.401   1_455 S
C756   C816    1.401   .     S
C757   C759    1.417   .     A
C757   H789    1.082   .     S
C757   N794    1.368   .     A
C758   H790    1.082   .     S
C758   C760    1.417   .     A
C758   N793    1.368   .     A
C759   H791    1.082   .     S
C759   N793    1.367   .     A
C760   H792    1.082   .     S
C760   N794    1.367   .     A
C761   C763    1.465   .     S
C761   O801    1.294   .     A
C761   O861    1.296   .     S
C762   C764    1.468   .     S
C762   O802    1.295   .     A
C762   O924    1.296   1_455 S
C763   C767    1.396   .     A
C763   C769    1.395   .     A
C764   C768    1.397   .     A
C764   C770    1.397   .     A
C765   C767    1.392   .     A
C765   C773    1.412   .     A
C765   F867    1.358   .     S
C766   C768    1.392   .     A
C766   C774    1.411   .     A
C766   F930    1.358   1_455 S
C767   H844    1.083   .     S
C768   H905    1.083   1_455 S
C769   H780    1.076   .     S
C769   C771    1.406   .     A
C770   C772    1.406   .     A
C770   H779    1.075   .     S
C771   C773    1.422   .     A
C771   C775    1.428   .     A
C772   C774    1.422   .     A
C772   C776    1.428   .     A
C773   C191    1.398   1_556 S
C775   C218    1.421   1_556 S
Cu777  O799    1.955   .     S
Cu777  O802    1.942   .     S
Cu777  N793    2.013   .     S
Cu777  O798    1.965   .     S
Cu777  O795    1.965   .     S
Cu777  Cu902   2.679   1_455 S
Cu778  O801    1.942   .     S
Cu778  O800    1.955   .     S
Cu778  N794    2.013   .     S
Cu778  O797    1.965   .     S
Cu778  O796    1.965   .     S
Cu778  Cu839   2.679   .     S
H781   C830    1.083   .     S
H782   C891    1.083   1_455 S
O795   C869    1.292   1_455 S
O796   C808    1.292   .     S
O799   C885    1.296   1_455 S
O800   C824    1.296   .     S
F805   C889    1.358   1_455 S
F806   C828    1.358   .     S
C807   C818    1.450   .     S
C807   O859    1.292   .     A
C807   O919    1.292   .     S
C808   C817    1.450   .     S
C808   O860    1.292   .     A
C809   C811    1.387   .     A
C809   H845    1.076   .     S
C809   C838    1.415   .     A
C810   C812    1.387   .     A
C810   C837    1.415   .     A
C810   H846    1.076   .     S
C811   F865    1.359   .     S
C812   F866    1.358   .     S
C812   C278    1.398   1_556 S
C813   C818    1.401   .     A
C813   H847    1.083   .     S
C814   C817    1.401   .     A
C814   H848    1.083   .     S
C814   C1002   1.384   .     S
C815   H849    1.083   .     S
C815   C999    1.384   .     S
C815   C879    1.401   .     S
C816   H850    1.083   .     S
C818   C878    1.401   .     S
C819   C821    1.417   .     A
C819   H851    1.082   .     S
C819   N856    1.368   .     A
C820   H852    1.082   .     S
C820   C822    1.417   .     A
C820   N855    1.368   .     A
C821   H853    1.082   .     S
C821   N855    1.367   .     A
C822   H854    1.082   .     S
C822   N856    1.367   .     A
C823   C825    1.465   .     S
C823   O863    1.294   .     A
C823   O923    1.296   .     S
C824   C826    1.468   .     S
C824   O864    1.295   .     A
C825   C829    1.396   .     A
C825   C831    1.395   .     A
C826   C830    1.397   .     A
C826   C832    1.397   .     A
C827   C829    1.392   .     A
C827   C835    1.412   .     A
C827   F929    1.358   .     S
C828   C830    1.392   .     A
C828   C836    1.411   .     A
C829   H906    1.083   .     S
C831   H842    1.076   .     S
C831   C833    1.406   .     A
C832   C834    1.406   .     A
C832   H841    1.075   .     S
C833   C835    1.422   .     A
C833   C837    1.428   .     A
C834   C836    1.422   .     A
C834   C838    1.428   .     A
C835   C253    1.398   1_556 S
C837   C280    1.421   1_556 S
Cu839  O861    1.955   .     S
Cu839  O864    1.942   .     S
Cu839  N855    2.013   .     S
Cu839  O860    1.965   .     S
Cu839  O857    1.965   .     S
Cu840  O863    1.942   .     S
Cu840  O862    1.955   .     S
Cu840  N856    2.013   .     S
Cu840  O859    1.965   .     S
Cu840  O858    1.965   .     S
Cu840  Cu901   2.679   .     S
H843   C892    1.083   .     S
O858   C870    1.292   .     S
O862   C886    1.296   .     S
F868   C890    1.358   .     S
C869   C880    1.450   .     S
C869   O921    1.292   .     A
C869   O795    1.292   1_655 S
C870   C879    1.450   .     S
C870   O922    1.292   .     A
C871   C873    1.387   .     A
C871   H907    1.076   .     S
C871   C900    1.415   .     A
C872   C874    1.387   .     A
C872   C899    1.415   .     A
C872   H908    1.076   .     S
C873   F927    1.359   .     S
C874   F928    1.358   .     S
C874   C340    1.398   1_556 S
C875   C880    1.401   .     A
C875   H909    1.083   .     S
C876   C879    1.401   .     A
C876   H910    1.083   .     S
C876   C1064   1.384   .     S
C877   H911    1.083   .     S
C877   C1061   1.384   .     S
C877   C755    1.401   1_655 S
C878   H912    1.083   .     S
C880   C754    1.401   1_655 S
C881   C883    1.417   .     A
C881   H913    1.082   .     S
C881   N918    1.368   .     A
C882   H914    1.082   .     S
C882   C884    1.417   .     A
C882   N917    1.368   .     A
C883   H915    1.082   .     S
C883   N917    1.367   .     A
C884   H916    1.082   .     S
C884   N918    1.367   .     A
C885   C887    1.465   .     S
C885   O925    1.294   .     A
C885   O799    1.296   1_655 S
C886   C888    1.468   .     S
C886   O926    1.295   .     A
C887   C891    1.396   .     A
C887   C893    1.395   .     A
C888   C892    1.397   .     A
C888   C894    1.397   .     A
C889   C891    1.392   .     A
C889   C897    1.412   .     A
C889   F805    1.358   1_655 S
C890   C892    1.392   .     A
C890   C898    1.411   .     A
C891   H782    1.083   1_655 S
C893   H904    1.076   .     S
C893   C895    1.406   .     A
C894   C896    1.406   .     A
C894   H903    1.075   .     S
C895   C897    1.422   .     A
C895   C899    1.428   .     A
C896   C898    1.422   .     A
C896   C900    1.428   .     A
C897   C315    1.398   1_556 S
C899   C342    1.421   1_556 S
Cu901  O923    1.955   .     S
Cu901  O926    1.942   .     S
Cu901  N917    2.013   .     S
Cu901  O922    1.965   .     S
Cu901  O919    1.965   .     S
Cu902  O925    1.942   .     S
Cu902  O924    1.955   .     S
Cu902  N918    2.013   .     S
Cu902  O921    1.965   .     S
Cu902  O920    1.965   .     S
Cu902  Cu777   2.679   1_655 S
H905   C768    1.083   1_655 S
O920   C746    1.292   1_655 S
O924   C762    1.296   1_655 S
F930   C766    1.358   1_655 S
C931   C942    1.450   .     S
C931   O983    1.292   .     A
C931   O1043   1.292   .     S
C932   C941    1.450   .     S
C932   O984    1.292   .     A
C932   O1106   1.292   1_455 S
C933   C935    1.387   .     A
C933   H969    1.076   .     S
C933   C962    1.415   .     A
C934   C936    1.387   .     A
C934   C961    1.415   .     A
C934   H970    1.076   .     S
C935   F989    1.359   .     S
C936   F990    1.358   .     S
C936   C402    1.398   1_556 S
C937   C942    1.401   .     A
C937   H971    1.083   .     S
C938   C941    1.401   .     A
C938   H972    1.083   .     S
C938   C568    1.384   1_565 S
C939   H973    1.083   .     S
C939   C565    1.384   1_565 S
C939   C1003   1.401   .     S
C940   H974    1.083   .     S
C940   C1066   1.401   1_455 S
C941   C1063   1.401   1_455 S
C942   C1002   1.401   .     S
C943   C945    1.417   .     A
C943   H975    1.082   .     S
C943   N980    1.368   .     A
C944   H976    1.082   .     S
C944   C946    1.417   .     A
C944   N979    1.368   .     A
C945   H977    1.082   .     S
C945   N979    1.367   .     A
C946   H978    1.082   .     S
C946   N980    1.367   .     A
C947   C949    1.465   .     S
C947   O987    1.294   .     A
C947   O1047   1.296   .     S
C948   C950    1.468   .     S
C948   O988    1.295   .     A
C948   O1110   1.296   1_455 S
C949   C953    1.396   .     A
C949   C955    1.395   .     A
C950   C954    1.397   .     A
C950   C956    1.397   .     A
C951   C953    1.392   .     A
C951   C959    1.412   .     A
C951   F1053   1.358   .     S
C952   C954    1.392   .     A
C952   C960    1.411   .     A
C952   F1116   1.358   1_455 S
C953   H1030   1.083   .     S
C954   H1091   1.083   1_455 S
C955   H966    1.076   .     S
C955   C957    1.406   .     A
C956   C958    1.406   .     A
C956   H965    1.075   .     S
C957   C959    1.422   .     A
C957   C961    1.428   .     A
C958   C960    1.422   .     A
C958   C962    1.428   .     A
C959   C377    1.398   1_556 S
C961   C404    1.421   1_556 S
Cu963  O985    1.955   .     S
Cu963  O988    1.942   .     S
Cu963  N979    2.013   .     S
Cu963  O984    1.965   .     S
Cu963  O981    1.965   .     S
Cu963  Cu1088  2.679   1_455 S
Cu964  O987    1.942   .     S
Cu964  O986    1.955   .     S
Cu964  N980    2.013   .     S
Cu964  O983    1.965   .     S
Cu964  O982    1.965   .     S
Cu964  Cu1025  2.679   .     S
H967   C1016   1.083   .     S
H968   C1077   1.083   1_455 S
O981   C1055   1.292   1_455 S
O982   C994    1.292   .     S
O985   C1071   1.296   1_455 S
O986   C1010   1.296   .     S
F991   C1075   1.358   1_455 S
F992   C1014   1.358   .     S
C993   C1004   1.450   .     S
C993   O1045   1.292   .     A
C993   O1105   1.292   .     S
C994   C1003   1.450   .     S
C994   O1046   1.292   .     A
C995   C997    1.387   .     A
C995   H1031   1.076   .     S
C995   C1024   1.415   .     A
C996   C998    1.387   .     A
C996   C1023   1.415   .     A
C996   H1032   1.076   .     S
C997   F1051   1.359   .     S
C998   F1052   1.358   .     S
C998   C464    1.398   1_556 S
C999   C1004   1.401   .     A
C999   H1033   1.083   .     S
C1000  C1003   1.401   .     A
C1000  H1034   1.083   .     S
C1000  C630    1.384   1_565 S
C1001  H1035   1.083   .     S
C1001  C627    1.384   1_565 S
C1001  C1065   1.401   .     S
C1002  H1036   1.083   .     S
C1004  C1064   1.401   .     S
C1005  C1007   1.417   .     A
C1005  H1037   1.082   .     S
C1005  N1042   1.368   .     A
C1006  H1038   1.082   .     S
C1006  C1008   1.417   .     A
C1006  N1041   1.368   .     A
C1007  H1039   1.082   .     S
C1007  N1041   1.367   .     A
C1008  H1040   1.082   .     S
C1008  N1042   1.367   .     A
C1009  C1011   1.465   .     S
C1009  O1049   1.294   .     A
C1009  O1109   1.296   .     S
C1010  C1012   1.468   .     S
C1010  O1050   1.295   .     A
C1011  C1015   1.396   .     A
C1011  C1017   1.395   .     A
C1012  C1016   1.397   .     A
C1012  C1018   1.397   .     A
C1013  C1015   1.392   .     A
C1013  C1021   1.412   .     A
C1013  F1115   1.358   .     S
C1014  C1016   1.392   .     A
C1014  C1022   1.411   .     A
C1015  H1092   1.083   .     S
C1017  H1028   1.076   .     S
C1017  C1019   1.406   .     A
C1018  C1020   1.406   .     A
C1018  H1027   1.075   .     S
C1019  C1021   1.422   .     A
C1019  C1023   1.428   .     A
C1020  C1022   1.422   .     A
C1020  C1024   1.428   .     A
C1021  C439    1.398   1_556 S
C1023  C466    1.421   1_556 S
Cu1025 O1047   1.955   .     S
Cu1025 O1050   1.942   .     S
Cu1025 N1041   2.013   .     S
Cu1025 O1046   1.965   .     S
Cu1025 O1043   1.965   .     S
Cu1026 O1049   1.942   .     S
Cu1026 O1048   1.955   .     S
Cu1026 N1042   2.013   .     S
Cu1026 O1045   1.965   .     S
Cu1026 O1044   1.965   .     S
Cu1026 Cu1087  2.679   .     S
H1029  C1078   1.083   .     S
O1044  C1056   1.292   .     S
O1048  C1072   1.296   .     S
F1054  C1076   1.358   .     S
C1055  C1066   1.450   .     S
C1055  O1107   1.292   .     A
C1055  O981    1.292   1_655 S
C1056  C1065   1.450   .     S
C1056  O1108   1.292   .     A
C1057  C1059   1.387   .     A
C1057  H1093   1.076   .     S
C1057  C1086   1.415   .     A
C1058  C1060   1.387   .     A
C1058  C1085   1.415   .     A
C1058  H1094   1.076   .     S
C1059  F1113   1.359   .     S
C1060  F1114   1.358   .     S
C1060  C526    1.398   1_556 S
C1061  C1066   1.401   .     A
C1061  H1095   1.083   .     S
C1062  C1065   1.401   .     A
C1062  H1096   1.083   .     S
C1062  C692    1.384   1_565 S
C1063  H1097   1.083   .     S
C1063  C689    1.384   1_565 S
C1063  C941    1.401   1_655 S
C1064  H1098   1.083   .     S
C1066  C940    1.401   1_655 S
C1067  C1069   1.417   .     A
C1067  H1099   1.082   .     S
C1067  N1104   1.368   .     A
C1068  H1100   1.082   .     S
C1068  C1070   1.417   .     A
C1068  N1103   1.368   .     A
C1069  H1101   1.082   .     S
C1069  N1103   1.367   .     A
C1070  H1102   1.082   .     S
C1070  N1104   1.367   .     A
C1071  C1073   1.465   .     S
C1071  O1111   1.294   .     A
C1071  O985    1.296   1_655 S
C1072  C1074   1.468   .     S
C1072  O1112   1.295   .     A
C1073  C1077   1.396   .     A
C1073  C1079   1.395   .     A
C1074  C1078   1.397   .     A
C1074  C1080   1.397   .     A
C1075  C1077   1.392   .     A
C1075  C1083   1.412   .     A
C1075  F991    1.358   1_655 S
C1076  C1078   1.392   .     A
C1076  C1084   1.411   .     A
C1077  H968    1.083   1_655 S
C1079  H1090   1.076   .     S
C1079  C1081   1.406   .     A
C1080  C1082   1.406   .     A
C1080  H1089   1.075   .     S
C1081  C1083   1.422   .     A
C1081  C1085   1.428   .     A
C1082  C1084   1.422   .     A
C1082  C1086   1.428   .     A
C1083  C501    1.398   1_556 S
C1085  C528    1.421   1_556 S
Cu1087 O1109   1.955   .     S
Cu1087 O1112   1.942   .     S
Cu1087 N1103   2.013   .     S
Cu1087 O1108   1.965   .     S
Cu1087 O1105   1.965   .     S
Cu1088 O1111   1.942   .     S
Cu1088 O1110   1.955   .     S
Cu1088 N1104   2.013   .     S
Cu1088 O1107   1.965   .     S
Cu1088 O1106   1.965   .     S
Cu1088 Cu963   2.679   1_655 S
H1091  C954    1.083   1_655 S
O1106  C932    1.292   1_655 S
O1110  C948    1.296   1_655 S
F1116  C952    1.358   1_655 S
