data_str_m3_o1_o10_pcu_sym.18
_audit_creation_date              2020-01-03
_audit_creation_method            'Materials Studio'
_symmetry_space_group_name_H-M    'P1'
_symmetry_Int_Tables_number       1
_symmetry_cell_setting            triclinic
loop_
_symmetry_equiv_pos_as_xyz
  x,y,z
_cell_length_a                    25.7848
_cell_length_b                    32.0337
_cell_length_c                    29.5677
_cell_angle_alpha                 90.1570
_cell_angle_beta                  98.6240
_cell_angle_gamma                 90.2027
loop_
_atom_site_label
_atom_site_type_symbol
_atom_site_fract_x
_atom_site_fract_y
_atom_site_fract_z
_atom_site_U_iso_or_equiv
_atom_site_adp_type
_atom_site_occupancy
O1     O     0.16666   0.10558   0.20487   0.00000  Uiso   1.00
O2     O     0.16667   0.22775   0.12846   0.00000  Uiso   1.00
O3     O     0.16666   0.10559   0.12843   0.00000  Uiso   1.00
O4     O     0.16667   0.22774   0.20490   0.00000  Uiso   1.00
C5     C     0.16642   0.08677   0.16654   0.00000  Uiso   1.00
C6     C     0.16692   0.24656   0.16679   0.00000  Uiso   1.00
O7     O     0.09058   0.16666   0.19595   0.00000  Uiso   1.00
O8     O     0.24275   0.16667   0.13739   0.00000  Uiso   1.00
O9     O     0.09058   0.16667   0.11950   0.00000  Uiso   1.00
O10    O     0.24275   0.16666   0.21383   0.00000  Uiso   1.00
C11    C     0.06704   0.16673   0.15470   0.00000  Uiso   1.00
C12    C     0.26629   0.16661   0.17864   0.00000  Uiso   1.00
Zn13   Zn    0.16667   0.16666   0.21771   0.00000  Uiso   1.00
Zn14   Zn    0.16667   0.16667   0.11563   0.00000  Uiso   1.00
N15    N     0.16665   0.16666   0.28573   0.00000  Uiso   1.00
N16    N     0.16668   0.16668   0.04760   0.00000  Uiso   1.00
C17    C     0.01200   0.16675   0.14826   0.00000  Uiso   1.00
C18    C     0.32133   0.16658   0.18507   0.00000  Uiso   1.00
H19    H     0.32471   0.16690   0.11335   0.00000  Uiso   1.00
H20    H     0.00862   0.16644   0.21998   0.00000  Uiso   1.00
C21    C     0.20274   0.02172   0.14384   0.00000  Uiso   1.00
C22    C     0.13059   0.31162   0.18950   0.00000  Uiso   1.00
C23    C     0.20354   0.31189   0.14436   0.00000  Uiso   1.00
C24    C     0.12980   0.02144   0.18897   0.00000  Uiso   1.00
C25    C     0.16725   0.29072   0.16708   0.00000  Uiso   1.00
C26    C     0.16609   0.04262   0.16626   0.00000  Uiso   1.00
C27    C     0.20118   0.19108   0.02854   0.00000  Uiso   1.00
C28    C     0.13216   0.14225   0.30479   0.00000  Uiso   1.00
H29    H     0.22883   0.21057   0.05033   0.00000  Uiso   1.00
H30    H     0.10451   0.12277   0.28300   0.00000  Uiso   1.00
C31    C     0.20114   0.19109   0.31394   0.00000  Uiso   1.00
C32    C     0.13219   0.14224   0.01940   0.00000  Uiso   1.00
H33    H     0.22871   0.21064   0.29946   0.00000  Uiso   1.00
H34    H     0.10462   0.12269   0.03387   0.00000  Uiso   1.00
N35    N     0.24163   0.04435   0.12376   0.00000  Uiso   1.00
O36    O     0.27744   0.06577   0.14969   0.00000  Uiso   1.00
O37    O     0.23702   0.04811   0.07954   0.00000  Uiso   1.00
N38    N     0.09171   0.28899   0.20958   0.00000  Uiso   1.00
O39    O     0.05588   0.26758   0.18365   0.00000  Uiso   1.00
O40    O     0.09635   0.28520   0.25380   0.00000  Uiso   1.00
N41    N     0.24317   0.28975   0.12467   0.00000  Uiso   1.00
O42    O     0.24830   0.29522   0.08198   0.00000  Uiso   1.00
O43    O     0.27407   0.26382   0.14937   0.00000  Uiso   1.00
N44    N     0.09017   0.04358   0.20867   0.00000  Uiso   1.00
O45    O     0.08501   0.03810   0.25135   0.00000  Uiso   1.00
O46    O     0.05927   0.06951   0.18396   0.00000  Uiso   1.00
O47    O     0.50000   0.10558   0.20487   0.00000  Uiso   1.00
O48    O     0.50000   0.22775   0.12846   0.00000  Uiso   1.00
O49    O     0.50000   0.10559   0.12843   0.00000  Uiso   1.00
O50    O     0.50000   0.22774   0.20490   0.00000  Uiso   1.00
C51    C     0.49975   0.08677   0.16654   0.00000  Uiso   1.00
C52    C     0.50025   0.24656   0.16679   0.00000  Uiso   1.00
O53    O     0.42392   0.16666   0.19595   0.00000  Uiso   1.00
O54    O     0.57608   0.16667   0.13739   0.00000  Uiso   1.00
O55    O     0.42392   0.16667   0.11950   0.00000  Uiso   1.00
O56    O     0.57608   0.16666   0.21383   0.00000  Uiso   1.00
C57    C     0.40038   0.16673   0.15470   0.00000  Uiso   1.00
C58    C     0.59963   0.16661   0.17864   0.00000  Uiso   1.00
Zn59   Zn    0.50000   0.16666   0.21771   0.00000  Uiso   1.00
Zn60   Zn    0.50000   0.16667   0.11563   0.00000  Uiso   1.00
N61    N     0.49999   0.16666   0.28573   0.00000  Uiso   1.00
N62    N     0.50001   0.16668   0.04760   0.00000  Uiso   1.00
C63    C     0.34534   0.16675   0.14826   0.00000  Uiso   1.00
C64    C     0.65467   0.16658   0.18507   0.00000  Uiso   1.00
H65    H     0.65805   0.16690   0.11335   0.00000  Uiso   1.00
H66    H     0.34195   0.16644   0.21998   0.00000  Uiso   1.00
C67    C     0.53608   0.02172   0.14384   0.00000  Uiso   1.00
C68    C     0.46392   0.31162   0.18950   0.00000  Uiso   1.00
C69    C     0.53687   0.31189   0.14436   0.00000  Uiso   1.00
C70    C     0.46313   0.02144   0.18897   0.00000  Uiso   1.00
C71    C     0.50058   0.29072   0.16708   0.00000  Uiso   1.00
C72    C     0.49942   0.04262   0.16626   0.00000  Uiso   1.00
C73    C     0.53451   0.19108   0.02854   0.00000  Uiso   1.00
C74    C     0.46549   0.14225   0.30479   0.00000  Uiso   1.00
H75    H     0.56216   0.21057   0.05033   0.00000  Uiso   1.00
H76    H     0.43784   0.12277   0.28300   0.00000  Uiso   1.00
C77    C     0.53447   0.19109   0.31394   0.00000  Uiso   1.00
C78    C     0.46553   0.14224   0.01940   0.00000  Uiso   1.00
H79    H     0.56204   0.21064   0.29946   0.00000  Uiso   1.00
H80    H     0.43796   0.12269   0.03387   0.00000  Uiso   1.00
N81    N     0.57496   0.04435   0.12376   0.00000  Uiso   1.00
O82    O     0.61077   0.06577   0.14969   0.00000  Uiso   1.00
O83    O     0.57035   0.04811   0.07954   0.00000  Uiso   1.00
N84    N     0.42504   0.28899   0.20958   0.00000  Uiso   1.00
O85    O     0.38921   0.26758   0.18365   0.00000  Uiso   1.00
O86    O     0.42968   0.28520   0.25380   0.00000  Uiso   1.00
N87    N     0.57650   0.28975   0.12467   0.00000  Uiso   1.00
O88    O     0.58164   0.29522   0.08198   0.00000  Uiso   1.00
O89    O     0.60740   0.26382   0.14937   0.00000  Uiso   1.00
N90    N     0.42350   0.04358   0.20867   0.00000  Uiso   1.00
O91    O     0.41835   0.03810   0.25135   0.00000  Uiso   1.00
O92    O     0.39260   0.06951   0.18396   0.00000  Uiso   1.00
O93    O     0.83333   0.10558   0.20487   0.00000  Uiso   1.00
O94    O     0.83334   0.22775   0.12846   0.00000  Uiso   1.00
O95    O     0.83333   0.10559   0.12843   0.00000  Uiso   1.00
O96    O     0.83334   0.22774   0.20490   0.00000  Uiso   1.00
C97    C     0.83308   0.08677   0.16654   0.00000  Uiso   1.00
C98    C     0.83358   0.24656   0.16679   0.00000  Uiso   1.00
O99    O     0.75725   0.16666   0.19595   0.00000  Uiso   1.00
O100   O     0.90942   0.16667   0.13739   0.00000  Uiso   1.00
O101   O     0.75725   0.16667   0.11950   0.00000  Uiso   1.00
O102   O     0.90942   0.16666   0.21383   0.00000  Uiso   1.00
C103   C     0.73371   0.16673   0.15470   0.00000  Uiso   1.00
C104   C     0.93296   0.16661   0.17864   0.00000  Uiso   1.00
Zn105  Zn    0.83333   0.16666   0.21771   0.00000  Uiso   1.00
Zn106  Zn    0.83333   0.16667   0.11563   0.00000  Uiso   1.00
N107   N     0.83332   0.16666   0.28573   0.00000  Uiso   1.00
N108   N     0.83335   0.16668   0.04760   0.00000  Uiso   1.00
C109   C     0.67867   0.16675   0.14826   0.00000  Uiso   1.00
C110   C     0.98800   0.16658   0.18507   0.00000  Uiso   1.00
H111   H     0.99138   0.16690   0.11335   0.00000  Uiso   1.00
H112   H     0.67529   0.16644   0.21998   0.00000  Uiso   1.00
C113   C     0.86941   0.02172   0.14384   0.00000  Uiso   1.00
C114   C     0.79726   0.31162   0.18950   0.00000  Uiso   1.00
C115   C     0.87020   0.31189   0.14436   0.00000  Uiso   1.00
C116   C     0.79646   0.02144   0.18897   0.00000  Uiso   1.00
C117   C     0.83392   0.29072   0.16708   0.00000  Uiso   1.00
C118   C     0.83275   0.04262   0.16626   0.00000  Uiso   1.00
C119   C     0.86784   0.19108   0.02854   0.00000  Uiso   1.00
C120   C     0.79882   0.14225   0.30479   0.00000  Uiso   1.00
H121   H     0.89549   0.21057   0.05033   0.00000  Uiso   1.00
H122   H     0.77117   0.12277   0.28300   0.00000  Uiso   1.00
C123   C     0.86781   0.19109   0.31394   0.00000  Uiso   1.00
C124   C     0.79886   0.14224   0.01940   0.00000  Uiso   1.00
H125   H     0.89538   0.21064   0.29946   0.00000  Uiso   1.00
H126   H     0.77129   0.12269   0.03387   0.00000  Uiso   1.00
N127   N     0.90830   0.04435   0.12376   0.00000  Uiso   1.00
O128   O     0.94410   0.06577   0.14969   0.00000  Uiso   1.00
O129   O     0.90368   0.04811   0.07954   0.00000  Uiso   1.00
N130   N     0.75838   0.28899   0.20958   0.00000  Uiso   1.00
O131   O     0.72255   0.26758   0.18365   0.00000  Uiso   1.00
O132   O     0.76301   0.28520   0.25380   0.00000  Uiso   1.00
N133   N     0.90983   0.28975   0.12467   0.00000  Uiso   1.00
O134   O     0.91497   0.29522   0.08198   0.00000  Uiso   1.00
O135   O     0.94073   0.26382   0.14937   0.00000  Uiso   1.00
N136   N     0.75684   0.04358   0.20867   0.00000  Uiso   1.00
O137   O     0.75168   0.03810   0.25135   0.00000  Uiso   1.00
O138   O     0.72593   0.06951   0.18396   0.00000  Uiso   1.00
O139   O     0.16666   0.43892   0.20487   0.00000  Uiso   1.00
O140   O     0.16667   0.56108   0.12846   0.00000  Uiso   1.00
O141   O     0.16666   0.43893   0.12843   0.00000  Uiso   1.00
O142   O     0.16667   0.56107   0.20490   0.00000  Uiso   1.00
C143   C     0.16642   0.42011   0.16654   0.00000  Uiso   1.00
C144   C     0.16692   0.57989   0.16679   0.00000  Uiso   1.00
O145   O     0.09058   0.50000   0.19595   0.00000  Uiso   1.00
O146   O     0.24275   0.50000   0.13739   0.00000  Uiso   1.00
O147   O     0.09058   0.50000   0.11950   0.00000  Uiso   1.00
O148   O     0.24275   0.50000   0.21383   0.00000  Uiso   1.00
C149   C     0.06704   0.50006   0.15470   0.00000  Uiso   1.00
C150   C     0.26629   0.49994   0.17864   0.00000  Uiso   1.00
Zn151  Zn    0.16667   0.49999   0.21771   0.00000  Uiso   1.00
Zn152  Zn    0.16667   0.50001   0.11563   0.00000  Uiso   1.00
N153   N     0.16665   0.49999   0.28573   0.00000  Uiso   1.00
N154   N     0.16668   0.50001   0.04760   0.00000  Uiso   1.00
C155   C     0.01200   0.50008   0.14826   0.00000  Uiso   1.00
C156   C     0.32133   0.49992   0.18507   0.00000  Uiso   1.00
H157   H     0.32471   0.50023   0.11335   0.00000  Uiso   1.00
H158   H     0.00862   0.49977   0.21998   0.00000  Uiso   1.00
C159   C     0.20274   0.35505   0.14384   0.00000  Uiso   1.00
C160   C     0.13059   0.64495   0.18950   0.00000  Uiso   1.00
C161   C     0.20354   0.64523   0.14436   0.00000  Uiso   1.00
C162   C     0.12980   0.35477   0.18897   0.00000  Uiso   1.00
C163   C     0.16725   0.62405   0.16708   0.00000  Uiso   1.00
C164   C     0.16609   0.37595   0.16626   0.00000  Uiso   1.00
C165   C     0.20118   0.52441   0.02854   0.00000  Uiso   1.00
C166   C     0.13216   0.47559   0.30479   0.00000  Uiso   1.00
H167   H     0.22883   0.54390   0.05033   0.00000  Uiso   1.00
H168   H     0.10451   0.45610   0.28300   0.00000  Uiso   1.00
C169   C     0.20114   0.52443   0.31394   0.00000  Uiso   1.00
C170   C     0.13219   0.47557   0.01940   0.00000  Uiso   1.00
H171   H     0.22871   0.54398   0.29946   0.00000  Uiso   1.00
H172   H     0.10462   0.45602   0.03387   0.00000  Uiso   1.00
N173   N     0.24163   0.37768   0.12376   0.00000  Uiso   1.00
O174   O     0.27744   0.39911   0.14969   0.00000  Uiso   1.00
O175   O     0.23702   0.38144   0.07954   0.00000  Uiso   1.00
N176   N     0.09171   0.62232   0.20958   0.00000  Uiso   1.00
O177   O     0.05588   0.60091   0.18365   0.00000  Uiso   1.00
O178   O     0.09635   0.61854   0.25380   0.00000  Uiso   1.00
N179   N     0.24317   0.62308   0.12467   0.00000  Uiso   1.00
O180   O     0.24830   0.62855   0.08198   0.00000  Uiso   1.00
O181   O     0.27407   0.59715   0.14937   0.00000  Uiso   1.00
N182   N     0.09017   0.37692   0.20867   0.00000  Uiso   1.00
O183   O     0.08501   0.37143   0.25135   0.00000  Uiso   1.00
O184   O     0.05927   0.40285   0.18396   0.00000  Uiso   1.00
O185   O     0.50000   0.43892   0.20487   0.00000  Uiso   1.00
O186   O     0.50000   0.56108   0.12846   0.00000  Uiso   1.00
O187   O     0.50000   0.43893   0.12843   0.00000  Uiso   1.00
O188   O     0.50000   0.56107   0.20490   0.00000  Uiso   1.00
C189   C     0.49975   0.42011   0.16654   0.00000  Uiso   1.00
C190   C     0.50025   0.57989   0.16679   0.00000  Uiso   1.00
O191   O     0.42392   0.50000   0.19595   0.00000  Uiso   1.00
O192   O     0.57608   0.50000   0.13739   0.00000  Uiso   1.00
O193   O     0.42392   0.50000   0.11950   0.00000  Uiso   1.00
O194   O     0.57608   0.50000   0.21383   0.00000  Uiso   1.00
C195   C     0.40038   0.50006   0.15470   0.00000  Uiso   1.00
C196   C     0.59963   0.49994   0.17864   0.00000  Uiso   1.00
Zn197  Zn    0.50000   0.49999   0.21771   0.00000  Uiso   1.00
Zn198  Zn    0.50000   0.50001   0.11563   0.00000  Uiso   1.00
N199   N     0.49999   0.49999   0.28573   0.00000  Uiso   1.00
N200   N     0.50001   0.50001   0.04760   0.00000  Uiso   1.00
C201   C     0.34534   0.50008   0.14826   0.00000  Uiso   1.00
C202   C     0.65467   0.49992   0.18507   0.00000  Uiso   1.00
H203   H     0.65805   0.50023   0.11335   0.00000  Uiso   1.00
H204   H     0.34195   0.49977   0.21998   0.00000  Uiso   1.00
C205   C     0.53608   0.35505   0.14384   0.00000  Uiso   1.00
C206   C     0.46392   0.64495   0.18950   0.00000  Uiso   1.00
C207   C     0.53687   0.64523   0.14436   0.00000  Uiso   1.00
C208   C     0.46313   0.35477   0.18897   0.00000  Uiso   1.00
C209   C     0.50058   0.62405   0.16708   0.00000  Uiso   1.00
C210   C     0.49942   0.37595   0.16626   0.00000  Uiso   1.00
C211   C     0.53451   0.52441   0.02854   0.00000  Uiso   1.00
C212   C     0.46549   0.47559   0.30479   0.00000  Uiso   1.00
H213   H     0.56216   0.54390   0.05033   0.00000  Uiso   1.00
H214   H     0.43784   0.45610   0.28300   0.00000  Uiso   1.00
C215   C     0.53447   0.52443   0.31394   0.00000  Uiso   1.00
C216   C     0.46553   0.47557   0.01940   0.00000  Uiso   1.00
H217   H     0.56204   0.54398   0.29946   0.00000  Uiso   1.00
H218   H     0.43796   0.45602   0.03387   0.00000  Uiso   1.00
N219   N     0.57496   0.37768   0.12376   0.00000  Uiso   1.00
O220   O     0.61077   0.39911   0.14969   0.00000  Uiso   1.00
O221   O     0.57035   0.38144   0.07954   0.00000  Uiso   1.00
N222   N     0.42504   0.62232   0.20958   0.00000  Uiso   1.00
O223   O     0.38921   0.60091   0.18365   0.00000  Uiso   1.00
O224   O     0.42968   0.61854   0.25380   0.00000  Uiso   1.00
N225   N     0.57650   0.62308   0.12467   0.00000  Uiso   1.00
O226   O     0.58164   0.62855   0.08198   0.00000  Uiso   1.00
O227   O     0.60740   0.59715   0.14937   0.00000  Uiso   1.00
N228   N     0.42350   0.37692   0.20867   0.00000  Uiso   1.00
O229   O     0.41835   0.37143   0.25135   0.00000  Uiso   1.00
O230   O     0.39260   0.40285   0.18396   0.00000  Uiso   1.00
O231   O     0.83333   0.43892   0.20487   0.00000  Uiso   1.00
O232   O     0.83334   0.56108   0.12846   0.00000  Uiso   1.00
O233   O     0.83333   0.43893   0.12843   0.00000  Uiso   1.00
O234   O     0.83334   0.56107   0.20490   0.00000  Uiso   1.00
C235   C     0.83308   0.42011   0.16654   0.00000  Uiso   1.00
C236   C     0.83358   0.57989   0.16679   0.00000  Uiso   1.00
O237   O     0.75725   0.50000   0.19595   0.00000  Uiso   1.00
O238   O     0.90942   0.50000   0.13739   0.00000  Uiso   1.00
O239   O     0.75725   0.50000   0.11950   0.00000  Uiso   1.00
O240   O     0.90942   0.50000   0.21383   0.00000  Uiso   1.00
C241   C     0.73371   0.50006   0.15470   0.00000  Uiso   1.00
C242   C     0.93296   0.49994   0.17864   0.00000  Uiso   1.00
Zn243  Zn    0.83333   0.49999   0.21771   0.00000  Uiso   1.00
Zn244  Zn    0.83333   0.50001   0.11563   0.00000  Uiso   1.00
N245   N     0.83332   0.49999   0.28573   0.00000  Uiso   1.00
N246   N     0.83335   0.50001   0.04760   0.00000  Uiso   1.00
C247   C     0.67867   0.50008   0.14826   0.00000  Uiso   1.00
C248   C     0.98800   0.49992   0.18507   0.00000  Uiso   1.00
H249   H     0.99138   0.50023   0.11335   0.00000  Uiso   1.00
H250   H     0.67529   0.49977   0.21998   0.00000  Uiso   1.00
C251   C     0.86941   0.35505   0.14384   0.00000  Uiso   1.00
C252   C     0.79726   0.64495   0.18950   0.00000  Uiso   1.00
C253   C     0.87020   0.64523   0.14436   0.00000  Uiso   1.00
C254   C     0.79646   0.35477   0.18897   0.00000  Uiso   1.00
C255   C     0.83392   0.62405   0.16708   0.00000  Uiso   1.00
C256   C     0.83275   0.37595   0.16626   0.00000  Uiso   1.00
C257   C     0.86784   0.52441   0.02854   0.00000  Uiso   1.00
C258   C     0.79882   0.47559   0.30479   0.00000  Uiso   1.00
H259   H     0.89549   0.54390   0.05033   0.00000  Uiso   1.00
H260   H     0.77117   0.45610   0.28300   0.00000  Uiso   1.00
C261   C     0.86781   0.52443   0.31394   0.00000  Uiso   1.00
C262   C     0.79886   0.47557   0.01940   0.00000  Uiso   1.00
H263   H     0.89538   0.54398   0.29946   0.00000  Uiso   1.00
H264   H     0.77129   0.45602   0.03387   0.00000  Uiso   1.00
N265   N     0.90830   0.37768   0.12376   0.00000  Uiso   1.00
O266   O     0.94410   0.39911   0.14969   0.00000  Uiso   1.00
O267   O     0.90368   0.38144   0.07954   0.00000  Uiso   1.00
N268   N     0.75838   0.62232   0.20958   0.00000  Uiso   1.00
O269   O     0.72255   0.60091   0.18365   0.00000  Uiso   1.00
O270   O     0.76301   0.61854   0.25380   0.00000  Uiso   1.00
N271   N     0.90983   0.62308   0.12467   0.00000  Uiso   1.00
O272   O     0.91497   0.62855   0.08198   0.00000  Uiso   1.00
O273   O     0.94073   0.59715   0.14937   0.00000  Uiso   1.00
N274   N     0.75684   0.37692   0.20867   0.00000  Uiso   1.00
O275   O     0.75168   0.37143   0.25135   0.00000  Uiso   1.00
O276   O     0.72593   0.40285   0.18396   0.00000  Uiso   1.00
O277   O     0.16666   0.77225   0.20487   0.00000  Uiso   1.00
O278   O     0.16667   0.89442   0.12846   0.00000  Uiso   1.00
O279   O     0.16666   0.77226   0.12843   0.00000  Uiso   1.00
O280   O     0.16667   0.89441   0.20490   0.00000  Uiso   1.00
C281   C     0.16642   0.75344   0.16654   0.00000  Uiso   1.00
C282   C     0.16692   0.91323   0.16679   0.00000  Uiso   1.00
O283   O     0.09058   0.83333   0.19595   0.00000  Uiso   1.00
O284   O     0.24275   0.83334   0.13739   0.00000  Uiso   1.00
O285   O     0.09058   0.83334   0.11950   0.00000  Uiso   1.00
O286   O     0.24275   0.83333   0.21383   0.00000  Uiso   1.00
C287   C     0.06704   0.83339   0.15470   0.00000  Uiso   1.00
C288   C     0.26629   0.83327   0.17864   0.00000  Uiso   1.00
Zn289  Zn    0.16667   0.83333   0.21771   0.00000  Uiso   1.00
Zn290  Zn    0.16667   0.83334   0.11563   0.00000  Uiso   1.00
N291   N     0.16665   0.83332   0.28573   0.00000  Uiso   1.00
N292   N     0.16668   0.83334   0.04760   0.00000  Uiso   1.00
C293   C     0.01200   0.83342   0.14826   0.00000  Uiso   1.00
C294   C     0.32133   0.83325   0.18507   0.00000  Uiso   1.00
H295   H     0.32471   0.83357   0.11335   0.00000  Uiso   1.00
H296   H     0.00862   0.83310   0.21998   0.00000  Uiso   1.00
C297   C     0.20274   0.68839   0.14384   0.00000  Uiso   1.00
C298   C     0.13059   0.97828   0.18950   0.00000  Uiso   1.00
C299   C     0.20354   0.97856   0.14436   0.00000  Uiso   1.00
C300   C     0.12980   0.68811   0.18897   0.00000  Uiso   1.00
C301   C     0.16725   0.95738   0.16708   0.00000  Uiso   1.00
C302   C     0.16609   0.70928   0.16626   0.00000  Uiso   1.00
C303   C     0.20118   0.85775   0.02854   0.00000  Uiso   1.00
C304   C     0.13216   0.80892   0.30479   0.00000  Uiso   1.00
H305   H     0.22883   0.87723   0.05033   0.00000  Uiso   1.00
H306   H     0.10451   0.78943   0.28300   0.00000  Uiso   1.00
C307   C     0.20114   0.85776   0.31394   0.00000  Uiso   1.00
C308   C     0.13219   0.80891   0.01940   0.00000  Uiso   1.00
H309   H     0.22871   0.87731   0.29946   0.00000  Uiso   1.00
H310   H     0.10462   0.78935   0.03387   0.00000  Uiso   1.00
N311   N     0.24163   0.71101   0.12376   0.00000  Uiso   1.00
O312   O     0.27744   0.73244   0.14969   0.00000  Uiso   1.00
O313   O     0.23702   0.71477   0.07954   0.00000  Uiso   1.00
N314   N     0.09171   0.95565   0.20958   0.00000  Uiso   1.00
O315   O     0.05588   0.93425   0.18365   0.00000  Uiso   1.00
O316   O     0.09635   0.95187   0.25380   0.00000  Uiso   1.00
N317   N     0.24317   0.95642   0.12467   0.00000  Uiso   1.00
O318   O     0.24830   0.96189   0.08198   0.00000  Uiso   1.00
O319   O     0.27407   0.93048   0.14937   0.00000  Uiso   1.00
N320   N     0.09017   0.71025   0.20867   0.00000  Uiso   1.00
O321   O     0.08501   0.70476   0.25135   0.00000  Uiso   1.00
O322   O     0.05927   0.73618   0.18396   0.00000  Uiso   1.00
O323   O     0.50000   0.77225   0.20487   0.00000  Uiso   1.00
O324   O     0.50000   0.89442   0.12846   0.00000  Uiso   1.00
O325   O     0.50000   0.77226   0.12843   0.00000  Uiso   1.00
O326   O     0.50000   0.89441   0.20490   0.00000  Uiso   1.00
C327   C     0.49975   0.75344   0.16654   0.00000  Uiso   1.00
C328   C     0.50025   0.91323   0.16679   0.00000  Uiso   1.00
O329   O     0.42392   0.83333   0.19595   0.00000  Uiso   1.00
O330   O     0.57608   0.83334   0.13739   0.00000  Uiso   1.00
O331   O     0.42392   0.83334   0.11950   0.00000  Uiso   1.00
O332   O     0.57608   0.83333   0.21383   0.00000  Uiso   1.00
C333   C     0.40038   0.83339   0.15470   0.00000  Uiso   1.00
C334   C     0.59963   0.83327   0.17864   0.00000  Uiso   1.00
Zn335  Zn    0.50000   0.83333   0.21771   0.00000  Uiso   1.00
Zn336  Zn    0.50000   0.83334   0.11563   0.00000  Uiso   1.00
N337   N     0.49999   0.83332   0.28573   0.00000  Uiso   1.00
N338   N     0.50001   0.83334   0.04760   0.00000  Uiso   1.00
C339   C     0.34534   0.83342   0.14826   0.00000  Uiso   1.00
C340   C     0.65467   0.83325   0.18507   0.00000  Uiso   1.00
H341   H     0.65805   0.83357   0.11335   0.00000  Uiso   1.00
H342   H     0.34195   0.83310   0.21998   0.00000  Uiso   1.00
C343   C     0.53608   0.68839   0.14384   0.00000  Uiso   1.00
C344   C     0.46392   0.97828   0.18950   0.00000  Uiso   1.00
C345   C     0.53687   0.97856   0.14436   0.00000  Uiso   1.00
C346   C     0.46313   0.68811   0.18897   0.00000  Uiso   1.00
C347   C     0.50058   0.95738   0.16708   0.00000  Uiso   1.00
C348   C     0.49942   0.70928   0.16626   0.00000  Uiso   1.00
C349   C     0.53451   0.85775   0.02854   0.00000  Uiso   1.00
C350   C     0.46549   0.80892   0.30479   0.00000  Uiso   1.00
H351   H     0.56216   0.87723   0.05033   0.00000  Uiso   1.00
H352   H     0.43784   0.78943   0.28300   0.00000  Uiso   1.00
C353   C     0.53447   0.85776   0.31394   0.00000  Uiso   1.00
C354   C     0.46553   0.80891   0.01940   0.00000  Uiso   1.00
H355   H     0.56204   0.87731   0.29946   0.00000  Uiso   1.00
H356   H     0.43796   0.78935   0.03387   0.00000  Uiso   1.00
N357   N     0.57496   0.71101   0.12376   0.00000  Uiso   1.00
O358   O     0.61077   0.73244   0.14969   0.00000  Uiso   1.00
O359   O     0.57035   0.71477   0.07954   0.00000  Uiso   1.00
N360   N     0.42504   0.95565   0.20958   0.00000  Uiso   1.00
O361   O     0.38921   0.93425   0.18365   0.00000  Uiso   1.00
O362   O     0.42968   0.95187   0.25380   0.00000  Uiso   1.00
N363   N     0.57650   0.95642   0.12467   0.00000  Uiso   1.00
O364   O     0.58164   0.96189   0.08198   0.00000  Uiso   1.00
O365   O     0.60740   0.93048   0.14937   0.00000  Uiso   1.00
N366   N     0.42350   0.71025   0.20867   0.00000  Uiso   1.00
O367   O     0.41835   0.70476   0.25135   0.00000  Uiso   1.00
O368   O     0.39260   0.73618   0.18396   0.00000  Uiso   1.00
O369   O     0.83333   0.77225   0.20487   0.00000  Uiso   1.00
O370   O     0.83334   0.89442   0.12846   0.00000  Uiso   1.00
O371   O     0.83333   0.77226   0.12843   0.00000  Uiso   1.00
O372   O     0.83334   0.89441   0.20490   0.00000  Uiso   1.00
C373   C     0.83308   0.75344   0.16654   0.00000  Uiso   1.00
C374   C     0.83358   0.91323   0.16679   0.00000  Uiso   1.00
O375   O     0.75725   0.83333   0.19595   0.00000  Uiso   1.00
O376   O     0.90942   0.83334   0.13739   0.00000  Uiso   1.00
O377   O     0.75725   0.83334   0.11950   0.00000  Uiso   1.00
O378   O     0.90942   0.83333   0.21383   0.00000  Uiso   1.00
C379   C     0.73371   0.83339   0.15470   0.00000  Uiso   1.00
C380   C     0.93296   0.83327   0.17864   0.00000  Uiso   1.00
Zn381  Zn    0.83333   0.83333   0.21771   0.00000  Uiso   1.00
Zn382  Zn    0.83333   0.83334   0.11563   0.00000  Uiso   1.00
N383   N     0.83332   0.83332   0.28573   0.00000  Uiso   1.00
N384   N     0.83335   0.83334   0.04760   0.00000  Uiso   1.00
C385   C     0.67867   0.83342   0.14826   0.00000  Uiso   1.00
C386   C     0.98800   0.83325   0.18507   0.00000  Uiso   1.00
H387   H     0.99138   0.83357   0.11335   0.00000  Uiso   1.00
H388   H     0.67529   0.83310   0.21998   0.00000  Uiso   1.00
C389   C     0.86941   0.68839   0.14384   0.00000  Uiso   1.00
C390   C     0.79726   0.97828   0.18950   0.00000  Uiso   1.00
C391   C     0.87020   0.97856   0.14436   0.00000  Uiso   1.00
C392   C     0.79646   0.68811   0.18897   0.00000  Uiso   1.00
C393   C     0.83392   0.95738   0.16708   0.00000  Uiso   1.00
C394   C     0.83275   0.70928   0.16626   0.00000  Uiso   1.00
C395   C     0.86784   0.85775   0.02854   0.00000  Uiso   1.00
C396   C     0.79882   0.80892   0.30479   0.00000  Uiso   1.00
H397   H     0.89549   0.87723   0.05033   0.00000  Uiso   1.00
H398   H     0.77117   0.78943   0.28300   0.00000  Uiso   1.00
C399   C     0.86781   0.85776   0.31394   0.00000  Uiso   1.00
C400   C     0.79886   0.80891   0.01940   0.00000  Uiso   1.00
H401   H     0.89538   0.87731   0.29946   0.00000  Uiso   1.00
H402   H     0.77129   0.78935   0.03387   0.00000  Uiso   1.00
N403   N     0.90830   0.71101   0.12376   0.00000  Uiso   1.00
O404   O     0.94410   0.73244   0.14969   0.00000  Uiso   1.00
O405   O     0.90368   0.71477   0.07954   0.00000  Uiso   1.00
N406   N     0.75838   0.95565   0.20958   0.00000  Uiso   1.00
O407   O     0.72255   0.93425   0.18365   0.00000  Uiso   1.00
O408   O     0.76301   0.95187   0.25380   0.00000  Uiso   1.00
N409   N     0.90983   0.95642   0.12467   0.00000  Uiso   1.00
O410   O     0.91497   0.96189   0.08198   0.00000  Uiso   1.00
O411   O     0.94073   0.93048   0.14937   0.00000  Uiso   1.00
N412   N     0.75684   0.71025   0.20867   0.00000  Uiso   1.00
O413   O     0.75168   0.70476   0.25135   0.00000  Uiso   1.00
O414   O     0.72593   0.73618   0.18396   0.00000  Uiso   1.00
O415   O     0.16666   0.10558   0.53821   0.00000  Uiso   1.00
O416   O     0.16667   0.22775   0.46179   0.00000  Uiso   1.00
O417   O     0.16666   0.10559   0.46176   0.00000  Uiso   1.00
O418   O     0.16667   0.22774   0.53824   0.00000  Uiso   1.00
C419   C     0.16642   0.08677   0.49988   0.00000  Uiso   1.00
C420   C     0.16692   0.24656   0.50013   0.00000  Uiso   1.00
O421   O     0.09058   0.16666   0.52928   0.00000  Uiso   1.00
O422   O     0.24275   0.16667   0.47072   0.00000  Uiso   1.00
O423   O     0.09058   0.16667   0.45284   0.00000  Uiso   1.00
O424   O     0.24275   0.16666   0.54716   0.00000  Uiso   1.00
C425   C     0.06704   0.16673   0.48803   0.00000  Uiso   1.00
C426   C     0.26629   0.16661   0.51197   0.00000  Uiso   1.00
Zn427  Zn    0.16667   0.16666   0.55104   0.00000  Uiso   1.00
Zn428  Zn    0.16667   0.16667   0.44896   0.00000  Uiso   1.00
N429   N     0.16665   0.16666   0.61907   0.00000  Uiso   1.00
N430   N     0.16668   0.16668   0.38093   0.00000  Uiso   1.00
C431   C     0.01200   0.16675   0.48160   0.00000  Uiso   1.00
C432   C     0.32133   0.16658   0.51840   0.00000  Uiso   1.00
H433   H     0.32471   0.16690   0.44668   0.00000  Uiso   1.00
H434   H     0.00862   0.16644   0.55332   0.00000  Uiso   1.00
C435   C     0.20274   0.02172   0.47717   0.00000  Uiso   1.00
C436   C     0.13059   0.31162   0.52283   0.00000  Uiso   1.00
C437   C     0.20354   0.31189   0.47770   0.00000  Uiso   1.00
C438   C     0.12980   0.02144   0.52230   0.00000  Uiso   1.00
C439   C     0.16725   0.29072   0.50041   0.00000  Uiso   1.00
C440   C     0.16609   0.04262   0.49959   0.00000  Uiso   1.00
C441   C     0.20118   0.19108   0.36187   0.00000  Uiso   1.00
C442   C     0.13216   0.14225   0.63813   0.00000  Uiso   1.00
H443   H     0.22883   0.21057   0.38366   0.00000  Uiso   1.00
H444   H     0.10451   0.12277   0.61634   0.00000  Uiso   1.00
C445   C     0.20114   0.19109   0.64727   0.00000  Uiso   1.00
C446   C     0.13219   0.14224   0.35273   0.00000  Uiso   1.00
H447   H     0.22871   0.21064   0.63280   0.00000  Uiso   1.00
H448   H     0.10462   0.12269   0.36720   0.00000  Uiso   1.00
N449   N     0.24163   0.04435   0.45709   0.00000  Uiso   1.00
O450   O     0.27744   0.06577   0.48302   0.00000  Uiso   1.00
O451   O     0.23702   0.04811   0.41287   0.00000  Uiso   1.00
N452   N     0.09171   0.28899   0.54291   0.00000  Uiso   1.00
O453   O     0.05588   0.26758   0.51698   0.00000  Uiso   1.00
O454   O     0.09635   0.28520   0.58713   0.00000  Uiso   1.00
N455   N     0.24317   0.28975   0.45800   0.00000  Uiso   1.00
O456   O     0.24830   0.29522   0.41531   0.00000  Uiso   1.00
O457   O     0.27407   0.26382   0.48271   0.00000  Uiso   1.00
N458   N     0.09017   0.04358   0.54200   0.00000  Uiso   1.00
O459   O     0.08501   0.03810   0.58468   0.00000  Uiso   1.00
O460   O     0.05927   0.06951   0.51730   0.00000  Uiso   1.00
O461   O     0.50000   0.10558   0.53821   0.00000  Uiso   1.00
O462   O     0.50000   0.22775   0.46179   0.00000  Uiso   1.00
O463   O     0.50000   0.10559   0.46176   0.00000  Uiso   1.00
O464   O     0.50000   0.22774   0.53824   0.00000  Uiso   1.00
C465   C     0.49975   0.08677   0.49988   0.00000  Uiso   1.00
C466   C     0.50025   0.24656   0.50013   0.00000  Uiso   1.00
O467   O     0.42392   0.16666   0.52928   0.00000  Uiso   1.00
O468   O     0.57608   0.16667   0.47072   0.00000  Uiso   1.00
O469   O     0.42392   0.16667   0.45284   0.00000  Uiso   1.00
O470   O     0.57608   0.16666   0.54716   0.00000  Uiso   1.00
C471   C     0.40038   0.16673   0.48803   0.00000  Uiso   1.00
C472   C     0.59963   0.16661   0.51197   0.00000  Uiso   1.00
Zn473  Zn    0.50000   0.16666   0.55104   0.00000  Uiso   1.00
Zn474  Zn    0.50000   0.16667   0.44896   0.00000  Uiso   1.00
N475   N     0.49999   0.16666   0.61907   0.00000  Uiso   1.00
N476   N     0.50001   0.16668   0.38093   0.00000  Uiso   1.00
C477   C     0.34534   0.16675   0.48160   0.00000  Uiso   1.00
C478   C     0.65467   0.16658   0.51840   0.00000  Uiso   1.00
H479   H     0.65805   0.16690   0.44668   0.00000  Uiso   1.00
H480   H     0.34195   0.16644   0.55332   0.00000  Uiso   1.00
C481   C     0.53608   0.02172   0.47717   0.00000  Uiso   1.00
C482   C     0.46392   0.31162   0.52283   0.00000  Uiso   1.00
C483   C     0.53687   0.31189   0.47770   0.00000  Uiso   1.00
C484   C     0.46313   0.02144   0.52230   0.00000  Uiso   1.00
C485   C     0.50058   0.29072   0.50041   0.00000  Uiso   1.00
C486   C     0.49942   0.04262   0.49959   0.00000  Uiso   1.00
C487   C     0.53451   0.19108   0.36187   0.00000  Uiso   1.00
C488   C     0.46549   0.14225   0.63813   0.00000  Uiso   1.00
H489   H     0.56216   0.21057   0.38366   0.00000  Uiso   1.00
H490   H     0.43784   0.12277   0.61634   0.00000  Uiso   1.00
C491   C     0.53447   0.19109   0.64727   0.00000  Uiso   1.00
C492   C     0.46553   0.14224   0.35273   0.00000  Uiso   1.00
H493   H     0.56204   0.21064   0.63280   0.00000  Uiso   1.00
H494   H     0.43796   0.12269   0.36720   0.00000  Uiso   1.00
N495   N     0.57496   0.04435   0.45709   0.00000  Uiso   1.00
O496   O     0.61077   0.06577   0.48302   0.00000  Uiso   1.00
O497   O     0.57035   0.04811   0.41287   0.00000  Uiso   1.00
N498   N     0.42504   0.28899   0.54291   0.00000  Uiso   1.00
O499   O     0.38921   0.26758   0.51698   0.00000  Uiso   1.00
O500   O     0.42968   0.28520   0.58713   0.00000  Uiso   1.00
N501   N     0.57650   0.28975   0.45800   0.00000  Uiso   1.00
O502   O     0.58164   0.29522   0.41531   0.00000  Uiso   1.00
O503   O     0.60740   0.26382   0.48271   0.00000  Uiso   1.00
N504   N     0.42350   0.04358   0.54200   0.00000  Uiso   1.00
O505   O     0.41835   0.03810   0.58468   0.00000  Uiso   1.00
O506   O     0.39260   0.06951   0.51730   0.00000  Uiso   1.00
O507   O     0.83333   0.10558   0.53821   0.00000  Uiso   1.00
O508   O     0.83334   0.22775   0.46179   0.00000  Uiso   1.00
O509   O     0.83333   0.10559   0.46176   0.00000  Uiso   1.00
O510   O     0.83334   0.22774   0.53824   0.00000  Uiso   1.00
C511   C     0.83308   0.08677   0.49988   0.00000  Uiso   1.00
C512   C     0.83358   0.24656   0.50013   0.00000  Uiso   1.00
O513   O     0.75725   0.16666   0.52928   0.00000  Uiso   1.00
O514   O     0.90942   0.16667   0.47072   0.00000  Uiso   1.00
O515   O     0.75725   0.16667   0.45284   0.00000  Uiso   1.00
O516   O     0.90942   0.16666   0.54716   0.00000  Uiso   1.00
C517   C     0.73371   0.16673   0.48803   0.00000  Uiso   1.00
C518   C     0.93296   0.16661   0.51197   0.00000  Uiso   1.00
Zn519  Zn    0.83333   0.16666   0.55104   0.00000  Uiso   1.00
Zn520  Zn    0.83333   0.16667   0.44896   0.00000  Uiso   1.00
N521   N     0.83332   0.16666   0.61907   0.00000  Uiso   1.00
N522   N     0.83335   0.16668   0.38093   0.00000  Uiso   1.00
C523   C     0.67867   0.16675   0.48160   0.00000  Uiso   1.00
C524   C     0.98800   0.16658   0.51840   0.00000  Uiso   1.00
H525   H     0.99138   0.16690   0.44668   0.00000  Uiso   1.00
H526   H     0.67529   0.16644   0.55332   0.00000  Uiso   1.00
C527   C     0.86941   0.02172   0.47717   0.00000  Uiso   1.00
C528   C     0.79726   0.31162   0.52283   0.00000  Uiso   1.00
C529   C     0.87020   0.31189   0.47770   0.00000  Uiso   1.00
C530   C     0.79646   0.02144   0.52230   0.00000  Uiso   1.00
C531   C     0.83392   0.29072   0.50041   0.00000  Uiso   1.00
C532   C     0.83275   0.04262   0.49959   0.00000  Uiso   1.00
C533   C     0.86784   0.19108   0.36187   0.00000  Uiso   1.00
C534   C     0.79882   0.14225   0.63813   0.00000  Uiso   1.00
H535   H     0.89549   0.21057   0.38366   0.00000  Uiso   1.00
H536   H     0.77117   0.12277   0.61634   0.00000  Uiso   1.00
C537   C     0.86781   0.19109   0.64727   0.00000  Uiso   1.00
C538   C     0.79886   0.14224   0.35273   0.00000  Uiso   1.00
H539   H     0.89538   0.21064   0.63280   0.00000  Uiso   1.00
H540   H     0.77129   0.12269   0.36720   0.00000  Uiso   1.00
N541   N     0.90830   0.04435   0.45709   0.00000  Uiso   1.00
O542   O     0.94410   0.06577   0.48302   0.00000  Uiso   1.00
O543   O     0.90368   0.04811   0.41287   0.00000  Uiso   1.00
N544   N     0.75838   0.28899   0.54291   0.00000  Uiso   1.00
O545   O     0.72255   0.26758   0.51698   0.00000  Uiso   1.00
O546   O     0.76301   0.28520   0.58713   0.00000  Uiso   1.00
N547   N     0.90983   0.28975   0.45800   0.00000  Uiso   1.00
O548   O     0.91497   0.29522   0.41531   0.00000  Uiso   1.00
O549   O     0.94073   0.26382   0.48271   0.00000  Uiso   1.00
N550   N     0.75684   0.04358   0.54200   0.00000  Uiso   1.00
O551   O     0.75168   0.03810   0.58468   0.00000  Uiso   1.00
O552   O     0.72593   0.06951   0.51730   0.00000  Uiso   1.00
O553   O     0.16666   0.43892   0.53821   0.00000  Uiso   1.00
O554   O     0.16667   0.56108   0.46179   0.00000  Uiso   1.00
O555   O     0.16666   0.43893   0.46176   0.00000  Uiso   1.00
O556   O     0.16667   0.56107   0.53824   0.00000  Uiso   1.00
C557   C     0.16642   0.42011   0.49988   0.00000  Uiso   1.00
C558   C     0.16692   0.57989   0.50013   0.00000  Uiso   1.00
O559   O     0.09058   0.50000   0.52928   0.00000  Uiso   1.00
O560   O     0.24275   0.50000   0.47072   0.00000  Uiso   1.00
O561   O     0.09058   0.50000   0.45284   0.00000  Uiso   1.00
O562   O     0.24275   0.50000   0.54716   0.00000  Uiso   1.00
C563   C     0.06704   0.50006   0.48803   0.00000  Uiso   1.00
C564   C     0.26629   0.49994   0.51197   0.00000  Uiso   1.00
Zn565  Zn    0.16667   0.49999   0.55104   0.00000  Uiso   1.00
Zn566  Zn    0.16667   0.50001   0.44896   0.00000  Uiso   1.00
N567   N     0.16665   0.49999   0.61907   0.00000  Uiso   1.00
N568   N     0.16668   0.50001   0.38093   0.00000  Uiso   1.00
C569   C     0.01200   0.50008   0.48160   0.00000  Uiso   1.00
C570   C     0.32133   0.49992   0.51840   0.00000  Uiso   1.00
H571   H     0.32471   0.50023   0.44668   0.00000  Uiso   1.00
H572   H     0.00862   0.49977   0.55332   0.00000  Uiso   1.00
C573   C     0.20274   0.35505   0.47717   0.00000  Uiso   1.00
C574   C     0.13059   0.64495   0.52283   0.00000  Uiso   1.00
C575   C     0.20354   0.64523   0.47770   0.00000  Uiso   1.00
C576   C     0.12980   0.35477   0.52230   0.00000  Uiso   1.00
C577   C     0.16725   0.62405   0.50041   0.00000  Uiso   1.00
C578   C     0.16609   0.37595   0.49959   0.00000  Uiso   1.00
C579   C     0.20118   0.52441   0.36187   0.00000  Uiso   1.00
C580   C     0.13216   0.47559   0.63813   0.00000  Uiso   1.00
H581   H     0.22883   0.54390   0.38366   0.00000  Uiso   1.00
H582   H     0.10451   0.45610   0.61634   0.00000  Uiso   1.00
C583   C     0.20114   0.52443   0.64727   0.00000  Uiso   1.00
C584   C     0.13219   0.47557   0.35273   0.00000  Uiso   1.00
H585   H     0.22871   0.54398   0.63280   0.00000  Uiso   1.00
H586   H     0.10462   0.45602   0.36720   0.00000  Uiso   1.00
N587   N     0.24163   0.37768   0.45709   0.00000  Uiso   1.00
O588   O     0.27744   0.39911   0.48302   0.00000  Uiso   1.00
O589   O     0.23702   0.38144   0.41287   0.00000  Uiso   1.00
N590   N     0.09171   0.62232   0.54291   0.00000  Uiso   1.00
O591   O     0.05588   0.60091   0.51698   0.00000  Uiso   1.00
O592   O     0.09635   0.61854   0.58713   0.00000  Uiso   1.00
N593   N     0.24317   0.62308   0.45800   0.00000  Uiso   1.00
O594   O     0.24830   0.62855   0.41531   0.00000  Uiso   1.00
O595   O     0.27407   0.59715   0.48271   0.00000  Uiso   1.00
N596   N     0.09017   0.37692   0.54200   0.00000  Uiso   1.00
O597   O     0.08501   0.37143   0.58468   0.00000  Uiso   1.00
O598   O     0.05927   0.40285   0.51730   0.00000  Uiso   1.00
O599   O     0.50000   0.43892   0.53821   0.00000  Uiso   1.00
O600   O     0.50000   0.56108   0.46179   0.00000  Uiso   1.00
O601   O     0.50000   0.43893   0.46176   0.00000  Uiso   1.00
O602   O     0.50000   0.56107   0.53824   0.00000  Uiso   1.00
C603   C     0.49975   0.42011   0.49988   0.00000  Uiso   1.00
C604   C     0.50025   0.57989   0.50013   0.00000  Uiso   1.00
O605   O     0.42392   0.50000   0.52928   0.00000  Uiso   1.00
O606   O     0.57608   0.50000   0.47072   0.00000  Uiso   1.00
O607   O     0.42392   0.50000   0.45284   0.00000  Uiso   1.00
O608   O     0.57608   0.50000   0.54716   0.00000  Uiso   1.00
C609   C     0.40038   0.50006   0.48803   0.00000  Uiso   1.00
C610   C     0.59963   0.49994   0.51197   0.00000  Uiso   1.00
Zn611  Zn    0.50000   0.49999   0.55104   0.00000  Uiso   1.00
Zn612  Zn    0.50000   0.50001   0.44896   0.00000  Uiso   1.00
N613   N     0.49999   0.49999   0.61907   0.00000  Uiso   1.00
N614   N     0.50001   0.50001   0.38093   0.00000  Uiso   1.00
C615   C     0.34534   0.50008   0.48160   0.00000  Uiso   1.00
C616   C     0.65467   0.49992   0.51840   0.00000  Uiso   1.00
H617   H     0.65805   0.50023   0.44668   0.00000  Uiso   1.00
H618   H     0.34195   0.49977   0.55332   0.00000  Uiso   1.00
C619   C     0.53608   0.35505   0.47717   0.00000  Uiso   1.00
C620   C     0.46392   0.64495   0.52283   0.00000  Uiso   1.00
C621   C     0.53687   0.64523   0.47770   0.00000  Uiso   1.00
C622   C     0.46313   0.35477   0.52230   0.00000  Uiso   1.00
C623   C     0.50058   0.62405   0.50041   0.00000  Uiso   1.00
C624   C     0.49942   0.37595   0.49959   0.00000  Uiso   1.00
C625   C     0.53451   0.52441   0.36187   0.00000  Uiso   1.00
C626   C     0.46549   0.47559   0.63813   0.00000  Uiso   1.00
H627   H     0.56216   0.54390   0.38366   0.00000  Uiso   1.00
H628   H     0.43784   0.45610   0.61634   0.00000  Uiso   1.00
C629   C     0.53447   0.52443   0.64727   0.00000  Uiso   1.00
C630   C     0.46553   0.47557   0.35273   0.00000  Uiso   1.00
H631   H     0.56204   0.54398   0.63280   0.00000  Uiso   1.00
H632   H     0.43796   0.45602   0.36720   0.00000  Uiso   1.00
N633   N     0.57496   0.37768   0.45709   0.00000  Uiso   1.00
O634   O     0.61077   0.39911   0.48302   0.00000  Uiso   1.00
O635   O     0.57035   0.38144   0.41287   0.00000  Uiso   1.00
N636   N     0.42504   0.62232   0.54291   0.00000  Uiso   1.00
O637   O     0.38921   0.60091   0.51698   0.00000  Uiso   1.00
O638   O     0.42968   0.61854   0.58713   0.00000  Uiso   1.00
N639   N     0.57650   0.62308   0.45800   0.00000  Uiso   1.00
O640   O     0.58164   0.62855   0.41531   0.00000  Uiso   1.00
O641   O     0.60740   0.59715   0.48271   0.00000  Uiso   1.00
N642   N     0.42350   0.37692   0.54200   0.00000  Uiso   1.00
O643   O     0.41835   0.37143   0.58468   0.00000  Uiso   1.00
O644   O     0.39260   0.40285   0.51730   0.00000  Uiso   1.00
O645   O     0.83333   0.43892   0.53821   0.00000  Uiso   1.00
O646   O     0.83334   0.56108   0.46179   0.00000  Uiso   1.00
O647   O     0.83333   0.43893   0.46176   0.00000  Uiso   1.00
O648   O     0.83334   0.56107   0.53824   0.00000  Uiso   1.00
C649   C     0.83308   0.42011   0.49988   0.00000  Uiso   1.00
C650   C     0.83358   0.57989   0.50013   0.00000  Uiso   1.00
O651   O     0.75725   0.50000   0.52928   0.00000  Uiso   1.00
O652   O     0.90942   0.50000   0.47072   0.00000  Uiso   1.00
O653   O     0.75725   0.50000   0.45284   0.00000  Uiso   1.00
O654   O     0.90942   0.50000   0.54716   0.00000  Uiso   1.00
C655   C     0.73371   0.50006   0.48803   0.00000  Uiso   1.00
C656   C     0.93296   0.49994   0.51197   0.00000  Uiso   1.00
Zn657  Zn    0.83333   0.49999   0.55104   0.00000  Uiso   1.00
Zn658  Zn    0.83333   0.50001   0.44896   0.00000  Uiso   1.00
N659   N     0.83332   0.49999   0.61907   0.00000  Uiso   1.00
N660   N     0.83335   0.50001   0.38093   0.00000  Uiso   1.00
C661   C     0.67867   0.50008   0.48160   0.00000  Uiso   1.00
C662   C     0.98800   0.49992   0.51840   0.00000  Uiso   1.00
H663   H     0.99138   0.50023   0.44668   0.00000  Uiso   1.00
H664   H     0.67529   0.49977   0.55332   0.00000  Uiso   1.00
C665   C     0.86941   0.35505   0.47717   0.00000  Uiso   1.00
C666   C     0.79726   0.64495   0.52283   0.00000  Uiso   1.00
C667   C     0.87020   0.64523   0.47770   0.00000  Uiso   1.00
C668   C     0.79646   0.35477   0.52230   0.00000  Uiso   1.00
C669   C     0.83392   0.62405   0.50041   0.00000  Uiso   1.00
C670   C     0.83275   0.37595   0.49959   0.00000  Uiso   1.00
C671   C     0.86784   0.52441   0.36187   0.00000  Uiso   1.00
C672   C     0.79882   0.47559   0.63813   0.00000  Uiso   1.00
H673   H     0.89549   0.54390   0.38366   0.00000  Uiso   1.00
H674   H     0.77117   0.45610   0.61634   0.00000  Uiso   1.00
C675   C     0.86781   0.52443   0.64727   0.00000  Uiso   1.00
C676   C     0.79886   0.47557   0.35273   0.00000  Uiso   1.00
H677   H     0.89538   0.54398   0.63280   0.00000  Uiso   1.00
H678   H     0.77129   0.45602   0.36720   0.00000  Uiso   1.00
N679   N     0.90830   0.37768   0.45709   0.00000  Uiso   1.00
O680   O     0.94410   0.39911   0.48302   0.00000  Uiso   1.00
O681   O     0.90368   0.38144   0.41287   0.00000  Uiso   1.00
N682   N     0.75838   0.62232   0.54291   0.00000  Uiso   1.00
O683   O     0.72255   0.60091   0.51698   0.00000  Uiso   1.00
O684   O     0.76301   0.61854   0.58713   0.00000  Uiso   1.00
N685   N     0.90983   0.62308   0.45800   0.00000  Uiso   1.00
O686   O     0.91497   0.62855   0.41531   0.00000  Uiso   1.00
O687   O     0.94073   0.59715   0.48271   0.00000  Uiso   1.00
N688   N     0.75684   0.37692   0.54200   0.00000  Uiso   1.00
O689   O     0.75168   0.37143   0.58468   0.00000  Uiso   1.00
O690   O     0.72593   0.40285   0.51730   0.00000  Uiso   1.00
O691   O     0.16666   0.77225   0.53821   0.00000  Uiso   1.00
O692   O     0.16667   0.89442   0.46179   0.00000  Uiso   1.00
O693   O     0.16666   0.77226   0.46176   0.00000  Uiso   1.00
O694   O     0.16667   0.89441   0.53824   0.00000  Uiso   1.00
C695   C     0.16642   0.75344   0.49988   0.00000  Uiso   1.00
C696   C     0.16692   0.91323   0.50013   0.00000  Uiso   1.00
O697   O     0.09058   0.83333   0.52928   0.00000  Uiso   1.00
O698   O     0.24275   0.83334   0.47072   0.00000  Uiso   1.00
O699   O     0.09058   0.83334   0.45284   0.00000  Uiso   1.00
O700   O     0.24275   0.83333   0.54716   0.00000  Uiso   1.00
C701   C     0.06704   0.83339   0.48803   0.00000  Uiso   1.00
C702   C     0.26629   0.83327   0.51197   0.00000  Uiso   1.00
Zn703  Zn    0.16667   0.83333   0.55104   0.00000  Uiso   1.00
Zn704  Zn    0.16667   0.83334   0.44896   0.00000  Uiso   1.00
N705   N     0.16665   0.83332   0.61907   0.00000  Uiso   1.00
N706   N     0.16668   0.83334   0.38093   0.00000  Uiso   1.00
C707   C     0.01200   0.83342   0.48160   0.00000  Uiso   1.00
C708   C     0.32133   0.83325   0.51840   0.00000  Uiso   1.00
H709   H     0.32471   0.83357   0.44668   0.00000  Uiso   1.00
H710   H     0.00862   0.83310   0.55332   0.00000  Uiso   1.00
C711   C     0.20274   0.68839   0.47717   0.00000  Uiso   1.00
C712   C     0.13059   0.97828   0.52283   0.00000  Uiso   1.00
C713   C     0.20354   0.97856   0.47770   0.00000  Uiso   1.00
C714   C     0.12980   0.68811   0.52230   0.00000  Uiso   1.00
C715   C     0.16725   0.95738   0.50041   0.00000  Uiso   1.00
C716   C     0.16609   0.70928   0.49959   0.00000  Uiso   1.00
C717   C     0.20118   0.85775   0.36187   0.00000  Uiso   1.00
C718   C     0.13216   0.80892   0.63813   0.00000  Uiso   1.00
H719   H     0.22883   0.87723   0.38366   0.00000  Uiso   1.00
H720   H     0.10451   0.78943   0.61634   0.00000  Uiso   1.00
C721   C     0.20114   0.85776   0.64727   0.00000  Uiso   1.00
C722   C     0.13219   0.80891   0.35273   0.00000  Uiso   1.00
H723   H     0.22871   0.87731   0.63280   0.00000  Uiso   1.00
H724   H     0.10462   0.78935   0.36720   0.00000  Uiso   1.00
N725   N     0.24163   0.71101   0.45709   0.00000  Uiso   1.00
O726   O     0.27744   0.73244   0.48302   0.00000  Uiso   1.00
O727   O     0.23702   0.71477   0.41287   0.00000  Uiso   1.00
N728   N     0.09171   0.95565   0.54291   0.00000  Uiso   1.00
O729   O     0.05588   0.93425   0.51698   0.00000  Uiso   1.00
O730   O     0.09635   0.95187   0.58713   0.00000  Uiso   1.00
N731   N     0.24317   0.95642   0.45800   0.00000  Uiso   1.00
O732   O     0.24830   0.96189   0.41531   0.00000  Uiso   1.00
O733   O     0.27407   0.93048   0.48271   0.00000  Uiso   1.00
N734   N     0.09017   0.71025   0.54200   0.00000  Uiso   1.00
O735   O     0.08501   0.70476   0.58468   0.00000  Uiso   1.00
O736   O     0.05927   0.73618   0.51730   0.00000  Uiso   1.00
O737   O     0.50000   0.77225   0.53821   0.00000  Uiso   1.00
O738   O     0.50000   0.89442   0.46179   0.00000  Uiso   1.00
O739   O     0.50000   0.77226   0.46176   0.00000  Uiso   1.00
O740   O     0.50000   0.89441   0.53824   0.00000  Uiso   1.00
C741   C     0.49975   0.75344   0.49988   0.00000  Uiso   1.00
C742   C     0.50025   0.91323   0.50013   0.00000  Uiso   1.00
O743   O     0.42392   0.83333   0.52928   0.00000  Uiso   1.00
O744   O     0.57608   0.83334   0.47072   0.00000  Uiso   1.00
O745   O     0.42392   0.83334   0.45284   0.00000  Uiso   1.00
O746   O     0.57608   0.83333   0.54716   0.00000  Uiso   1.00
C747   C     0.40038   0.83339   0.48803   0.00000  Uiso   1.00
C748   C     0.59963   0.83327   0.51197   0.00000  Uiso   1.00
Zn749  Zn    0.50000   0.83333   0.55104   0.00000  Uiso   1.00
Zn750  Zn    0.50000   0.83334   0.44896   0.00000  Uiso   1.00
N751   N     0.49999   0.83332   0.61907   0.00000  Uiso   1.00
N752   N     0.50001   0.83334   0.38093   0.00000  Uiso   1.00
C753   C     0.34534   0.83342   0.48160   0.00000  Uiso   1.00
C754   C     0.65467   0.83325   0.51840   0.00000  Uiso   1.00
H755   H     0.65805   0.83357   0.44668   0.00000  Uiso   1.00
H756   H     0.34195   0.83310   0.55332   0.00000  Uiso   1.00
C757   C     0.53608   0.68839   0.47717   0.00000  Uiso   1.00
C758   C     0.46392   0.97828   0.52283   0.00000  Uiso   1.00
C759   C     0.53687   0.97856   0.47770   0.00000  Uiso   1.00
C760   C     0.46313   0.68811   0.52230   0.00000  Uiso   1.00
C761   C     0.50058   0.95738   0.50041   0.00000  Uiso   1.00
C762   C     0.49942   0.70928   0.49959   0.00000  Uiso   1.00
C763   C     0.53451   0.85775   0.36187   0.00000  Uiso   1.00
C764   C     0.46549   0.80892   0.63813   0.00000  Uiso   1.00
H765   H     0.56216   0.87723   0.38366   0.00000  Uiso   1.00
H766   H     0.43784   0.78943   0.61634   0.00000  Uiso   1.00
C767   C     0.53447   0.85776   0.64727   0.00000  Uiso   1.00
C768   C     0.46553   0.80891   0.35273   0.00000  Uiso   1.00
H769   H     0.56204   0.87731   0.63280   0.00000  Uiso   1.00
H770   H     0.43796   0.78935   0.36720   0.00000  Uiso   1.00
N771   N     0.57496   0.71101   0.45709   0.00000  Uiso   1.00
O772   O     0.61077   0.73244   0.48302   0.00000  Uiso   1.00
O773   O     0.57035   0.71477   0.41287   0.00000  Uiso   1.00
N774   N     0.42504   0.95565   0.54291   0.00000  Uiso   1.00
O775   O     0.38921   0.93425   0.51698   0.00000  Uiso   1.00
O776   O     0.42968   0.95187   0.58713   0.00000  Uiso   1.00
N777   N     0.57650   0.95642   0.45800   0.00000  Uiso   1.00
O778   O     0.58164   0.96189   0.41531   0.00000  Uiso   1.00
O779   O     0.60740   0.93048   0.48271   0.00000  Uiso   1.00
N780   N     0.42350   0.71025   0.54200   0.00000  Uiso   1.00
O781   O     0.41835   0.70476   0.58468   0.00000  Uiso   1.00
O782   O     0.39260   0.73618   0.51730   0.00000  Uiso   1.00
O783   O     0.83333   0.77225   0.53821   0.00000  Uiso   1.00
O784   O     0.83334   0.89442   0.46179   0.00000  Uiso   1.00
O785   O     0.83333   0.77226   0.46176   0.00000  Uiso   1.00
O786   O     0.83334   0.89441   0.53824   0.00000  Uiso   1.00
C787   C     0.83308   0.75344   0.49988   0.00000  Uiso   1.00
C788   C     0.83358   0.91323   0.50013   0.00000  Uiso   1.00
O789   O     0.75725   0.83333   0.52928   0.00000  Uiso   1.00
O790   O     0.90942   0.83334   0.47072   0.00000  Uiso   1.00
O791   O     0.75725   0.83334   0.45284   0.00000  Uiso   1.00
O792   O     0.90942   0.83333   0.54716   0.00000  Uiso   1.00
C793   C     0.73371   0.83339   0.48803   0.00000  Uiso   1.00
C794   C     0.93296   0.83327   0.51197   0.00000  Uiso   1.00
Zn795  Zn    0.83333   0.83333   0.55104   0.00000  Uiso   1.00
Zn796  Zn    0.83333   0.83334   0.44896   0.00000  Uiso   1.00
N797   N     0.83332   0.83332   0.61907   0.00000  Uiso   1.00
N798   N     0.83335   0.83334   0.38093   0.00000  Uiso   1.00
C799   C     0.67867   0.83342   0.48160   0.00000  Uiso   1.00
C800   C     0.98800   0.83325   0.51840   0.00000  Uiso   1.00
H801   H     0.99138   0.83357   0.44668   0.00000  Uiso   1.00
H802   H     0.67529   0.83310   0.55332   0.00000  Uiso   1.00
C803   C     0.86941   0.68839   0.47717   0.00000  Uiso   1.00
C804   C     0.79726   0.97828   0.52283   0.00000  Uiso   1.00
C805   C     0.87020   0.97856   0.47770   0.00000  Uiso   1.00
C806   C     0.79646   0.68811   0.52230   0.00000  Uiso   1.00
C807   C     0.83392   0.95738   0.50041   0.00000  Uiso   1.00
C808   C     0.83275   0.70928   0.49959   0.00000  Uiso   1.00
C809   C     0.86784   0.85775   0.36187   0.00000  Uiso   1.00
C810   C     0.79882   0.80892   0.63813   0.00000  Uiso   1.00
H811   H     0.89549   0.87723   0.38366   0.00000  Uiso   1.00
H812   H     0.77117   0.78943   0.61634   0.00000  Uiso   1.00
C813   C     0.86781   0.85776   0.64727   0.00000  Uiso   1.00
C814   C     0.79886   0.80891   0.35273   0.00000  Uiso   1.00
H815   H     0.89538   0.87731   0.63280   0.00000  Uiso   1.00
H816   H     0.77129   0.78935   0.36720   0.00000  Uiso   1.00
N817   N     0.90830   0.71101   0.45709   0.00000  Uiso   1.00
O818   O     0.94410   0.73244   0.48302   0.00000  Uiso   1.00
O819   O     0.90368   0.71477   0.41287   0.00000  Uiso   1.00
N820   N     0.75838   0.95565   0.54291   0.00000  Uiso   1.00
O821   O     0.72255   0.93425   0.51698   0.00000  Uiso   1.00
O822   O     0.76301   0.95187   0.58713   0.00000  Uiso   1.00
N823   N     0.90983   0.95642   0.45800   0.00000  Uiso   1.00
O824   O     0.91497   0.96189   0.41531   0.00000  Uiso   1.00
O825   O     0.94073   0.93048   0.48271   0.00000  Uiso   1.00
N826   N     0.75684   0.71025   0.54200   0.00000  Uiso   1.00
O827   O     0.75168   0.70476   0.58468   0.00000  Uiso   1.00
O828   O     0.72593   0.73618   0.51730   0.00000  Uiso   1.00
O829   O     0.16666   0.10558   0.87154   0.00000  Uiso   1.00
O830   O     0.16667   0.22775   0.79513   0.00000  Uiso   1.00
O831   O     0.16666   0.10559   0.79510   0.00000  Uiso   1.00
O832   O     0.16667   0.22774   0.87157   0.00000  Uiso   1.00
C833   C     0.16642   0.08677   0.83321   0.00000  Uiso   1.00
C834   C     0.16692   0.24656   0.83346   0.00000  Uiso   1.00
O835   O     0.09058   0.16666   0.86261   0.00000  Uiso   1.00
O836   O     0.24275   0.16667   0.80405   0.00000  Uiso   1.00
O837   O     0.09058   0.16667   0.78617   0.00000  Uiso   1.00
O838   O     0.24275   0.16666   0.88050   0.00000  Uiso   1.00
C839   C     0.06704   0.16673   0.82136   0.00000  Uiso   1.00
C840   C     0.26629   0.16661   0.84530   0.00000  Uiso   1.00
Zn841  Zn    0.16667   0.16666   0.88437   0.00000  Uiso   1.00
Zn842  Zn    0.16667   0.16667   0.78229   0.00000  Uiso   1.00
N843   N     0.16665   0.16666   0.95240   0.00000  Uiso   1.00
N844   N     0.16668   0.16668   0.71427   0.00000  Uiso   1.00
C845   C     0.01200   0.16675   0.81493   0.00000  Uiso   1.00
C846   C     0.32133   0.16658   0.85174   0.00000  Uiso   1.00
H847   H     0.32471   0.16690   0.78002   0.00000  Uiso   1.00
H848   H     0.00862   0.16644   0.88665   0.00000  Uiso   1.00
C849   C     0.20274   0.02172   0.81050   0.00000  Uiso   1.00
C850   C     0.13059   0.31162   0.85616   0.00000  Uiso   1.00
C851   C     0.20354   0.31189   0.81103   0.00000  Uiso   1.00
C852   C     0.12980   0.02144   0.85564   0.00000  Uiso   1.00
C853   C     0.16725   0.29072   0.83374   0.00000  Uiso   1.00
C854   C     0.16609   0.04262   0.83292   0.00000  Uiso   1.00
C855   C     0.20118   0.19108   0.69521   0.00000  Uiso   1.00
C856   C     0.13216   0.14225   0.97146   0.00000  Uiso   1.00
H857   H     0.22883   0.21057   0.71700   0.00000  Uiso   1.00
H858   H     0.10451   0.12277   0.94967   0.00000  Uiso   1.00
C859   C     0.20114   0.19109   0.98060   0.00000  Uiso   1.00
C860   C     0.13219   0.14224   0.68606   0.00000  Uiso   1.00
H861   H     0.22871   0.21064   0.96613   0.00000  Uiso   1.00
H862   H     0.10462   0.12269   0.70054   0.00000  Uiso   1.00
N863   N     0.24163   0.04435   0.79042   0.00000  Uiso   1.00
O864   O     0.27744   0.06577   0.81636   0.00000  Uiso   1.00
O865   O     0.23702   0.04811   0.74620   0.00000  Uiso   1.00
N866   N     0.09171   0.28899   0.87625   0.00000  Uiso   1.00
O867   O     0.05588   0.26758   0.85032   0.00000  Uiso   1.00
O868   O     0.09635   0.28520   0.92046   0.00000  Uiso   1.00
N869   N     0.24317   0.28975   0.79133   0.00000  Uiso   1.00
O870   O     0.24830   0.29522   0.74864   0.00000  Uiso   1.00
O871   O     0.27407   0.26382   0.81604   0.00000  Uiso   1.00
N872   N     0.09017   0.04358   0.87534   0.00000  Uiso   1.00
O873   O     0.08501   0.03810   0.91802   0.00000  Uiso   1.00
O874   O     0.05927   0.06951   0.85063   0.00000  Uiso   1.00
O875   O     0.50000   0.10558   0.87154   0.00000  Uiso   1.00
O876   O     0.50000   0.22775   0.79513   0.00000  Uiso   1.00
O877   O     0.50000   0.10559   0.79510   0.00000  Uiso   1.00
O878   O     0.50000   0.22774   0.87157   0.00000  Uiso   1.00
C879   C     0.49975   0.08677   0.83321   0.00000  Uiso   1.00
C880   C     0.50025   0.24656   0.83346   0.00000  Uiso   1.00
O881   O     0.42392   0.16666   0.86261   0.00000  Uiso   1.00
O882   O     0.57608   0.16667   0.80405   0.00000  Uiso   1.00
O883   O     0.42392   0.16667   0.78617   0.00000  Uiso   1.00
O884   O     0.57608   0.16666   0.88050   0.00000  Uiso   1.00
C885   C     0.40038   0.16673   0.82136   0.00000  Uiso   1.00
C886   C     0.59963   0.16661   0.84530   0.00000  Uiso   1.00
Zn887  Zn    0.50000   0.16666   0.88437   0.00000  Uiso   1.00
Zn888  Zn    0.50000   0.16667   0.78229   0.00000  Uiso   1.00
N889   N     0.49999   0.16666   0.95240   0.00000  Uiso   1.00
N890   N     0.50001   0.16668   0.71427   0.00000  Uiso   1.00
C891   C     0.34534   0.16675   0.81493   0.00000  Uiso   1.00
C892   C     0.65467   0.16658   0.85174   0.00000  Uiso   1.00
H893   H     0.65805   0.16690   0.78002   0.00000  Uiso   1.00
H894   H     0.34195   0.16644   0.88665   0.00000  Uiso   1.00
C895   C     0.53608   0.02172   0.81050   0.00000  Uiso   1.00
C896   C     0.46392   0.31162   0.85616   0.00000  Uiso   1.00
C897   C     0.53687   0.31189   0.81103   0.00000  Uiso   1.00
C898   C     0.46313   0.02144   0.85564   0.00000  Uiso   1.00
C899   C     0.50058   0.29072   0.83374   0.00000  Uiso   1.00
C900   C     0.49942   0.04262   0.83292   0.00000  Uiso   1.00
C901   C     0.53451   0.19108   0.69521   0.00000  Uiso   1.00
C902   C     0.46549   0.14225   0.97146   0.00000  Uiso   1.00
H903   H     0.56216   0.21057   0.71700   0.00000  Uiso   1.00
H904   H     0.43784   0.12277   0.94967   0.00000  Uiso   1.00
C905   C     0.53447   0.19109   0.98060   0.00000  Uiso   1.00
C906   C     0.46553   0.14224   0.68606   0.00000  Uiso   1.00
H907   H     0.56204   0.21064   0.96613   0.00000  Uiso   1.00
H908   H     0.43796   0.12269   0.70054   0.00000  Uiso   1.00
N909   N     0.57496   0.04435   0.79042   0.00000  Uiso   1.00
O910   O     0.61077   0.06577   0.81636   0.00000  Uiso   1.00
O911   O     0.57035   0.04811   0.74620   0.00000  Uiso   1.00
N912   N     0.42504   0.28899   0.87625   0.00000  Uiso   1.00
O913   O     0.38921   0.26758   0.85032   0.00000  Uiso   1.00
O914   O     0.42968   0.28520   0.92046   0.00000  Uiso   1.00
N915   N     0.57650   0.28975   0.79133   0.00000  Uiso   1.00
O916   O     0.58164   0.29522   0.74864   0.00000  Uiso   1.00
O917   O     0.60740   0.26382   0.81604   0.00000  Uiso   1.00
N918   N     0.42350   0.04358   0.87534   0.00000  Uiso   1.00
O919   O     0.41835   0.03810   0.91802   0.00000  Uiso   1.00
O920   O     0.39260   0.06951   0.85063   0.00000  Uiso   1.00
O921   O     0.83333   0.10558   0.87154   0.00000  Uiso   1.00
O922   O     0.83334   0.22775   0.79513   0.00000  Uiso   1.00
O923   O     0.83333   0.10559   0.79510   0.00000  Uiso   1.00
O924   O     0.83334   0.22774   0.87157   0.00000  Uiso   1.00
C925   C     0.83308   0.08677   0.83321   0.00000  Uiso   1.00
C926   C     0.83358   0.24656   0.83346   0.00000  Uiso   1.00
O927   O     0.75725   0.16666   0.86261   0.00000  Uiso   1.00
O928   O     0.90942   0.16667   0.80405   0.00000  Uiso   1.00
O929   O     0.75725   0.16667   0.78617   0.00000  Uiso   1.00
O930   O     0.90942   0.16666   0.88050   0.00000  Uiso   1.00
C931   C     0.73371   0.16673   0.82136   0.00000  Uiso   1.00
C932   C     0.93296   0.16661   0.84530   0.00000  Uiso   1.00
Zn933  Zn    0.83333   0.16666   0.88437   0.00000  Uiso   1.00
Zn934  Zn    0.83333   0.16667   0.78229   0.00000  Uiso   1.00
N935   N     0.83332   0.16666   0.95240   0.00000  Uiso   1.00
N936   N     0.83335   0.16668   0.71427   0.00000  Uiso   1.00
C937   C     0.67867   0.16675   0.81493   0.00000  Uiso   1.00
C938   C     0.98800   0.16658   0.85174   0.00000  Uiso   1.00
H939   H     0.99138   0.16690   0.78002   0.00000  Uiso   1.00
H940   H     0.67529   0.16644   0.88665   0.00000  Uiso   1.00
C941   C     0.86941   0.02172   0.81050   0.00000  Uiso   1.00
C942   C     0.79726   0.31162   0.85616   0.00000  Uiso   1.00
C943   C     0.87020   0.31189   0.81103   0.00000  Uiso   1.00
C944   C     0.79646   0.02144   0.85564   0.00000  Uiso   1.00
C945   C     0.83392   0.29072   0.83374   0.00000  Uiso   1.00
C946   C     0.83275   0.04262   0.83292   0.00000  Uiso   1.00
C947   C     0.86784   0.19108   0.69521   0.00000  Uiso   1.00
C948   C     0.79882   0.14225   0.97146   0.00000  Uiso   1.00
H949   H     0.89549   0.21057   0.71700   0.00000  Uiso   1.00
H950   H     0.77117   0.12277   0.94967   0.00000  Uiso   1.00
C951   C     0.86781   0.19109   0.98060   0.00000  Uiso   1.00
C952   C     0.79886   0.14224   0.68606   0.00000  Uiso   1.00
H953   H     0.89538   0.21064   0.96613   0.00000  Uiso   1.00
H954   H     0.77129   0.12269   0.70054   0.00000  Uiso   1.00
N955   N     0.90830   0.04435   0.79042   0.00000  Uiso   1.00
O956   O     0.94410   0.06577   0.81636   0.00000  Uiso   1.00
O957   O     0.90368   0.04811   0.74620   0.00000  Uiso   1.00
N958   N     0.75838   0.28899   0.87625   0.00000  Uiso   1.00
O959   O     0.72255   0.26758   0.85032   0.00000  Uiso   1.00
O960   O     0.76301   0.28520   0.92046   0.00000  Uiso   1.00
N961   N     0.90983   0.28975   0.79133   0.00000  Uiso   1.00
O962   O     0.91497   0.29522   0.74864   0.00000  Uiso   1.00
O963   O     0.94073   0.26382   0.81604   0.00000  Uiso   1.00
N964   N     0.75684   0.04358   0.87534   0.00000  Uiso   1.00
O965   O     0.75168   0.03810   0.91802   0.00000  Uiso   1.00
O966   O     0.72593   0.06951   0.85063   0.00000  Uiso   1.00
O967   O     0.16666   0.43892   0.87154   0.00000  Uiso   1.00
O968   O     0.16667   0.56108   0.79513   0.00000  Uiso   1.00
O969   O     0.16666   0.43893   0.79510   0.00000  Uiso   1.00
O970   O     0.16667   0.56107   0.87157   0.00000  Uiso   1.00
C971   C     0.16642   0.42011   0.83321   0.00000  Uiso   1.00
C972   C     0.16692   0.57989   0.83346   0.00000  Uiso   1.00
O973   O     0.09058   0.50000   0.86261   0.00000  Uiso   1.00
O974   O     0.24275   0.50000   0.80405   0.00000  Uiso   1.00
O975   O     0.09058   0.50000   0.78617   0.00000  Uiso   1.00
O976   O     0.24275   0.50000   0.88050   0.00000  Uiso   1.00
C977   C     0.06704   0.50006   0.82136   0.00000  Uiso   1.00
C978   C     0.26629   0.49994   0.84530   0.00000  Uiso   1.00
Zn979  Zn    0.16667   0.49999   0.88437   0.00000  Uiso   1.00
Zn980  Zn    0.16667   0.50001   0.78229   0.00000  Uiso   1.00
N981   N     0.16665   0.49999   0.95240   0.00000  Uiso   1.00
N982   N     0.16668   0.50001   0.71427   0.00000  Uiso   1.00
C983   C     0.01200   0.50008   0.81493   0.00000  Uiso   1.00
C984   C     0.32133   0.49992   0.85174   0.00000  Uiso   1.00
H985   H     0.32471   0.50023   0.78002   0.00000  Uiso   1.00
H986   H     0.00862   0.49977   0.88665   0.00000  Uiso   1.00
C987   C     0.20274   0.35505   0.81050   0.00000  Uiso   1.00
C988   C     0.13059   0.64495   0.85616   0.00000  Uiso   1.00
C989   C     0.20354   0.64523   0.81103   0.00000  Uiso   1.00
C990   C     0.12980   0.35477   0.85564   0.00000  Uiso   1.00
C991   C     0.16725   0.62405   0.83374   0.00000  Uiso   1.00
C992   C     0.16609   0.37595   0.83292   0.00000  Uiso   1.00
C993   C     0.20118   0.52441   0.69521   0.00000  Uiso   1.00
C994   C     0.13216   0.47559   0.97146   0.00000  Uiso   1.00
H995   H     0.22883   0.54390   0.71700   0.00000  Uiso   1.00
H996   H     0.10451   0.45610   0.94967   0.00000  Uiso   1.00
C997   C     0.20114   0.52443   0.98060   0.00000  Uiso   1.00
C998   C     0.13219   0.47557   0.68606   0.00000  Uiso   1.00
H999   H     0.22871   0.54398   0.96613   0.00000  Uiso   1.00
H1000  H     0.10462   0.45602   0.70054   0.00000  Uiso   1.00
N1001  N     0.24163   0.37768   0.79042   0.00000  Uiso   1.00
O1002  O     0.27744   0.39911   0.81636   0.00000  Uiso   1.00
O1003  O     0.23702   0.38144   0.74620   0.00000  Uiso   1.00
N1004  N     0.09171   0.62232   0.87625   0.00000  Uiso   1.00
O1005  O     0.05588   0.60091   0.85032   0.00000  Uiso   1.00
O1006  O     0.09635   0.61854   0.92046   0.00000  Uiso   1.00
N1007  N     0.24317   0.62308   0.79133   0.00000  Uiso   1.00
O1008  O     0.24830   0.62855   0.74864   0.00000  Uiso   1.00
O1009  O     0.27407   0.59715   0.81604   0.00000  Uiso   1.00
N1010  N     0.09017   0.37692   0.87534   0.00000  Uiso   1.00
O1011  O     0.08501   0.37143   0.91802   0.00000  Uiso   1.00
O1012  O     0.05927   0.40285   0.85063   0.00000  Uiso   1.00
O1013  O     0.50000   0.43892   0.87154   0.00000  Uiso   1.00
O1014  O     0.50000   0.56108   0.79513   0.00000  Uiso   1.00
O1015  O     0.50000   0.43893   0.79510   0.00000  Uiso   1.00
O1016  O     0.50000   0.56107   0.87157   0.00000  Uiso   1.00
C1017  C     0.49975   0.42011   0.83321   0.00000  Uiso   1.00
C1018  C     0.50025   0.57989   0.83346   0.00000  Uiso   1.00
O1019  O     0.42392   0.50000   0.86261   0.00000  Uiso   1.00
O1020  O     0.57608   0.50000   0.80405   0.00000  Uiso   1.00
O1021  O     0.42392   0.50000   0.78617   0.00000  Uiso   1.00
O1022  O     0.57608   0.50000   0.88050   0.00000  Uiso   1.00
C1023  C     0.40038   0.50006   0.82136   0.00000  Uiso   1.00
C1024  C     0.59963   0.49994   0.84530   0.00000  Uiso   1.00
Zn1025 Zn    0.50000   0.49999   0.88437   0.00000  Uiso   1.00
Zn1026 Zn    0.50000   0.50001   0.78229   0.00000  Uiso   1.00
N1027  N     0.49999   0.49999   0.95240   0.00000  Uiso   1.00
N1028  N     0.50001   0.50001   0.71427   0.00000  Uiso   1.00
C1029  C     0.34534   0.50008   0.81493   0.00000  Uiso   1.00
C1030  C     0.65467   0.49992   0.85174   0.00000  Uiso   1.00
H1031  H     0.65805   0.50023   0.78002   0.00000  Uiso   1.00
H1032  H     0.34195   0.49977   0.88665   0.00000  Uiso   1.00
C1033  C     0.53608   0.35505   0.81050   0.00000  Uiso   1.00
C1034  C     0.46392   0.64495   0.85616   0.00000  Uiso   1.00
C1035  C     0.53687   0.64523   0.81103   0.00000  Uiso   1.00
C1036  C     0.46313   0.35477   0.85564   0.00000  Uiso   1.00
C1037  C     0.50058   0.62405   0.83374   0.00000  Uiso   1.00
C1038  C     0.49942   0.37595   0.83292   0.00000  Uiso   1.00
C1039  C     0.53451   0.52441   0.69521   0.00000  Uiso   1.00
C1040  C     0.46549   0.47559   0.97146   0.00000  Uiso   1.00
H1041  H     0.56216   0.54390   0.71700   0.00000  Uiso   1.00
H1042  H     0.43784   0.45610   0.94967   0.00000  Uiso   1.00
C1043  C     0.53447   0.52443   0.98060   0.00000  Uiso   1.00
C1044  C     0.46553   0.47557   0.68606   0.00000  Uiso   1.00
H1045  H     0.56204   0.54398   0.96613   0.00000  Uiso   1.00
H1046  H     0.43796   0.45602   0.70054   0.00000  Uiso   1.00
N1047  N     0.57496   0.37768   0.79042   0.00000  Uiso   1.00
O1048  O     0.61077   0.39911   0.81636   0.00000  Uiso   1.00
O1049  O     0.57035   0.38144   0.74620   0.00000  Uiso   1.00
N1050  N     0.42504   0.62232   0.87625   0.00000  Uiso   1.00
O1051  O     0.38921   0.60091   0.85032   0.00000  Uiso   1.00
O1052  O     0.42968   0.61854   0.92046   0.00000  Uiso   1.00
N1053  N     0.57650   0.62308   0.79133   0.00000  Uiso   1.00
O1054  O     0.58164   0.62855   0.74864   0.00000  Uiso   1.00
O1055  O     0.60740   0.59715   0.81604   0.00000  Uiso   1.00
N1056  N     0.42350   0.37692   0.87534   0.00000  Uiso   1.00
O1057  O     0.41835   0.37143   0.91802   0.00000  Uiso   1.00
O1058  O     0.39260   0.40285   0.85063   0.00000  Uiso   1.00
O1059  O     0.83333   0.43892   0.87154   0.00000  Uiso   1.00
O1060  O     0.83334   0.56108   0.79513   0.00000  Uiso   1.00
O1061  O     0.83333   0.43893   0.79510   0.00000  Uiso   1.00
O1062  O     0.83334   0.56107   0.87157   0.00000  Uiso   1.00
C1063  C     0.83308   0.42011   0.83321   0.00000  Uiso   1.00
C1064  C     0.83358   0.57989   0.83346   0.00000  Uiso   1.00
O1065  O     0.75725   0.50000   0.86261   0.00000  Uiso   1.00
O1066  O     0.90942   0.50000   0.80405   0.00000  Uiso   1.00
O1067  O     0.75725   0.50000   0.78617   0.00000  Uiso   1.00
O1068  O     0.90942   0.50000   0.88050   0.00000  Uiso   1.00
C1069  C     0.73371   0.50006   0.82136   0.00000  Uiso   1.00
C1070  C     0.93296   0.49994   0.84530   0.00000  Uiso   1.00
Zn1071 Zn    0.83333   0.49999   0.88437   0.00000  Uiso   1.00
Zn1072 Zn    0.83333   0.50001   0.78229   0.00000  Uiso   1.00
N1073  N     0.83332   0.49999   0.95240   0.00000  Uiso   1.00
N1074  N     0.83335   0.50001   0.71427   0.00000  Uiso   1.00
C1075  C     0.67867   0.50008   0.81493   0.00000  Uiso   1.00
C1076  C     0.98800   0.49992   0.85174   0.00000  Uiso   1.00
H1077  H     0.99138   0.50023   0.78002   0.00000  Uiso   1.00
H1078  H     0.67529   0.49977   0.88665   0.00000  Uiso   1.00
C1079  C     0.86941   0.35505   0.81050   0.00000  Uiso   1.00
C1080  C     0.79726   0.64495   0.85616   0.00000  Uiso   1.00
C1081  C     0.87020   0.64523   0.81103   0.00000  Uiso   1.00
C1082  C     0.79646   0.35477   0.85564   0.00000  Uiso   1.00
C1083  C     0.83392   0.62405   0.83374   0.00000  Uiso   1.00
C1084  C     0.83275   0.37595   0.83292   0.00000  Uiso   1.00
C1085  C     0.86784   0.52441   0.69521   0.00000  Uiso   1.00
C1086  C     0.79882   0.47559   0.97146   0.00000  Uiso   1.00
H1087  H     0.89549   0.54390   0.71700   0.00000  Uiso   1.00
H1088  H     0.77117   0.45610   0.94967   0.00000  Uiso   1.00
C1089  C     0.86781   0.52443   0.98060   0.00000  Uiso   1.00
C1090  C     0.79886   0.47557   0.68606   0.00000  Uiso   1.00
H1091  H     0.89538   0.54398   0.96613   0.00000  Uiso   1.00
H1092  H     0.77129   0.45602   0.70054   0.00000  Uiso   1.00
N1093  N     0.90830   0.37768   0.79042   0.00000  Uiso   1.00
O1094  O     0.94410   0.39911   0.81636   0.00000  Uiso   1.00
O1095  O     0.90368   0.38144   0.74620   0.00000  Uiso   1.00
N1096  N     0.75838   0.62232   0.87625   0.00000  Uiso   1.00
O1097  O     0.72255   0.60091   0.85032   0.00000  Uiso   1.00
O1098  O     0.76301   0.61854   0.92046   0.00000  Uiso   1.00
N1099  N     0.90983   0.62308   0.79133   0.00000  Uiso   1.00
O1100  O     0.91497   0.62855   0.74864   0.00000  Uiso   1.00
O1101  O     0.94073   0.59715   0.81604   0.00000  Uiso   1.00
N1102  N     0.75684   0.37692   0.87534   0.00000  Uiso   1.00
O1103  O     0.75168   0.37143   0.91802   0.00000  Uiso   1.00
O1104  O     0.72593   0.40285   0.85063   0.00000  Uiso   1.00
O1105  O     0.16666   0.77225   0.87154   0.00000  Uiso   1.00
O1106  O     0.16667   0.89442   0.79513   0.00000  Uiso   1.00
O1107  O     0.16666   0.77226   0.79510   0.00000  Uiso   1.00
O1108  O     0.16667   0.89441   0.87157   0.00000  Uiso   1.00
C1109  C     0.16642   0.75344   0.83321   0.00000  Uiso   1.00
C1110  C     0.16692   0.91323   0.83346   0.00000  Uiso   1.00
O1111  O     0.09058   0.83333   0.86261   0.00000  Uiso   1.00
O1112  O     0.24275   0.83334   0.80405   0.00000  Uiso   1.00
O1113  O     0.09058   0.83334   0.78617   0.00000  Uiso   1.00
O1114  O     0.24275   0.83333   0.88050   0.00000  Uiso   1.00
C1115  C     0.06704   0.83339   0.82136   0.00000  Uiso   1.00
C1116  C     0.26629   0.83327   0.84530   0.00000  Uiso   1.00
Zn1117 Zn    0.16667   0.83333   0.88437   0.00000  Uiso   1.00
Zn1118 Zn    0.16667   0.83334   0.78229   0.00000  Uiso   1.00
N1119  N     0.16665   0.83332   0.95240   0.00000  Uiso   1.00
N1120  N     0.16668   0.83334   0.71427   0.00000  Uiso   1.00
C1121  C     0.01200   0.83342   0.81493   0.00000  Uiso   1.00
C1122  C     0.32133   0.83325   0.85174   0.00000  Uiso   1.00
H1123  H     0.32471   0.83357   0.78002   0.00000  Uiso   1.00
H1124  H     0.00862   0.83310   0.88665   0.00000  Uiso   1.00
C1125  C     0.20274   0.68839   0.81050   0.00000  Uiso   1.00
C1126  C     0.13059   0.97828   0.85616   0.00000  Uiso   1.00
C1127  C     0.20354   0.97856   0.81103   0.00000  Uiso   1.00
C1128  C     0.12980   0.68811   0.85564   0.00000  Uiso   1.00
C1129  C     0.16725   0.95738   0.83374   0.00000  Uiso   1.00
C1130  C     0.16609   0.70928   0.83292   0.00000  Uiso   1.00
C1131  C     0.20118   0.85775   0.69521   0.00000  Uiso   1.00
C1132  C     0.13216   0.80892   0.97146   0.00000  Uiso   1.00
H1133  H     0.22883   0.87723   0.71700   0.00000  Uiso   1.00
H1134  H     0.10451   0.78943   0.94967   0.00000  Uiso   1.00
C1135  C     0.20114   0.85776   0.98060   0.00000  Uiso   1.00
C1136  C     0.13219   0.80891   0.68606   0.00000  Uiso   1.00
H1137  H     0.22871   0.87731   0.96613   0.00000  Uiso   1.00
H1138  H     0.10462   0.78935   0.70054   0.00000  Uiso   1.00
N1139  N     0.24163   0.71101   0.79042   0.00000  Uiso   1.00
O1140  O     0.27744   0.73244   0.81636   0.00000  Uiso   1.00
O1141  O     0.23702   0.71477   0.74620   0.00000  Uiso   1.00
N1142  N     0.09171   0.95565   0.87625   0.00000  Uiso   1.00
O1143  O     0.05588   0.93425   0.85032   0.00000  Uiso   1.00
O1144  O     0.09635   0.95187   0.92046   0.00000  Uiso   1.00
N1145  N     0.24317   0.95642   0.79133   0.00000  Uiso   1.00
O1146  O     0.24830   0.96189   0.74864   0.00000  Uiso   1.00
O1147  O     0.27407   0.93048   0.81604   0.00000  Uiso   1.00
N1148  N     0.09017   0.71025   0.87534   0.00000  Uiso   1.00
O1149  O     0.08501   0.70476   0.91802   0.00000  Uiso   1.00
O1150  O     0.05927   0.73618   0.85063   0.00000  Uiso   1.00
O1151  O     0.50000   0.77225   0.87154   0.00000  Uiso   1.00
O1152  O     0.50000   0.89442   0.79513   0.00000  Uiso   1.00
O1153  O     0.50000   0.77226   0.79510   0.00000  Uiso   1.00
O1154  O     0.50000   0.89441   0.87157   0.00000  Uiso   1.00
C1155  C     0.49975   0.75344   0.83321   0.00000  Uiso   1.00
C1156  C     0.50025   0.91323   0.83346   0.00000  Uiso   1.00
O1157  O     0.42392   0.83333   0.86261   0.00000  Uiso   1.00
O1158  O     0.57608   0.83334   0.80405   0.00000  Uiso   1.00
O1159  O     0.42392   0.83334   0.78617   0.00000  Uiso   1.00
O1160  O     0.57608   0.83333   0.88050   0.00000  Uiso   1.00
C1161  C     0.40038   0.83339   0.82136   0.00000  Uiso   1.00
C1162  C     0.59963   0.83327   0.84530   0.00000  Uiso   1.00
Zn1163 Zn    0.50000   0.83333   0.88437   0.00000  Uiso   1.00
Zn1164 Zn    0.50000   0.83334   0.78229   0.00000  Uiso   1.00
N1165  N     0.49999   0.83332   0.95240   0.00000  Uiso   1.00
N1166  N     0.50001   0.83334   0.71427   0.00000  Uiso   1.00
C1167  C     0.34534   0.83342   0.81493   0.00000  Uiso   1.00
C1168  C     0.65467   0.83325   0.85174   0.00000  Uiso   1.00
H1169  H     0.65805   0.83357   0.78002   0.00000  Uiso   1.00
H1170  H     0.34195   0.83310   0.88665   0.00000  Uiso   1.00
C1171  C     0.53608   0.68839   0.81050   0.00000  Uiso   1.00
C1172  C     0.46392   0.97828   0.85616   0.00000  Uiso   1.00
C1173  C     0.53687   0.97856   0.81103   0.00000  Uiso   1.00
C1174  C     0.46313   0.68811   0.85564   0.00000  Uiso   1.00
C1175  C     0.50058   0.95738   0.83374   0.00000  Uiso   1.00
C1176  C     0.49942   0.70928   0.83292   0.00000  Uiso   1.00
C1177  C     0.53451   0.85775   0.69521   0.00000  Uiso   1.00
C1178  C     0.46549   0.80892   0.97146   0.00000  Uiso   1.00
H1179  H     0.56216   0.87723   0.71700   0.00000  Uiso   1.00
H1180  H     0.43784   0.78943   0.94967   0.00000  Uiso   1.00
C1181  C     0.53447   0.85776   0.98060   0.00000  Uiso   1.00
C1182  C     0.46553   0.80891   0.68606   0.00000  Uiso   1.00
H1183  H     0.56204   0.87731   0.96613   0.00000  Uiso   1.00
H1184  H     0.43796   0.78935   0.70054   0.00000  Uiso   1.00
N1185  N     0.57496   0.71101   0.79042   0.00000  Uiso   1.00
O1186  O     0.61077   0.73244   0.81636   0.00000  Uiso   1.00
O1187  O     0.57035   0.71477   0.74620   0.00000  Uiso   1.00
N1188  N     0.42504   0.95565   0.87625   0.00000  Uiso   1.00
O1189  O     0.38921   0.93425   0.85032   0.00000  Uiso   1.00
O1190  O     0.42968   0.95187   0.92046   0.00000  Uiso   1.00
N1191  N     0.57650   0.95642   0.79133   0.00000  Uiso   1.00
O1192  O     0.58164   0.96189   0.74864   0.00000  Uiso   1.00
O1193  O     0.60740   0.93048   0.81604   0.00000  Uiso   1.00
N1194  N     0.42350   0.71025   0.87534   0.00000  Uiso   1.00
O1195  O     0.41835   0.70476   0.91802   0.00000  Uiso   1.00
O1196  O     0.39260   0.73618   0.85063   0.00000  Uiso   1.00
O1197  O     0.83333   0.77225   0.87154   0.00000  Uiso   1.00
O1198  O     0.83334   0.89442   0.79513   0.00000  Uiso   1.00
O1199  O     0.83333   0.77226   0.79510   0.00000  Uiso   1.00
O1200  O     0.83334   0.89441   0.87157   0.00000  Uiso   1.00
C1201  C     0.83308   0.75344   0.83321   0.00000  Uiso   1.00
C1202  C     0.83358   0.91323   0.83346   0.00000  Uiso   1.00
O1203  O     0.75725   0.83333   0.86261   0.00000  Uiso   1.00
O1204  O     0.90942   0.83334   0.80405   0.00000  Uiso   1.00
O1205  O     0.75725   0.83334   0.78617   0.00000  Uiso   1.00
O1206  O     0.90942   0.83333   0.88050   0.00000  Uiso   1.00
C1207  C     0.73371   0.83339   0.82136   0.00000  Uiso   1.00
C1208  C     0.93296   0.83327   0.84530   0.00000  Uiso   1.00
Zn1209 Zn    0.83333   0.83333   0.88437   0.00000  Uiso   1.00
Zn1210 Zn    0.83333   0.83334   0.78229   0.00000  Uiso   1.00
N1211  N     0.83332   0.83332   0.95240   0.00000  Uiso   1.00
N1212  N     0.83335   0.83334   0.71427   0.00000  Uiso   1.00
C1213  C     0.67867   0.83342   0.81493   0.00000  Uiso   1.00
C1214  C     0.98800   0.83325   0.85174   0.00000  Uiso   1.00
H1215  H     0.99138   0.83357   0.78002   0.00000  Uiso   1.00
H1216  H     0.67529   0.83310   0.88665   0.00000  Uiso   1.00
C1217  C     0.86941   0.68839   0.81050   0.00000  Uiso   1.00
C1218  C     0.79726   0.97828   0.85616   0.00000  Uiso   1.00
C1219  C     0.87020   0.97856   0.81103   0.00000  Uiso   1.00
C1220  C     0.79646   0.68811   0.85564   0.00000  Uiso   1.00
C1221  C     0.83392   0.95738   0.83374   0.00000  Uiso   1.00
C1222  C     0.83275   0.70928   0.83292   0.00000  Uiso   1.00
C1223  C     0.86784   0.85775   0.69521   0.00000  Uiso   1.00
C1224  C     0.79882   0.80892   0.97146   0.00000  Uiso   1.00
H1225  H     0.89549   0.87723   0.71700   0.00000  Uiso   1.00
H1226  H     0.77117   0.78943   0.94967   0.00000  Uiso   1.00
C1227  C     0.86781   0.85776   0.98060   0.00000  Uiso   1.00
C1228  C     0.79886   0.80891   0.68606   0.00000  Uiso   1.00
H1229  H     0.89538   0.87731   0.96613   0.00000  Uiso   1.00
H1230  H     0.77129   0.78935   0.70054   0.00000  Uiso   1.00
N1231  N     0.90830   0.71101   0.79042   0.00000  Uiso   1.00
O1232  O     0.94410   0.73244   0.81636   0.00000  Uiso   1.00
O1233  O     0.90368   0.71477   0.74620   0.00000  Uiso   1.00
N1234  N     0.75838   0.95565   0.87625   0.00000  Uiso   1.00
O1235  O     0.72255   0.93425   0.85032   0.00000  Uiso   1.00
O1236  O     0.76301   0.95187   0.92046   0.00000  Uiso   1.00
N1237  N     0.90983   0.95642   0.79133   0.00000  Uiso   1.00
O1238  O     0.91497   0.96189   0.74864   0.00000  Uiso   1.00
O1239  O     0.94073   0.93048   0.81604   0.00000  Uiso   1.00
N1240  N     0.75684   0.71025   0.87534   0.00000  Uiso   1.00
O1241  O     0.75168   0.70476   0.91802   0.00000  Uiso   1.00
O1242  O     0.72593   0.73618   0.85063   0.00000  Uiso   1.00
loop_
_geom_bond_atom_site_label_1
_geom_bond_atom_site_label_2
_geom_bond_distance
_geom_bond_site_symmetry_2
_ccdc_geom_bond_type
O1     C5      1.281   .     A
O1     Zn13    1.992   .     S
O2     C6      1.281   .     A
O2     Zn14    1.992   .     S
O3     Zn14    1.994   .     S
O3     C5      1.280   .     A
O4     C6      1.280   .     A
O4     Zn13    1.994   .     S
C5     C26     1.415   .     S
C6     C25     1.415   .     S
O7     C11     1.278   .     A
O7     Zn13    1.971   .     S
O8     C12     1.278   .     A
O8     Zn14    1.971   .     S
O9     Zn14    1.982   .     S
O9     C11     1.281   .     A
O10    C12     1.281   .     A
O10    Zn13    1.982   .     S
C11    C17     1.403   .     S
C12    C18     1.403   .     S
Zn13   N15     2.011   .     S
Zn14   N16     2.011   .     S
N15    C31     1.367   .     A
N15    C28     1.367   .     A
N16    C27     1.367   .     A
N16    C32     1.367   .     A
C17    C110    1.330   1_455 S
C17    H111    1.088   1_455 S
C18    C63     1.330   .     S
C18    H66     1.088   .     S
H19    C63     1.088   .     S
H20    C110    1.088   1_455 S
C21    N35     1.435   .     S
C21    C26     1.404   .     A
C21    C299    1.383   1_545 S
C22    N38     1.435   .     S
C22    C25     1.404   .     A
C22    C162    1.383   .     S
C23    N41     1.438   .     S
C23    C25     1.405   .     A
C23    C159    1.383   .     S
C24    C26     1.405   .     A
C24    N44     1.438   .     S
C24    C298    1.383   1_545 S
C27    H29     1.082   .     S
C27    C859    1.417   1_554 S
C28    H30     1.082   .     S
C28    C446    1.417   .     S
C31    H33     1.082   .     S
C31    C441    1.417   .     S
C32    H34     1.082   .     S
C32    C856    1.417   1_554 S
N35    O36     1.301   .     A
N35    O37     1.301   .     A
N38    O40     1.301   .     A
N38    O39     1.301   .     A
N41    O43     1.301   .     A
N41    O42     1.301   .     A
N44    O45     1.301   .     A
N44    O46     1.301   .     A
O47    C51     1.281   .     A
O47    Zn59    1.992   .     S
O48    C52     1.281   .     A
O48    Zn60    1.992   .     S
O49    Zn60    1.994   .     S
O49    C51     1.280   .     A
O50    C52     1.280   .     A
O50    Zn59    1.994   .     S
C51    C72     1.415   .     S
C52    C71     1.415   .     S
O53    C57     1.278   .     A
O53    Zn59    1.971   .     S
O54    C58     1.278   .     A
O54    Zn60    1.971   .     S
O55    Zn60    1.982   .     S
O55    C57     1.281   .     A
O56    C58     1.281   .     A
O56    Zn59    1.982   .     S
C57    C63     1.403   .     S
C58    C64     1.403   .     S
Zn59   N61     2.011   .     S
Zn60   N62     2.011   .     S
N61    C77     1.367   .     A
N61    C74     1.367   .     A
N62    C73     1.367   .     A
N62    C78     1.367   .     A
C64    C109    1.330   .     S
C64    H112    1.088   .     S
H65    C109    1.088   .     S
C67    N81     1.435   .     S
C67    C72     1.404   .     A
C67    C345    1.383   1_545 S
C68    N84     1.435   .     S
C68    C71     1.404   .     A
C68    C208    1.383   .     S
C69    N87     1.438   .     S
C69    C71     1.405   .     A
C69    C205    1.383   .     S
C70    C72     1.405   .     A
C70    N90     1.438   .     S
C70    C344    1.383   1_545 S
C73    H75     1.082   .     S
C73    C905    1.417   1_554 S
C74    H76     1.082   .     S
C74    C492    1.417   .     S
C77    H79     1.082   .     S
C77    C487    1.417   .     S
C78    H80     1.082   .     S
C78    C902    1.417   1_554 S
N81    O82     1.301   .     A
N81    O83     1.301   .     A
N84    O86     1.301   .     A
N84    O85     1.301   .     A
N87    O89     1.301   .     A
N87    O88     1.301   .     A
N90    O91     1.301   .     A
N90    O92     1.301   .     A
O93    C97     1.281   .     A
O93    Zn105   1.992   .     S
O94    C98     1.281   .     A
O94    Zn106   1.992   .     S
O95    Zn106   1.994   .     S
O95    C97     1.280   .     A
O96    C98     1.280   .     A
O96    Zn105   1.994   .     S
C97    C118    1.415   .     S
C98    C117    1.415   .     S
O99    C103    1.278   .     A
O99    Zn105   1.971   .     S
O100   C104    1.278   .     A
O100   Zn106   1.971   .     S
O101   Zn106   1.982   .     S
O101   C103    1.281   .     A
O102   C104    1.281   .     A
O102   Zn105   1.982   .     S
C103   C109    1.403   .     S
C104   C110    1.403   .     S
Zn105  N107    2.011   .     S
Zn106  N108    2.011   .     S
N107   C123    1.367   .     A
N107   C120    1.367   .     A
N108   C119    1.367   .     A
N108   C124    1.367   .     A
C110   C17     1.330   1_655 S
C110   H20     1.088   1_655 S
H111   C17     1.088   1_655 S
C113   N127    1.435   .     S
C113   C118    1.404   .     A
C113   C391    1.383   1_545 S
C114   N130    1.435   .     S
C114   C117    1.404   .     A
C114   C254    1.383   .     S
C115   N133    1.438   .     S
C115   C117    1.405   .     A
C115   C251    1.383   .     S
C116   C118    1.405   .     A
C116   N136    1.438   .     S
C116   C390    1.383   1_545 S
C119   H121    1.082   .     S
C119   C951    1.417   1_554 S
C120   H122    1.082   .     S
C120   C538    1.417   .     S
C123   H125    1.082   .     S
C123   C533    1.417   .     S
C124   H126    1.082   .     S
C124   C948    1.417   1_554 S
N127   O128    1.301   .     A
N127   O129    1.301   .     A
N130   O132    1.301   .     A
N130   O131    1.301   .     A
N133   O135    1.301   .     A
N133   O134    1.301   .     A
N136   O137    1.301   .     A
N136   O138    1.301   .     A
O139   C143    1.281   .     A
O139   Zn151   1.992   .     S
O140   C144    1.281   .     A
O140   Zn152   1.992   .     S
O141   Zn152   1.994   .     S
O141   C143    1.280   .     A
O142   C144    1.280   .     A
O142   Zn151   1.994   .     S
C143   C164    1.415   .     S
C144   C163    1.415   .     S
O145   C149    1.278   .     A
O145   Zn151   1.971   .     S
O146   C150    1.278   .     A
O146   Zn152   1.971   .     S
O147   Zn152   1.982   .     S
O147   C149    1.281   .     A
O148   C150    1.281   .     A
O148   Zn151   1.982   .     S
C149   C155    1.403   .     S
C150   C156    1.403   .     S
Zn151  N153    2.011   .     S
Zn152  N154    2.011   .     S
N153   C169    1.367   .     A
N153   C166    1.367   .     A
N154   C165    1.367   .     A
N154   C170    1.367   .     A
C155   C248    1.330   1_455 S
C155   H249    1.088   1_455 S
C156   C201    1.330   .     S
C156   H204    1.088   .     S
H157   C201    1.088   .     S
H158   C248    1.088   1_455 S
C159   N173    1.435   .     S
C159   C164    1.404   .     A
C160   N176    1.435   .     S
C160   C163    1.404   .     A
C160   C300    1.383   .     S
C161   N179    1.438   .     S
C161   C163    1.405   .     A
C161   C297    1.383   .     S
C162   C164    1.405   .     A
C162   N182    1.438   .     S
C165   H167    1.082   .     S
C165   C997    1.417   1_554 S
C166   H168    1.082   .     S
C166   C584    1.417   .     S
C169   H171    1.082   .     S
C169   C579    1.417   .     S
C170   H172    1.082   .     S
C170   C994    1.417   1_554 S
N173   O174    1.301   .     A
N173   O175    1.301   .     A
N176   O178    1.301   .     A
N176   O177    1.301   .     A
N179   O181    1.301   .     A
N179   O180    1.301   .     A
N182   O183    1.301   .     A
N182   O184    1.301   .     A
O185   C189    1.281   .     A
O185   Zn197   1.992   .     S
O186   C190    1.281   .     A
O186   Zn198   1.992   .     S
O187   Zn198   1.994   .     S
O187   C189    1.280   .     A
O188   C190    1.280   .     A
O188   Zn197   1.994   .     S
C189   C210    1.415   .     S
C190   C209    1.415   .     S
O191   C195    1.278   .     A
O191   Zn197   1.971   .     S
O192   C196    1.278   .     A
O192   Zn198   1.971   .     S
O193   Zn198   1.982   .     S
O193   C195    1.281   .     A
O194   C196    1.281   .     A
O194   Zn197   1.982   .     S
C195   C201    1.403   .     S
C196   C202    1.403   .     S
Zn197  N199    2.011   .     S
Zn198  N200    2.011   .     S
N199   C215    1.367   .     A
N199   C212    1.367   .     A
N200   C211    1.367   .     A
N200   C216    1.367   .     A
C202   C247    1.330   .     S
C202   H250    1.088   .     S
H203   C247    1.088   .     S
C205   N219    1.435   .     S
C205   C210    1.404   .     A
C206   N222    1.435   .     S
C206   C209    1.404   .     A
C206   C346    1.383   .     S
C207   N225    1.438   .     S
C207   C209    1.405   .     A
C207   C343    1.383   .     S
C208   C210    1.405   .     A
C208   N228    1.438   .     S
C211   H213    1.082   .     S
C211   C1043   1.417   1_554 S
C212   H214    1.082   .     S
C212   C630    1.417   .     S
C215   H217    1.082   .     S
C215   C625    1.417   .     S
C216   H218    1.082   .     S
C216   C1040   1.417   1_554 S
N219   O220    1.301   .     A
N219   O221    1.301   .     A
N222   O224    1.301   .     A
N222   O223    1.301   .     A
N225   O227    1.301   .     A
N225   O226    1.301   .     A
N228   O229    1.301   .     A
N228   O230    1.301   .     A
O231   C235    1.281   .     A
O231   Zn243   1.992   .     S
O232   C236    1.281   .     A
O232   Zn244   1.992   .     S
O233   Zn244   1.994   .     S
O233   C235    1.280   .     A
O234   C236    1.280   .     A
O234   Zn243   1.994   .     S
C235   C256    1.415   .     S
C236   C255    1.415   .     S
O237   C241    1.278   .     A
O237   Zn243   1.971   .     S
O238   C242    1.278   .     A
O238   Zn244   1.971   .     S
O239   Zn244   1.982   .     S
O239   C241    1.281   .     A
O240   C242    1.281   .     A
O240   Zn243   1.982   .     S
C241   C247    1.403   .     S
C242   C248    1.403   .     S
Zn243  N245    2.011   .     S
Zn244  N246    2.011   .     S
N245   C261    1.367   .     A
N245   C258    1.367   .     A
N246   C257    1.367   .     A
N246   C262    1.367   .     A
C248   C155    1.330   1_655 S
C248   H158    1.088   1_655 S
H249   C155    1.088   1_655 S
C251   N265    1.435   .     S
C251   C256    1.404   .     A
C252   N268    1.435   .     S
C252   C255    1.404   .     A
C252   C392    1.383   .     S
C253   N271    1.438   .     S
C253   C255    1.405   .     A
C253   C389    1.383   .     S
C254   C256    1.405   .     A
C254   N274    1.438   .     S
C257   H259    1.082   .     S
C257   C1089   1.417   1_554 S
C258   H260    1.082   .     S
C258   C676    1.417   .     S
C261   H263    1.082   .     S
C261   C671    1.417   .     S
C262   H264    1.082   .     S
C262   C1086   1.417   1_554 S
N265   O266    1.301   .     A
N265   O267    1.301   .     A
N268   O270    1.301   .     A
N268   O269    1.301   .     A
N271   O273    1.301   .     A
N271   O272    1.301   .     A
N274   O275    1.301   .     A
N274   O276    1.301   .     A
O277   C281    1.281   .     A
O277   Zn289   1.992   .     S
O278   C282    1.281   .     A
O278   Zn290   1.992   .     S
O279   Zn290   1.994   .     S
O279   C281    1.280   .     A
O280   C282    1.280   .     A
O280   Zn289   1.994   .     S
C281   C302    1.415   .     S
C282   C301    1.415   .     S
O283   C287    1.278   .     A
O283   Zn289   1.971   .     S
O284   C288    1.278   .     A
O284   Zn290   1.971   .     S
O285   Zn290   1.982   .     S
O285   C287    1.281   .     A
O286   C288    1.281   .     A
O286   Zn289   1.982   .     S
C287   C293    1.403   .     S
C288   C294    1.403   .     S
Zn289  N291    2.011   .     S
Zn290  N292    2.011   .     S
N291   C307    1.367   .     A
N291   C304    1.367   .     A
N292   C303    1.367   .     A
N292   C308    1.367   .     A
C293   C386    1.330   1_455 S
C293   H387    1.088   1_455 S
C294   C339    1.330   .     S
C294   H342    1.088   .     S
H295   C339    1.088   .     S
H296   C386    1.088   1_455 S
C297   N311    1.435   .     S
C297   C302    1.404   .     A
C298   N314    1.435   .     S
C298   C301    1.404   .     A
C298   C24     1.383   1_565 S
C299   N317    1.438   .     S
C299   C301    1.405   .     A
C299   C21     1.383   1_565 S
C300   C302    1.405   .     A
C300   N320    1.438   .     S
C303   H305    1.082   .     S
C303   C1135   1.417   1_554 S
C304   H306    1.082   .     S
C304   C722    1.417   .     S
C307   H309    1.082   .     S
C307   C717    1.417   .     S
C308   H310    1.082   .     S
C308   C1132   1.417   1_554 S
N311   O312    1.301   .     A
N311   O313    1.301   .     A
N314   O316    1.301   .     A
N314   O315    1.301   .     A
N317   O319    1.301   .     A
N317   O318    1.301   .     A
N320   O321    1.301   .     A
N320   O322    1.301   .     A
O323   C327    1.281   .     A
O323   Zn335   1.992   .     S
O324   C328    1.281   .     A
O324   Zn336   1.992   .     S
O325   Zn336   1.994   .     S
O325   C327    1.280   .     A
O326   C328    1.280   .     A
O326   Zn335   1.994   .     S
C327   C348    1.415   .     S
C328   C347    1.415   .     S
O329   C333    1.278   .     A
O329   Zn335   1.971   .     S
O330   C334    1.278   .     A
O330   Zn336   1.971   .     S
O331   Zn336   1.982   .     S
O331   C333    1.281   .     A
O332   C334    1.281   .     A
O332   Zn335   1.982   .     S
C333   C339    1.403   .     S
C334   C340    1.403   .     S
Zn335  N337    2.011   .     S
Zn336  N338    2.011   .     S
N337   C353    1.367   .     A
N337   C350    1.367   .     A
N338   C349    1.367   .     A
N338   C354    1.367   .     A
C340   C385    1.330   .     S
C340   H388    1.088   .     S
H341   C385    1.088   .     S
C343   N357    1.435   .     S
C343   C348    1.404   .     A
C344   N360    1.435   .     S
C344   C347    1.404   .     A
C344   C70     1.383   1_565 S
C345   N363    1.438   .     S
C345   C347    1.405   .     A
C345   C67     1.383   1_565 S
C346   C348    1.405   .     A
C346   N366    1.438   .     S
C349   H351    1.082   .     S
C349   C1181   1.417   1_554 S
C350   H352    1.082   .     S
C350   C768    1.417   .     S
C353   H355    1.082   .     S
C353   C763    1.417   .     S
C354   H356    1.082   .     S
C354   C1178   1.417   1_554 S
N357   O358    1.301   .     A
N357   O359    1.301   .     A
N360   O362    1.301   .     A
N360   O361    1.301   .     A
N363   O365    1.301   .     A
N363   O364    1.301   .     A
N366   O367    1.301   .     A
N366   O368    1.301   .     A
O369   C373    1.281   .     A
O369   Zn381   1.992   .     S
O370   C374    1.281   .     A
O370   Zn382   1.992   .     S
O371   Zn382   1.994   .     S
O371   C373    1.280   .     A
O372   C374    1.280   .     A
O372   Zn381   1.994   .     S
C373   C394    1.415   .     S
C374   C393    1.415   .     S
O375   C379    1.278   .     A
O375   Zn381   1.971   .     S
O376   C380    1.278   .     A
O376   Zn382   1.971   .     S
O377   Zn382   1.982   .     S
O377   C379    1.281   .     A
O378   C380    1.281   .     A
O378   Zn381   1.982   .     S
C379   C385    1.403   .     S
C380   C386    1.403   .     S
Zn381  N383    2.011   .     S
Zn382  N384    2.011   .     S
N383   C399    1.367   .     A
N383   C396    1.367   .     A
N384   C395    1.367   .     A
N384   C400    1.367   .     A
C386   C293    1.330   1_655 S
C386   H296    1.088   1_655 S
H387   C293    1.088   1_655 S
C389   N403    1.435   .     S
C389   C394    1.404   .     A
C390   N406    1.435   .     S
C390   C393    1.404   .     A
C390   C116    1.383   1_565 S
C391   N409    1.438   .     S
C391   C393    1.405   .     A
C391   C113    1.383   1_565 S
C392   C394    1.405   .     A
C392   N412    1.438   .     S
C395   H397    1.082   .     S
C395   C1227   1.417   1_554 S
C396   H398    1.082   .     S
C396   C814    1.417   .     S
C399   H401    1.082   .     S
C399   C809    1.417   .     S
C400   H402    1.082   .     S
C400   C1224   1.417   1_554 S
N403   O404    1.301   .     A
N403   O405    1.301   .     A
N406   O408    1.301   .     A
N406   O407    1.301   .     A
N409   O411    1.301   .     A
N409   O410    1.301   .     A
N412   O413    1.301   .     A
N412   O414    1.301   .     A
O415   C419    1.281   .     A
O415   Zn427   1.992   .     S
O416   C420    1.281   .     A
O416   Zn428   1.992   .     S
O417   Zn428   1.994   .     S
O417   C419    1.280   .     A
O418   C420    1.280   .     A
O418   Zn427   1.994   .     S
C419   C440    1.415   .     S
C420   C439    1.415   .     S
O421   C425    1.278   .     A
O421   Zn427   1.971   .     S
O422   C426    1.278   .     A
O422   Zn428   1.971   .     S
O423   Zn428   1.982   .     S
O423   C425    1.281   .     A
O424   C426    1.281   .     A
O424   Zn427   1.982   .     S
C425   C431    1.403   .     S
C426   C432    1.403   .     S
Zn427  N429    2.011   .     S
Zn428  N430    2.011   .     S
N429   C445    1.367   .     A
N429   C442    1.367   .     A
N430   C441    1.367   .     A
N430   C446    1.367   .     A
C431   C524    1.330   1_455 S
C431   H525    1.088   1_455 S
C432   C477    1.330   .     S
C432   H480    1.088   .     S
H433   C477    1.088   .     S
H434   C524    1.088   1_455 S
C435   N449    1.435   .     S
C435   C440    1.404   .     A
C435   C713    1.383   1_545 S
C436   N452    1.435   .     S
C436   C439    1.404   .     A
C436   C576    1.383   .     S
C437   N455    1.438   .     S
C437   C439    1.405   .     A
C437   C573    1.383   .     S
C438   C440    1.405   .     A
C438   N458    1.438   .     S
C438   C712    1.383   1_545 S
C441   H443    1.082   .     S
C442   H444    1.082   .     S
C442   C860    1.417   .     S
C445   H447    1.082   .     S
C445   C855    1.417   .     S
C446   H448    1.082   .     S
N449   O450    1.301   .     A
N449   O451    1.301   .     A
N452   O454    1.301   .     A
N452   O453    1.301   .     A
N455   O457    1.301   .     A
N455   O456    1.301   .     A
N458   O459    1.301   .     A
N458   O460    1.301   .     A
O461   C465    1.281   .     A
O461   Zn473   1.992   .     S
O462   C466    1.281   .     A
O462   Zn474   1.992   .     S
O463   Zn474   1.994   .     S
O463   C465    1.280   .     A
O464   C466    1.280   .     A
O464   Zn473   1.994   .     S
C465   C486    1.415   .     S
C466   C485    1.415   .     S
O467   C471    1.278   .     A
O467   Zn473   1.971   .     S
O468   C472    1.278   .     A
O468   Zn474   1.971   .     S
O469   Zn474   1.982   .     S
O469   C471    1.281   .     A
O470   C472    1.281   .     A
O470   Zn473   1.982   .     S
C471   C477    1.403   .     S
C472   C478    1.403   .     S
Zn473  N475    2.011   .     S
Zn474  N476    2.011   .     S
N475   C491    1.367   .     A
N475   C488    1.367   .     A
N476   C487    1.367   .     A
N476   C492    1.367   .     A
C478   C523    1.330   .     S
C478   H526    1.088   .     S
H479   C523    1.088   .     S
C481   N495    1.435   .     S
C481   C486    1.404   .     A
C481   C759    1.383   1_545 S
C482   N498    1.435   .     S
C482   C485    1.404   .     A
C482   C622    1.383   .     S
C483   N501    1.438   .     S
C483   C485    1.405   .     A
C483   C619    1.383   .     S
C484   C486    1.405   .     A
C484   N504    1.438   .     S
C484   C758    1.383   1_545 S
C487   H489    1.082   .     S
C488   H490    1.082   .     S
C488   C906    1.417   .     S
C491   H493    1.082   .     S
C491   C901    1.417   .     S
C492   H494    1.082   .     S
N495   O496    1.301   .     A
N495   O497    1.301   .     A
N498   O500    1.301   .     A
N498   O499    1.301   .     A
N501   O503    1.301   .     A
N501   O502    1.301   .     A
N504   O505    1.301   .     A
N504   O506    1.301   .     A
O507   C511    1.281   .     A
O507   Zn519   1.992   .     S
O508   C512    1.281   .     A
O508   Zn520   1.992   .     S
O509   Zn520   1.994   .     S
O509   C511    1.280   .     A
O510   C512    1.280   .     A
O510   Zn519   1.994   .     S
C511   C532    1.415   .     S
C512   C531    1.415   .     S
O513   C517    1.278   .     A
O513   Zn519   1.971   .     S
O514   C518    1.278   .     A
O514   Zn520   1.971   .     S
O515   Zn520   1.982   .     S
O515   C517    1.281   .     A
O516   C518    1.281   .     A
O516   Zn519   1.982   .     S
C517   C523    1.403   .     S
C518   C524    1.403   .     S
Zn519  N521    2.011   .     S
Zn520  N522    2.011   .     S
N521   C537    1.367   .     A
N521   C534    1.367   .     A
N522   C533    1.367   .     A
N522   C538    1.367   .     A
C524   C431    1.330   1_655 S
C524   H434    1.088   1_655 S
H525   C431    1.088   1_655 S
C527   N541    1.435   .     S
C527   C532    1.404   .     A
C527   C805    1.383   1_545 S
C528   N544    1.435   .     S
C528   C531    1.404   .     A
C528   C668    1.383   .     S
C529   N547    1.438   .     S
C529   C531    1.405   .     A
C529   C665    1.383   .     S
C530   C532    1.405   .     A
C530   N550    1.438   .     S
C530   C804    1.383   1_545 S
C533   H535    1.082   .     S
C534   H536    1.082   .     S
C534   C952    1.417   .     S
C537   H539    1.082   .     S
C537   C947    1.417   .     S
C538   H540    1.082   .     S
N541   O542    1.301   .     A
N541   O543    1.301   .     A
N544   O546    1.301   .     A
N544   O545    1.301   .     A
N547   O549    1.301   .     A
N547   O548    1.301   .     A
N550   O551    1.301   .     A
N550   O552    1.301   .     A
O553   C557    1.281   .     A
O553   Zn565   1.992   .     S
O554   C558    1.281   .     A
O554   Zn566   1.992   .     S
O555   Zn566   1.994   .     S
O555   C557    1.280   .     A
O556   C558    1.280   .     A
O556   Zn565   1.994   .     S
C557   C578    1.415   .     S
C558   C577    1.415   .     S
O559   C563    1.278   .     A
O559   Zn565   1.971   .     S
O560   C564    1.278   .     A
O560   Zn566   1.971   .     S
O561   Zn566   1.982   .     S
O561   C563    1.281   .     A
O562   C564    1.281   .     A
O562   Zn565   1.982   .     S
C563   C569    1.403   .     S
C564   C570    1.403   .     S
Zn565  N567    2.011   .     S
Zn566  N568    2.011   .     S
N567   C583    1.367   .     A
N567   C580    1.367   .     A
N568   C579    1.367   .     A
N568   C584    1.367   .     A
C569   C662    1.330   1_455 S
C569   H663    1.088   1_455 S
C570   C615    1.330   .     S
C570   H618    1.088   .     S
H571   C615    1.088   .     S
H572   C662    1.088   1_455 S
C573   N587    1.435   .     S
C573   C578    1.404   .     A
C574   N590    1.435   .     S
C574   C577    1.404   .     A
C574   C714    1.383   .     S
C575   N593    1.438   .     S
C575   C577    1.405   .     A
C575   C711    1.383   .     S
C576   C578    1.405   .     A
C576   N596    1.438   .     S
C579   H581    1.082   .     S
C580   H582    1.082   .     S
C580   C998    1.417   .     S
C583   H585    1.082   .     S
C583   C993    1.417   .     S
C584   H586    1.082   .     S
N587   O588    1.301   .     A
N587   O589    1.301   .     A
N590   O592    1.301   .     A
N590   O591    1.301   .     A
N593   O595    1.301   .     A
N593   O594    1.301   .     A
N596   O597    1.301   .     A
N596   O598    1.301   .     A
O599   C603    1.281   .     A
O599   Zn611   1.992   .     S
O600   C604    1.281   .     A
O600   Zn612   1.992   .     S
O601   Zn612   1.994   .     S
O601   C603    1.280   .     A
O602   C604    1.280   .     A
O602   Zn611   1.994   .     S
C603   C624    1.415   .     S
C604   C623    1.415   .     S
O605   C609    1.278   .     A
O605   Zn611   1.971   .     S
O606   C610    1.278   .     A
O606   Zn612   1.971   .     S
O607   Zn612   1.982   .     S
O607   C609    1.281   .     A
O608   C610    1.281   .     A
O608   Zn611   1.982   .     S
C609   C615    1.403   .     S
C610   C616    1.403   .     S
Zn611  N613    2.011   .     S
Zn612  N614    2.011   .     S
N613   C629    1.367   .     A
N613   C626    1.367   .     A
N614   C625    1.367   .     A
N614   C630    1.367   .     A
C616   C661    1.330   .     S
C616   H664    1.088   .     S
H617   C661    1.088   .     S
C619   N633    1.435   .     S
C619   C624    1.404   .     A
C620   N636    1.435   .     S
C620   C623    1.404   .     A
C620   C760    1.383   .     S
C621   N639    1.438   .     S
C621   C623    1.405   .     A
C621   C757    1.383   .     S
C622   C624    1.405   .     A
C622   N642    1.438   .     S
C625   H627    1.082   .     S
C626   H628    1.082   .     S
C626   C1044   1.417   .     S
C629   H631    1.082   .     S
C629   C1039   1.417   .     S
C630   H632    1.082   .     S
N633   O634    1.301   .     A
N633   O635    1.301   .     A
N636   O638    1.301   .     A
N636   O637    1.301   .     A
N639   O641    1.301   .     A
N639   O640    1.301   .     A
N642   O643    1.301   .     A
N642   O644    1.301   .     A
O645   C649    1.281   .     A
O645   Zn657   1.992   .     S
O646   C650    1.281   .     A
O646   Zn658   1.992   .     S
O647   Zn658   1.994   .     S
O647   C649    1.280   .     A
O648   C650    1.280   .     A
O648   Zn657   1.994   .     S
C649   C670    1.415   .     S
C650   C669    1.415   .     S
O651   C655    1.278   .     A
O651   Zn657   1.971   .     S
O652   C656    1.278   .     A
O652   Zn658   1.971   .     S
O653   Zn658   1.982   .     S
O653   C655    1.281   .     A
O654   C656    1.281   .     A
O654   Zn657   1.982   .     S
C655   C661    1.403   .     S
C656   C662    1.403   .     S
Zn657  N659    2.011   .     S
Zn658  N660    2.011   .     S
N659   C675    1.367   .     A
N659   C672    1.367   .     A
N660   C671    1.367   .     A
N660   C676    1.367   .     A
C662   C569    1.330   1_655 S
C662   H572    1.088   1_655 S
H663   C569    1.088   1_655 S
C665   N679    1.435   .     S
C665   C670    1.404   .     A
C666   N682    1.435   .     S
C666   C669    1.404   .     A
C666   C806    1.383   .     S
C667   N685    1.438   .     S
C667   C669    1.405   .     A
C667   C803    1.383   .     S
C668   C670    1.405   .     A
C668   N688    1.438   .     S
C671   H673    1.082   .     S
C672   H674    1.082   .     S
C672   C1090   1.417   .     S
C675   H677    1.082   .     S
C675   C1085   1.417   .     S
C676   H678    1.082   .     S
N679   O680    1.301   .     A
N679   O681    1.301   .     A
N682   O684    1.301   .     A
N682   O683    1.301   .     A
N685   O687    1.301   .     A
N685   O686    1.301   .     A
N688   O689    1.301   .     A
N688   O690    1.301   .     A
O691   C695    1.281   .     A
O691   Zn703   1.992   .     S
O692   C696    1.281   .     A
O692   Zn704   1.992   .     S
O693   Zn704   1.994   .     S
O693   C695    1.280   .     A
O694   C696    1.280   .     A
O694   Zn703   1.994   .     S
C695   C716    1.415   .     S
C696   C715    1.415   .     S
O697   C701    1.278   .     A
O697   Zn703   1.971   .     S
O698   C702    1.278   .     A
O698   Zn704   1.971   .     S
O699   Zn704   1.982   .     S
O699   C701    1.281   .     A
O700   C702    1.281   .     A
O700   Zn703   1.982   .     S
C701   C707    1.403   .     S
C702   C708    1.403   .     S
Zn703  N705    2.011   .     S
Zn704  N706    2.011   .     S
N705   C721    1.367   .     A
N705   C718    1.367   .     A
N706   C717    1.367   .     A
N706   C722    1.367   .     A
C707   C800    1.330   1_455 S
C707   H801    1.088   1_455 S
C708   C753    1.330   .     S
C708   H756    1.088   .     S
H709   C753    1.088   .     S
H710   C800    1.088   1_455 S
C711   N725    1.435   .     S
C711   C716    1.404   .     A
C712   N728    1.435   .     S
C712   C715    1.404   .     A
C712   C438    1.383   1_565 S
C713   N731    1.438   .     S
C713   C715    1.405   .     A
C713   C435    1.383   1_565 S
C714   C716    1.405   .     A
C714   N734    1.438   .     S
C717   H719    1.082   .     S
C718   H720    1.082   .     S
C718   C1136   1.417   .     S
C721   H723    1.082   .     S
C721   C1131   1.417   .     S
C722   H724    1.082   .     S
N725   O726    1.301   .     A
N725   O727    1.301   .     A
N728   O730    1.301   .     A
N728   O729    1.301   .     A
N731   O733    1.301   .     A
N731   O732    1.301   .     A
N734   O735    1.301   .     A
N734   O736    1.301   .     A
O737   C741    1.281   .     A
O737   Zn749   1.992   .     S
O738   C742    1.281   .     A
O738   Zn750   1.992   .     S
O739   Zn750   1.994   .     S
O739   C741    1.280   .     A
O740   C742    1.280   .     A
O740   Zn749   1.994   .     S
C741   C762    1.415   .     S
C742   C761    1.415   .     S
O743   C747    1.278   .     A
O743   Zn749   1.971   .     S
O744   C748    1.278   .     A
O744   Zn750   1.971   .     S
O745   Zn750   1.982   .     S
O745   C747    1.281   .     A
O746   C748    1.281   .     A
O746   Zn749   1.982   .     S
C747   C753    1.403   .     S
C748   C754    1.403   .     S
Zn749  N751    2.011   .     S
Zn750  N752    2.011   .     S
N751   C767    1.367   .     A
N751   C764    1.367   .     A
N752   C763    1.367   .     A
N752   C768    1.367   .     A
C754   C799    1.330   .     S
C754   H802    1.088   .     S
H755   C799    1.088   .     S
C757   N771    1.435   .     S
C757   C762    1.404   .     A
C758   N774    1.435   .     S
C758   C761    1.404   .     A
C758   C484    1.383   1_565 S
C759   N777    1.438   .     S
C759   C761    1.405   .     A
C759   C481    1.383   1_565 S
C760   C762    1.405   .     A
C760   N780    1.438   .     S
C763   H765    1.082   .     S
C764   H766    1.082   .     S
C764   C1182   1.417   .     S
C767   H769    1.082   .     S
C767   C1177   1.417   .     S
C768   H770    1.082   .     S
N771   O772    1.301   .     A
N771   O773    1.301   .     A
N774   O776    1.301   .     A
N774   O775    1.301   .     A
N777   O779    1.301   .     A
N777   O778    1.301   .     A
N780   O781    1.301   .     A
N780   O782    1.301   .     A
O783   C787    1.281   .     A
O783   Zn795   1.992   .     S
O784   C788    1.281   .     A
O784   Zn796   1.992   .     S
O785   Zn796   1.994   .     S
O785   C787    1.280   .     A
O786   C788    1.280   .     A
O786   Zn795   1.994   .     S
C787   C808    1.415   .     S
C788   C807    1.415   .     S
O789   C793    1.278   .     A
O789   Zn795   1.971   .     S
O790   C794    1.278   .     A
O790   Zn796   1.971   .     S
O791   Zn796   1.982   .     S
O791   C793    1.281   .     A
O792   C794    1.281   .     A
O792   Zn795   1.982   .     S
C793   C799    1.403   .     S
C794   C800    1.403   .     S
Zn795  N797    2.011   .     S
Zn796  N798    2.011   .     S
N797   C813    1.367   .     A
N797   C810    1.367   .     A
N798   C809    1.367   .     A
N798   C814    1.367   .     A
C800   C707    1.330   1_655 S
C800   H710    1.088   1_655 S
H801   C707    1.088   1_655 S
C803   N817    1.435   .     S
C803   C808    1.404   .     A
C804   N820    1.435   .     S
C804   C807    1.404   .     A
C804   C530    1.383   1_565 S
C805   N823    1.438   .     S
C805   C807    1.405   .     A
C805   C527    1.383   1_565 S
C806   C808    1.405   .     A
C806   N826    1.438   .     S
C809   H811    1.082   .     S
C810   H812    1.082   .     S
C810   C1228   1.417   .     S
C813   H815    1.082   .     S
C813   C1223   1.417   .     S
C814   H816    1.082   .     S
N817   O818    1.301   .     A
N817   O819    1.301   .     A
N820   O822    1.301   .     A
N820   O821    1.301   .     A
N823   O825    1.301   .     A
N823   O824    1.301   .     A
N826   O827    1.301   .     A
N826   O828    1.301   .     A
O829   C833    1.281   .     A
O829   Zn841   1.992   .     S
O830   C834    1.281   .     A
O830   Zn842   1.992   .     S
O831   Zn842   1.994   .     S
O831   C833    1.280   .     A
O832   C834    1.280   .     A
O832   Zn841   1.994   .     S
C833   C854    1.415   .     S
C834   C853    1.415   .     S
O835   C839    1.278   .     A
O835   Zn841   1.971   .     S
O836   C840    1.278   .     A
O836   Zn842   1.971   .     S
O837   Zn842   1.982   .     S
O837   C839    1.281   .     A
O838   C840    1.281   .     A
O838   Zn841   1.982   .     S
C839   C845    1.403   .     S
C840   C846    1.403   .     S
Zn841  N843    2.011   .     S
Zn842  N844    2.011   .     S
N843   C859    1.367   .     A
N843   C856    1.367   .     A
N844   C855    1.367   .     A
N844   C860    1.367   .     A
C845   C938    1.330   1_455 S
C845   H939    1.088   1_455 S
C846   C891    1.330   .     S
C846   H894    1.088   .     S
H847   C891    1.088   .     S
H848   C938    1.088   1_455 S
C849   N863    1.435   .     S
C849   C854    1.404   .     A
C849   C1127   1.383   1_545 S
C850   N866    1.435   .     S
C850   C853    1.404   .     A
C850   C990    1.383   .     S
C851   N869    1.438   .     S
C851   C853    1.405   .     A
C851   C987    1.383   .     S
C852   C854    1.405   .     A
C852   N872    1.438   .     S
C852   C1126   1.383   1_545 S
C855   H857    1.082   .     S
C856   H858    1.082   .     S
C856   C32     1.417   1_556 S
C859   H861    1.082   .     S
C859   C27     1.417   1_556 S
C860   H862    1.082   .     S
N863   O864    1.301   .     A
N863   O865    1.301   .     A
N866   O868    1.301   .     A
N866   O867    1.301   .     A
N869   O871    1.301   .     A
N869   O870    1.301   .     A
N872   O873    1.301   .     A
N872   O874    1.301   .     A
O875   C879    1.281   .     A
O875   Zn887   1.992   .     S
O876   C880    1.281   .     A
O876   Zn888   1.992   .     S
O877   Zn888   1.994   .     S
O877   C879    1.280   .     A
O878   C880    1.280   .     A
O878   Zn887   1.994   .     S
C879   C900    1.415   .     S
C880   C899    1.415   .     S
O881   C885    1.278   .     A
O881   Zn887   1.971   .     S
O882   C886    1.278   .     A
O882   Zn888   1.971   .     S
O883   Zn888   1.982   .     S
O883   C885    1.281   .     A
O884   C886    1.281   .     A
O884   Zn887   1.982   .     S
C885   C891    1.403   .     S
C886   C892    1.403   .     S
Zn887  N889    2.011   .     S
Zn888  N890    2.011   .     S
N889   C905    1.367   .     A
N889   C902    1.367   .     A
N890   C901    1.367   .     A
N890   C906    1.367   .     A
C892   C937    1.330   .     S
C892   H940    1.088   .     S
H893   C937    1.088   .     S
C895   N909    1.435   .     S
C895   C900    1.404   .     A
C895   C1173   1.383   1_545 S
C896   N912    1.435   .     S
C896   C899    1.404   .     A
C896   C1036   1.383   .     S
C897   N915    1.438   .     S
C897   C899    1.405   .     A
C897   C1033   1.383   .     S
C898   C900    1.405   .     A
C898   N918    1.438   .     S
C898   C1172   1.383   1_545 S
C901   H903    1.082   .     S
C902   H904    1.082   .     S
C902   C78     1.417   1_556 S
C905   H907    1.082   .     S
C905   C73     1.417   1_556 S
C906   H908    1.082   .     S
N909   O910    1.301   .     A
N909   O911    1.301   .     A
N912   O914    1.301   .     A
N912   O913    1.301   .     A
N915   O917    1.301   .     A
N915   O916    1.301   .     A
N918   O919    1.301   .     A
N918   O920    1.301   .     A
O921   C925    1.281   .     A
O921   Zn933   1.992   .     S
O922   C926    1.281   .     A
O922   Zn934   1.992   .     S
O923   Zn934   1.994   .     S
O923   C925    1.280   .     A
O924   C926    1.280   .     A
O924   Zn933   1.994   .     S
C925   C946    1.415   .     S
C926   C945    1.415   .     S
O927   C931    1.278   .     A
O927   Zn933   1.971   .     S
O928   C932    1.278   .     A
O928   Zn934   1.971   .     S
O929   Zn934   1.982   .     S
O929   C931    1.281   .     A
O930   C932    1.281   .     A
O930   Zn933   1.982   .     S
C931   C937    1.403   .     S
C932   C938    1.403   .     S
Zn933  N935    2.011   .     S
Zn934  N936    2.011   .     S
N935   C951    1.367   .     A
N935   C948    1.367   .     A
N936   C947    1.367   .     A
N936   C952    1.367   .     A
C938   C845    1.330   1_655 S
C938   H848    1.088   1_655 S
H939   C845    1.088   1_655 S
C941   N955    1.435   .     S
C941   C946    1.404   .     A
C941   C1219   1.383   1_545 S
C942   N958    1.435   .     S
C942   C945    1.404   .     A
C942   C1082   1.383   .     S
C943   N961    1.438   .     S
C943   C945    1.405   .     A
C943   C1079   1.383   .     S
C944   C946    1.405   .     A
C944   N964    1.438   .     S
C944   C1218   1.383   1_545 S
C947   H949    1.082   .     S
C948   H950    1.082   .     S
C948   C124    1.417   1_556 S
C951   H953    1.082   .     S
C951   C119    1.417   1_556 S
C952   H954    1.082   .     S
N955   O956    1.301   .     A
N955   O957    1.301   .     A
N958   O960    1.301   .     A
N958   O959    1.301   .     A
N961   O963    1.301   .     A
N961   O962    1.301   .     A
N964   O965    1.301   .     A
N964   O966    1.301   .     A
O967   C971    1.281   .     A
O967   Zn979   1.992   .     S
O968   C972    1.281   .     A
O968   Zn980   1.992   .     S
O969   Zn980   1.994   .     S
O969   C971    1.280   .     A
O970   C972    1.280   .     A
O970   Zn979   1.994   .     S
C971   C992    1.415   .     S
C972   C991    1.415   .     S
O973   C977    1.278   .     A
O973   Zn979   1.971   .     S
O974   C978    1.278   .     A
O974   Zn980   1.971   .     S
O975   Zn980   1.982   .     S
O975   C977    1.281   .     A
O976   C978    1.281   .     A
O976   Zn979   1.982   .     S
C977   C983    1.403   .     S
C978   C984    1.403   .     S
Zn979  N981    2.011   .     S
Zn980  N982    2.011   .     S
N981   C997    1.367   .     A
N981   C994    1.367   .     A
N982   C993    1.367   .     A
N982   C998    1.367   .     A
C983   C1076   1.330   1_455 S
C983   H1077   1.088   1_455 S
C984   C1029   1.330   .     S
C984   H1032   1.088   .     S
H985   C1029   1.088   .     S
H986   C1076   1.088   1_455 S
C987   N1001   1.435   .     S
C987   C992    1.404   .     A
C988   N1004   1.435   .     S
C988   C991    1.404   .     A
C988   C1128   1.383   .     S
C989   N1007   1.438   .     S
C989   C991    1.405   .     A
C989   C1125   1.383   .     S
C990   C992    1.405   .     A
C990   N1010   1.438   .     S
C993   H995    1.082   .     S
C994   H996    1.082   .     S
C994   C170    1.417   1_556 S
C997   H999    1.082   .     S
C997   C165    1.417   1_556 S
C998   H1000   1.082   .     S
N1001  O1002   1.301   .     A
N1001  O1003   1.301   .     A
N1004  O1006   1.301   .     A
N1004  O1005   1.301   .     A
N1007  O1009   1.301   .     A
N1007  O1008   1.301   .     A
N1010  O1011   1.301   .     A
N1010  O1012   1.301   .     A
O1013  C1017   1.281   .     A
O1013  Zn1025  1.992   .     S
O1014  C1018   1.281   .     A
O1014  Zn1026  1.992   .     S
O1015  Zn1026  1.994   .     S
O1015  C1017   1.280   .     A
O1016  C1018   1.280   .     A
O1016  Zn1025  1.994   .     S
C1017  C1038   1.415   .     S
C1018  C1037   1.415   .     S
O1019  C1023   1.278   .     A
O1019  Zn1025  1.971   .     S
O1020  C1024   1.278   .     A
O1020  Zn1026  1.971   .     S
O1021  Zn1026  1.982   .     S
O1021  C1023   1.281   .     A
O1022  C1024   1.281   .     A
O1022  Zn1025  1.982   .     S
C1023  C1029   1.403   .     S
C1024  C1030   1.403   .     S
Zn1025 N1027   2.011   .     S
Zn1026 N1028   2.011   .     S
N1027  C1043   1.367   .     A
N1027  C1040   1.367   .     A
N1028  C1039   1.367   .     A
N1028  C1044   1.367   .     A
C1030  C1075   1.330   .     S
C1030  H1078   1.088   .     S
H1031  C1075   1.088   .     S
C1033  N1047   1.435   .     S
C1033  C1038   1.404   .     A
C1034  N1050   1.435   .     S
C1034  C1037   1.404   .     A
C1034  C1174   1.383   .     S
C1035  N1053   1.438   .     S
C1035  C1037   1.405   .     A
C1035  C1171   1.383   .     S
C1036  C1038   1.405   .     A
C1036  N1056   1.438   .     S
C1039  H1041   1.082   .     S
C1040  H1042   1.082   .     S
C1040  C216    1.417   1_556 S
C1043  H1045   1.082   .     S
C1043  C211    1.417   1_556 S
C1044  H1046   1.082   .     S
N1047  O1048   1.301   .     A
N1047  O1049   1.301   .     A
N1050  O1052   1.301   .     A
N1050  O1051   1.301   .     A
N1053  O1055   1.301   .     A
N1053  O1054   1.301   .     A
N1056  O1057   1.301   .     A
N1056  O1058   1.301   .     A
O1059  C1063   1.281   .     A
O1059  Zn1071  1.992   .     S
O1060  C1064   1.281   .     A
O1060  Zn1072  1.992   .     S
O1061  Zn1072  1.994   .     S
O1061  C1063   1.280   .     A
O1062  C1064   1.280   .     A
O1062  Zn1071  1.994   .     S
C1063  C1084   1.415   .     S
C1064  C1083   1.415   .     S
O1065  C1069   1.278   .     A
O1065  Zn1071  1.971   .     S
O1066  C1070   1.278   .     A
O1066  Zn1072  1.971   .     S
O1067  Zn1072  1.982   .     S
O1067  C1069   1.281   .     A
O1068  C1070   1.281   .     A
O1068  Zn1071  1.982   .     S
C1069  C1075   1.403   .     S
C1070  C1076   1.403   .     S
Zn1071 N1073   2.011   .     S
Zn1072 N1074   2.011   .     S
N1073  C1089   1.367   .     A
N1073  C1086   1.367   .     A
N1074  C1085   1.367   .     A
N1074  C1090   1.367   .     A
C1076  C983    1.330   1_655 S
C1076  H986    1.088   1_655 S
H1077  C983    1.088   1_655 S
C1079  N1093   1.435   .     S
C1079  C1084   1.404   .     A
C1080  N1096   1.435   .     S
C1080  C1083   1.404   .     A
C1080  C1220   1.383   .     S
C1081  N1099   1.438   .     S
C1081  C1083   1.405   .     A
C1081  C1217   1.383   .     S
C1082  C1084   1.405   .     A
C1082  N1102   1.438   .     S
C1085  H1087   1.082   .     S
C1086  H1088   1.082   .     S
C1086  C262    1.417   1_556 S
C1089  H1091   1.082   .     S
C1089  C257    1.417   1_556 S
C1090  H1092   1.082   .     S
N1093  O1094   1.301   .     A
N1093  O1095   1.301   .     A
N1096  O1098   1.301   .     A
N1096  O1097   1.301   .     A
N1099  O1101   1.301   .     A
N1099  O1100   1.301   .     A
N1102  O1103   1.301   .     A
N1102  O1104   1.301   .     A
O1105  C1109   1.281   .     A
O1105  Zn1117  1.992   .     S
O1106  C1110   1.281   .     A
O1106  Zn1118  1.992   .     S
O1107  Zn1118  1.994   .     S
O1107  C1109   1.280   .     A
O1108  C1110   1.280   .     A
O1108  Zn1117  1.994   .     S
C1109  C1130   1.415   .     S
C1110  C1129   1.415   .     S
O1111  C1115   1.278   .     A
O1111  Zn1117  1.971   .     S
O1112  C1116   1.278   .     A
O1112  Zn1118  1.971   .     S
O1113  Zn1118  1.982   .     S
O1113  C1115   1.281   .     A
O1114  C1116   1.281   .     A
O1114  Zn1117  1.982   .     S
C1115  C1121   1.403   .     S
C1116  C1122   1.403   .     S
Zn1117 N1119   2.011   .     S
Zn1118 N1120   2.011   .     S
N1119  C1135   1.367   .     A
N1119  C1132   1.367   .     A
N1120  C1131   1.367   .     A
N1120  C1136   1.367   .     A
C1121  C1214   1.330   1_455 S
C1121  H1215   1.088   1_455 S
C1122  C1167   1.330   .     S
C1122  H1170   1.088   .     S
H1123  C1167   1.088   .     S
H1124  C1214   1.088   1_455 S
C1125  N1139   1.435   .     S
C1125  C1130   1.404   .     A
C1126  N1142   1.435   .     S
C1126  C1129   1.404   .     A
C1126  C852    1.383   1_565 S
C1127  N1145   1.438   .     S
C1127  C1129   1.405   .     A
C1127  C849    1.383   1_565 S
C1128  C1130   1.405   .     A
C1128  N1148   1.438   .     S
C1131  H1133   1.082   .     S
C1132  H1134   1.082   .     S
C1132  C308    1.417   1_556 S
C1135  H1137   1.082   .     S
C1135  C303    1.417   1_556 S
C1136  H1138   1.082   .     S
N1139  O1140   1.301   .     A
N1139  O1141   1.301   .     A
N1142  O1144   1.301   .     A
N1142  O1143   1.301   .     A
N1145  O1147   1.301   .     A
N1145  O1146   1.301   .     A
N1148  O1149   1.301   .     A
N1148  O1150   1.301   .     A
O1151  C1155   1.281   .     A
O1151  Zn1163  1.992   .     S
O1152  C1156   1.281   .     A
O1152  Zn1164  1.992   .     S
O1153  Zn1164  1.994   .     S
O1153  C1155   1.280   .     A
O1154  C1156   1.280   .     A
O1154  Zn1163  1.994   .     S
C1155  C1176   1.415   .     S
C1156  C1175   1.415   .     S
O1157  C1161   1.278   .     A
O1157  Zn1163  1.971   .     S
O1158  C1162   1.278   .     A
O1158  Zn1164  1.971   .     S
O1159  Zn1164  1.982   .     S
O1159  C1161   1.281   .     A
O1160  C1162   1.281   .     A
O1160  Zn1163  1.982   .     S
C1161  C1167   1.403   .     S
C1162  C1168   1.403   .     S
Zn1163 N1165   2.011   .     S
Zn1164 N1166   2.011   .     S
N1165  C1181   1.367   .     A
N1165  C1178   1.367   .     A
N1166  C1177   1.367   .     A
N1166  C1182   1.367   .     A
C1168  C1213   1.330   .     S
C1168  H1216   1.088   .     S
H1169  C1213   1.088   .     S
C1171  N1185   1.435   .     S
C1171  C1176   1.404   .     A
C1172  N1188   1.435   .     S
C1172  C1175   1.404   .     A
C1172  C898    1.383   1_565 S
C1173  N1191   1.438   .     S
C1173  C1175   1.405   .     A
C1173  C895    1.383   1_565 S
C1174  C1176   1.405   .     A
C1174  N1194   1.438   .     S
C1177  H1179   1.082   .     S
C1178  H1180   1.082   .     S
C1178  C354    1.417   1_556 S
C1181  H1183   1.082   .     S
C1181  C349    1.417   1_556 S
C1182  H1184   1.082   .     S
N1185  O1186   1.301   .     A
N1185  O1187   1.301   .     A
N1188  O1190   1.301   .     A
N1188  O1189   1.301   .     A
N1191  O1193   1.301   .     A
N1191  O1192   1.301   .     A
N1194  O1195   1.301   .     A
N1194  O1196   1.301   .     A
O1197  C1201   1.281   .     A
O1197  Zn1209  1.992   .     S
O1198  C1202   1.281   .     A
O1198  Zn1210  1.992   .     S
O1199  Zn1210  1.994   .     S
O1199  C1201   1.280   .     A
O1200  C1202   1.280   .     A
O1200  Zn1209  1.994   .     S
C1201  C1222   1.415   .     S
C1202  C1221   1.415   .     S
O1203  C1207   1.278   .     A
O1203  Zn1209  1.971   .     S
O1204  C1208   1.278   .     A
O1204  Zn1210  1.971   .     S
O1205  Zn1210  1.982   .     S
O1205  C1207   1.281   .     A
O1206  C1208   1.281   .     A
O1206  Zn1209  1.982   .     S
C1207  C1213   1.403   .     S
C1208  C1214   1.403   .     S
Zn1209 N1211   2.011   .     S
Zn1210 N1212   2.011   .     S
N1211  C1227   1.367   .     A
N1211  C1224   1.367   .     A
N1212  C1223   1.367   .     A
N1212  C1228   1.367   .     A
C1214  C1121   1.330   1_655 S
C1214  H1124   1.088   1_655 S
H1215  C1121   1.088   1_655 S
C1217  N1231   1.435   .     S
C1217  C1222   1.404   .     A
C1218  N1234   1.435   .     S
C1218  C1221   1.404   .     A
C1218  C944    1.383   1_565 S
C1219  N1237   1.438   .     S
C1219  C1221   1.405   .     A
C1219  C941    1.383   1_565 S
C1220  C1222   1.405   .     A
C1220  N1240   1.438   .     S
C1223  H1225   1.082   .     S
C1224  H1226   1.082   .     S
C1224  C400    1.417   1_556 S
C1227  H1229   1.082   .     S
C1227  C395    1.417   1_556 S
C1228  H1230   1.082   .     S
N1231  O1232   1.301   .     A
N1231  O1233   1.301   .     A
N1234  O1236   1.301   .     A
N1234  O1235   1.301   .     A
N1237  O1239   1.301   .     A
N1237  O1238   1.301   .     A
N1240  O1241   1.301   .     A
N1240  O1242   1.301   .     A
