data_str_m3_o1_o17_pcu_sym.3
_audit_creation_date              2020-01-03
_audit_creation_method            'Materials Studio'
_symmetry_space_group_name_H-M    'P1'
_symmetry_Int_Tables_number       1
_symmetry_cell_setting            triclinic
loop_
_symmetry_equiv_pos_as_xyz
  x,y,z
_cell_length_a                    32.1770
_cell_length_b                    29.4762
_cell_length_c                    30.0912
_cell_angle_alpha                 90.5650
_cell_angle_beta                  90.2579
_cell_angle_gamma                 89.9947
loop_
_atom_site_label
_atom_site_type_symbol
_atom_site_fract_x
_atom_site_fract_y
_atom_site_fract_z
_atom_site_U_iso_or_equiv
_atom_site_adp_type
_atom_site_occupancy
C1     C     0.08660   0.16667   0.24996   0.00000  Uiso   1.00
C2     C     0.04246   0.16667   0.24995   0.00000  Uiso   1.00
C3     C     0.19341   0.02427   0.27677   0.00000  Uiso   1.00
C4     C     0.13993   0.30906   0.22323   0.00000  Uiso   1.00
C5     C     0.13990   0.02374   0.22326   0.00000  Uiso   1.00
C6     C     0.19343   0.30960   0.27674   0.00000  Uiso   1.00
C7     C     0.16628   0.16640   0.16326   0.00000  Uiso   1.00
C8     C     0.16705   0.16693   0.33674   0.00000  Uiso   1.00
C9     C     0.17690   0.20750   0.40822   0.00000  Uiso   1.00
C10    C     0.15643   0.12584   0.09178   0.00000  Uiso   1.00
C11    C     0.16743   0.16747   0.38470   0.00000  Uiso   1.00
C12    C     0.24673   0.16667   0.25004   0.00000  Uiso   1.00
C13    C     0.16590   0.16586   0.11530   0.00000  Uiso   1.00
C14    C     0.15810   0.12743   0.40690   0.00000  Uiso   1.00
C15    C     0.17523   0.20590   0.09310   0.00000  Uiso   1.00
C16    C     0.15781   0.12673   0.45283   0.00000  Uiso   1.00
C17    C     0.17552   0.20661   0.04717   0.00000  Uiso   1.00
C18    C     0.16690   0.16693   0.47682   0.00000  Uiso   1.00
C19    C     0.16643   0.16640   0.02318   0.00000  Uiso   1.00
C20    C     0.17648   0.20763   0.45447   0.00000  Uiso   1.00
C21    C     0.15685   0.12571   0.04553   0.00000  Uiso   1.00
C22    C     0.14844   0.08649   0.47506   0.00000  Uiso   1.00
C23    C     0.14794   0.08590   0.02114   0.00000  Uiso   1.00
C24    C     0.18488   0.24684   0.02494   0.00000  Uiso   1.00
C25    C     0.18539   0.24743   0.47886   0.00000  Uiso   1.00
C26    C     0.02127   0.12545   0.24587   0.00000  Uiso   1.00
C27    C     0.31207   0.20788   0.25413   0.00000  Uiso   1.00
C28    C     0.31204   0.12544   0.24593   0.00000  Uiso   1.00
C29    C     0.02130   0.20789   0.25407   0.00000  Uiso   1.00
C30    C     0.29087   0.16666   0.25005   0.00000  Uiso   1.00
F31    F     0.18705   0.24595   0.38615   0.00000  Uiso   1.00
F32    F     0.22029   0.28710   0.30344   0.00000  Uiso   1.00
F33    F     0.14628   0.08739   0.11385   0.00000  Uiso   1.00
F34    F     0.13978   0.04763   0.45217   0.00000  Uiso   1.00
F35    F     0.19355   0.28570   0.04783   0.00000  Uiso   1.00
F36    F     0.13884   0.04625   0.04156   0.00000  Uiso   1.00
F37    F     0.19449   0.28709   0.45844   0.00000  Uiso   1.00
F38    F     0.22014   0.04730   0.30362   0.00000  Uiso   1.00
F39    F     0.11319   0.28603   0.19638   0.00000  Uiso   1.00
F40    F     0.11304   0.04623   0.19656   0.00000  Uiso   1.00
H41    H     0.15072   0.09677   0.38829   0.00000  Uiso   1.00
H42    H     0.18261   0.23656   0.11171   0.00000  Uiso   1.00
H43    H     0.03741   0.09334   0.24251   0.00000  Uiso   1.00
H44    H     0.29592   0.23999   0.25749   0.00000  Uiso   1.00
H45    H     0.29587   0.09333   0.24262   0.00000  Uiso   1.00
H46    H     0.03747   0.24000   0.25738   0.00000  Uiso   1.00
N47    N     0.16667   0.28573   0.25000   0.00000  Uiso   1.00
N48    N     0.16667   0.04760   0.25000   0.00000  Uiso   1.00
O49    O     0.10559   0.20487   0.25000   0.00000  Uiso   1.00
O50    O     0.22774   0.12846   0.25001   0.00000  Uiso   1.00
O51    O     0.22774   0.20487   0.25001   0.00000  Uiso   1.00
O52    O     0.10559   0.12846   0.25000   0.00000  Uiso   1.00
O53    O     0.16666   0.20489   0.18393   0.00000  Uiso   1.00
O54    O     0.16667   0.12844   0.31608   0.00000  Uiso   1.00
O55    O     0.16667   0.20489   0.31608   0.00000  Uiso   1.00
O56    O     0.16666   0.12844   0.18393   0.00000  Uiso   1.00
Zn57   Zn    0.16667   0.21771   0.25000   0.00000  Uiso   1.00
Zn58   Zn    0.16667   0.11563   0.25000   0.00000  Uiso   1.00
C59    C     0.41994   0.16667   0.24996   0.00000  Uiso   1.00
C60    C     0.37579   0.16667   0.24995   0.00000  Uiso   1.00
C61    C     0.52674   0.02427   0.27677   0.00000  Uiso   1.00
C62    C     0.47326   0.30906   0.22323   0.00000  Uiso   1.00
C63    C     0.47324   0.02374   0.22326   0.00000  Uiso   1.00
C64    C     0.52676   0.30960   0.27674   0.00000  Uiso   1.00
C65    C     0.49961   0.16640   0.16326   0.00000  Uiso   1.00
C66    C     0.50038   0.16693   0.33674   0.00000  Uiso   1.00
C67    C     0.51023   0.20750   0.40822   0.00000  Uiso   1.00
C68    C     0.48977   0.12584   0.09178   0.00000  Uiso   1.00
C69    C     0.50076   0.16747   0.38470   0.00000  Uiso   1.00
C70    C     0.58006   0.16667   0.25004   0.00000  Uiso   1.00
C71    C     0.49924   0.16586   0.11530   0.00000  Uiso   1.00
C72    C     0.49144   0.12743   0.40690   0.00000  Uiso   1.00
C73    C     0.50856   0.20590   0.09310   0.00000  Uiso   1.00
C74    C     0.49114   0.12673   0.45283   0.00000  Uiso   1.00
C75    C     0.50886   0.20661   0.04717   0.00000  Uiso   1.00
C76    C     0.50023   0.16693   0.47682   0.00000  Uiso   1.00
C77    C     0.49976   0.16640   0.02318   0.00000  Uiso   1.00
C78    C     0.50982   0.20763   0.45447   0.00000  Uiso   1.00
C79    C     0.49018   0.12571   0.04553   0.00000  Uiso   1.00
C80    C     0.48178   0.08649   0.47506   0.00000  Uiso   1.00
C81    C     0.48127   0.08590   0.02114   0.00000  Uiso   1.00
C82    C     0.51822   0.24684   0.02494   0.00000  Uiso   1.00
C83    C     0.51872   0.24743   0.47886   0.00000  Uiso   1.00
C84    C     0.35460   0.12545   0.24587   0.00000  Uiso   1.00
C85    C     0.64540   0.20788   0.25413   0.00000  Uiso   1.00
C86    C     0.64537   0.12544   0.24593   0.00000  Uiso   1.00
C87    C     0.35463   0.20789   0.25407   0.00000  Uiso   1.00
C88    C     0.62421   0.16666   0.25005   0.00000  Uiso   1.00
F89    F     0.52038   0.24595   0.38615   0.00000  Uiso   1.00
F90    F     0.55362   0.28710   0.30344   0.00000  Uiso   1.00
F91    F     0.47962   0.08739   0.11385   0.00000  Uiso   1.00
F92    F     0.47311   0.04763   0.45217   0.00000  Uiso   1.00
F93    F     0.52688   0.28570   0.04783   0.00000  Uiso   1.00
F94    F     0.47217   0.04625   0.04156   0.00000  Uiso   1.00
F95    F     0.52783   0.28709   0.45844   0.00000  Uiso   1.00
F96    F     0.55347   0.04730   0.30362   0.00000  Uiso   1.00
F97    F     0.44653   0.28603   0.19638   0.00000  Uiso   1.00
F98    F     0.44638   0.04623   0.19656   0.00000  Uiso   1.00
H99    H     0.48405   0.09677   0.38829   0.00000  Uiso   1.00
H100   H     0.51595   0.23656   0.11171   0.00000  Uiso   1.00
H101   H     0.37075   0.09334   0.24251   0.00000  Uiso   1.00
H102   H     0.62925   0.23999   0.25749   0.00000  Uiso   1.00
H103   H     0.62920   0.09333   0.24262   0.00000  Uiso   1.00
H104   H     0.37080   0.24000   0.25738   0.00000  Uiso   1.00
N105   N     0.50000   0.28573   0.25000   0.00000  Uiso   1.00
N106   N     0.50000   0.04760   0.25000   0.00000  Uiso   1.00
O107   O     0.43892   0.20487   0.25000   0.00000  Uiso   1.00
O108   O     0.56108   0.12846   0.25001   0.00000  Uiso   1.00
O109   O     0.56108   0.20487   0.25001   0.00000  Uiso   1.00
O110   O     0.43892   0.12846   0.25000   0.00000  Uiso   1.00
O111   O     0.49999   0.20489   0.18393   0.00000  Uiso   1.00
O112   O     0.50001   0.12844   0.31608   0.00000  Uiso   1.00
O113   O     0.50001   0.20489   0.31608   0.00000  Uiso   1.00
O114   O     0.49999   0.12844   0.18393   0.00000  Uiso   1.00
Zn115  Zn    0.50000   0.21771   0.25000   0.00000  Uiso   1.00
Zn116  Zn    0.50000   0.11563   0.25000   0.00000  Uiso   1.00
C117   C     0.75327   0.16667   0.24996   0.00000  Uiso   1.00
C118   C     0.70913   0.16667   0.24995   0.00000  Uiso   1.00
C119   C     0.86007   0.02427   0.27677   0.00000  Uiso   1.00
C120   C     0.80659   0.30906   0.22323   0.00000  Uiso   1.00
C121   C     0.80657   0.02374   0.22326   0.00000  Uiso   1.00
C122   C     0.86010   0.30960   0.27674   0.00000  Uiso   1.00
C123   C     0.83295   0.16640   0.16326   0.00000  Uiso   1.00
C124   C     0.83372   0.16693   0.33674   0.00000  Uiso   1.00
C125   C     0.84357   0.20750   0.40822   0.00000  Uiso   1.00
C126   C     0.82310   0.12584   0.09178   0.00000  Uiso   1.00
C127   C     0.83410   0.16747   0.38470   0.00000  Uiso   1.00
C128   C     0.91340   0.16667   0.25004   0.00000  Uiso   1.00
C129   C     0.83257   0.16586   0.11530   0.00000  Uiso   1.00
C130   C     0.82477   0.12743   0.40690   0.00000  Uiso   1.00
C131   C     0.84189   0.20590   0.09310   0.00000  Uiso   1.00
C132   C     0.82447   0.12673   0.45283   0.00000  Uiso   1.00
C133   C     0.84219   0.20661   0.04717   0.00000  Uiso   1.00
C134   C     0.83357   0.16693   0.47682   0.00000  Uiso   1.00
C135   C     0.83310   0.16640   0.02318   0.00000  Uiso   1.00
C136   C     0.84315   0.20763   0.45447   0.00000  Uiso   1.00
C137   C     0.82352   0.12571   0.04553   0.00000  Uiso   1.00
C138   C     0.81511   0.08649   0.47506   0.00000  Uiso   1.00
C139   C     0.81461   0.08590   0.02114   0.00000  Uiso   1.00
C140   C     0.85155   0.24684   0.02494   0.00000  Uiso   1.00
C141   C     0.85206   0.24743   0.47886   0.00000  Uiso   1.00
C142   C     0.68793   0.12545   0.24587   0.00000  Uiso   1.00
C143   C     0.97873   0.20788   0.25413   0.00000  Uiso   1.00
C144   C     0.97870   0.12544   0.24593   0.00000  Uiso   1.00
C145   C     0.68796   0.20789   0.25407   0.00000  Uiso   1.00
C146   C     0.95754   0.16666   0.25005   0.00000  Uiso   1.00
F147   F     0.85372   0.24595   0.38615   0.00000  Uiso   1.00
F148   F     0.88696   0.28710   0.30344   0.00000  Uiso   1.00
F149   F     0.81295   0.08739   0.11385   0.00000  Uiso   1.00
F150   F     0.80645   0.04763   0.45217   0.00000  Uiso   1.00
F151   F     0.86021   0.28570   0.04783   0.00000  Uiso   1.00
F152   F     0.80550   0.04625   0.04156   0.00000  Uiso   1.00
F153   F     0.86116   0.28709   0.45844   0.00000  Uiso   1.00
F154   F     0.88681   0.04730   0.30362   0.00000  Uiso   1.00
F155   F     0.77986   0.28603   0.19638   0.00000  Uiso   1.00
F156   F     0.77971   0.04623   0.19656   0.00000  Uiso   1.00
H157   H     0.81738   0.09677   0.38829   0.00000  Uiso   1.00
H158   H     0.84928   0.23656   0.11171   0.00000  Uiso   1.00
H159   H     0.70408   0.09334   0.24251   0.00000  Uiso   1.00
H160   H     0.96259   0.23999   0.25749   0.00000  Uiso   1.00
H161   H     0.96253   0.09333   0.24262   0.00000  Uiso   1.00
H162   H     0.70413   0.24000   0.25738   0.00000  Uiso   1.00
N163   N     0.83333   0.28573   0.25000   0.00000  Uiso   1.00
N164   N     0.83333   0.04760   0.25000   0.00000  Uiso   1.00
O165   O     0.77226   0.20487   0.25000   0.00000  Uiso   1.00
O166   O     0.89441   0.12846   0.25001   0.00000  Uiso   1.00
O167   O     0.89441   0.20487   0.25001   0.00000  Uiso   1.00
O168   O     0.77226   0.12846   0.25000   0.00000  Uiso   1.00
O169   O     0.83333   0.20489   0.18393   0.00000  Uiso   1.00
O170   O     0.83334   0.12844   0.31608   0.00000  Uiso   1.00
O171   O     0.83334   0.20489   0.31608   0.00000  Uiso   1.00
O172   O     0.83333   0.12844   0.18393   0.00000  Uiso   1.00
Zn173  Zn    0.83333   0.21771   0.25000   0.00000  Uiso   1.00
Zn174  Zn    0.83333   0.11563   0.25000   0.00000  Uiso   1.00
C175   C     0.08660   0.50000   0.24996   0.00000  Uiso   1.00
C176   C     0.04246   0.50000   0.24995   0.00000  Uiso   1.00
C177   C     0.19341   0.35760   0.27677   0.00000  Uiso   1.00
C178   C     0.13993   0.64240   0.22323   0.00000  Uiso   1.00
C179   C     0.13990   0.35707   0.22326   0.00000  Uiso   1.00
C180   C     0.19343   0.64293   0.27674   0.00000  Uiso   1.00
C181   C     0.16628   0.49973   0.16326   0.00000  Uiso   1.00
C182   C     0.16705   0.50027   0.33674   0.00000  Uiso   1.00
C183   C     0.17690   0.54083   0.40822   0.00000  Uiso   1.00
C184   C     0.15643   0.45917   0.09178   0.00000  Uiso   1.00
C185   C     0.16743   0.50080   0.38470   0.00000  Uiso   1.00
C186   C     0.24673   0.50000   0.25004   0.00000  Uiso   1.00
C187   C     0.16590   0.49920   0.11530   0.00000  Uiso   1.00
C188   C     0.15810   0.46077   0.40690   0.00000  Uiso   1.00
C189   C     0.17523   0.53923   0.09310   0.00000  Uiso   1.00
C190   C     0.15781   0.46006   0.45283   0.00000  Uiso   1.00
C191   C     0.17552   0.53994   0.04717   0.00000  Uiso   1.00
C192   C     0.16690   0.50027   0.47682   0.00000  Uiso   1.00
C193   C     0.16643   0.49973   0.02318   0.00000  Uiso   1.00
C194   C     0.17648   0.54096   0.45447   0.00000  Uiso   1.00
C195   C     0.15685   0.45904   0.04553   0.00000  Uiso   1.00
C196   C     0.14844   0.41983   0.47506   0.00000  Uiso   1.00
C197   C     0.14794   0.41924   0.02114   0.00000  Uiso   1.00
C198   C     0.18488   0.58018   0.02494   0.00000  Uiso   1.00
C199   C     0.18539   0.58076   0.47886   0.00000  Uiso   1.00
C200   C     0.02127   0.45878   0.24587   0.00000  Uiso   1.00
C201   C     0.31207   0.54122   0.25413   0.00000  Uiso   1.00
C202   C     0.31204   0.45878   0.24593   0.00000  Uiso   1.00
C203   C     0.02130   0.54122   0.25407   0.00000  Uiso   1.00
C204   C     0.29087   0.50000   0.25005   0.00000  Uiso   1.00
F205   F     0.18705   0.57928   0.38615   0.00000  Uiso   1.00
F206   F     0.22029   0.62044   0.30344   0.00000  Uiso   1.00
F207   F     0.14628   0.42072   0.11385   0.00000  Uiso   1.00
F208   F     0.13978   0.38097   0.45217   0.00000  Uiso   1.00
F209   F     0.19355   0.61904   0.04783   0.00000  Uiso   1.00
F210   F     0.13884   0.37958   0.04156   0.00000  Uiso   1.00
F211   F     0.19449   0.62042   0.45844   0.00000  Uiso   1.00
F212   F     0.22014   0.38063   0.30362   0.00000  Uiso   1.00
F213   F     0.11319   0.61937   0.19638   0.00000  Uiso   1.00
F214   F     0.11304   0.37956   0.19656   0.00000  Uiso   1.00
H215   H     0.15072   0.43011   0.38829   0.00000  Uiso   1.00
H216   H     0.18261   0.56989   0.11171   0.00000  Uiso   1.00
H217   H     0.03741   0.42668   0.24251   0.00000  Uiso   1.00
H218   H     0.29592   0.57332   0.25749   0.00000  Uiso   1.00
H219   H     0.29587   0.42666   0.24262   0.00000  Uiso   1.00
H220   H     0.03747   0.57334   0.25738   0.00000  Uiso   1.00
N221   N     0.16667   0.61907   0.25000   0.00000  Uiso   1.00
N222   N     0.16667   0.38093   0.25000   0.00000  Uiso   1.00
O223   O     0.10559   0.53821   0.25000   0.00000  Uiso   1.00
O224   O     0.22774   0.46179   0.25001   0.00000  Uiso   1.00
O225   O     0.22774   0.53821   0.25001   0.00000  Uiso   1.00
O226   O     0.10559   0.46179   0.25000   0.00000  Uiso   1.00
O227   O     0.16666   0.53823   0.18393   0.00000  Uiso   1.00
O228   O     0.16667   0.46177   0.31608   0.00000  Uiso   1.00
O229   O     0.16667   0.53823   0.31608   0.00000  Uiso   1.00
O230   O     0.16666   0.46177   0.18393   0.00000  Uiso   1.00
Zn231  Zn    0.16667   0.55104   0.25000   0.00000  Uiso   1.00
Zn232  Zn    0.16667   0.44896   0.25000   0.00000  Uiso   1.00
C233   C     0.41994   0.50000   0.24996   0.00000  Uiso   1.00
C234   C     0.37579   0.50000   0.24995   0.00000  Uiso   1.00
C235   C     0.52674   0.35760   0.27677   0.00000  Uiso   1.00
C236   C     0.47326   0.64240   0.22323   0.00000  Uiso   1.00
C237   C     0.47324   0.35707   0.22326   0.00000  Uiso   1.00
C238   C     0.52676   0.64293   0.27674   0.00000  Uiso   1.00
C239   C     0.49961   0.49973   0.16326   0.00000  Uiso   1.00
C240   C     0.50038   0.50027   0.33674   0.00000  Uiso   1.00
C241   C     0.51023   0.54083   0.40822   0.00000  Uiso   1.00
C242   C     0.48977   0.45917   0.09178   0.00000  Uiso   1.00
C243   C     0.50076   0.50080   0.38470   0.00000  Uiso   1.00
C244   C     0.58006   0.50000   0.25004   0.00000  Uiso   1.00
C245   C     0.49924   0.49920   0.11530   0.00000  Uiso   1.00
C246   C     0.49144   0.46077   0.40690   0.00000  Uiso   1.00
C247   C     0.50856   0.53923   0.09310   0.00000  Uiso   1.00
C248   C     0.49114   0.46006   0.45283   0.00000  Uiso   1.00
C249   C     0.50886   0.53994   0.04717   0.00000  Uiso   1.00
C250   C     0.50023   0.50027   0.47682   0.00000  Uiso   1.00
C251   C     0.49976   0.49973   0.02318   0.00000  Uiso   1.00
C252   C     0.50982   0.54096   0.45447   0.00000  Uiso   1.00
C253   C     0.49018   0.45904   0.04553   0.00000  Uiso   1.00
C254   C     0.48178   0.41983   0.47506   0.00000  Uiso   1.00
C255   C     0.48127   0.41924   0.02114   0.00000  Uiso   1.00
C256   C     0.51822   0.58018   0.02494   0.00000  Uiso   1.00
C257   C     0.51872   0.58076   0.47886   0.00000  Uiso   1.00
C258   C     0.35460   0.45878   0.24587   0.00000  Uiso   1.00
C259   C     0.64540   0.54122   0.25413   0.00000  Uiso   1.00
C260   C     0.64537   0.45878   0.24593   0.00000  Uiso   1.00
C261   C     0.35463   0.54122   0.25407   0.00000  Uiso   1.00
C262   C     0.62421   0.50000   0.25005   0.00000  Uiso   1.00
F263   F     0.52038   0.57928   0.38615   0.00000  Uiso   1.00
F264   F     0.55362   0.62044   0.30344   0.00000  Uiso   1.00
F265   F     0.47962   0.42072   0.11385   0.00000  Uiso   1.00
F266   F     0.47311   0.38097   0.45217   0.00000  Uiso   1.00
F267   F     0.52688   0.61904   0.04783   0.00000  Uiso   1.00
F268   F     0.47217   0.37958   0.04156   0.00000  Uiso   1.00
F269   F     0.52783   0.62042   0.45844   0.00000  Uiso   1.00
F270   F     0.55347   0.38063   0.30362   0.00000  Uiso   1.00
F271   F     0.44653   0.61937   0.19638   0.00000  Uiso   1.00
F272   F     0.44638   0.37956   0.19656   0.00000  Uiso   1.00
H273   H     0.48405   0.43011   0.38829   0.00000  Uiso   1.00
H274   H     0.51595   0.56989   0.11171   0.00000  Uiso   1.00
H275   H     0.37075   0.42668   0.24251   0.00000  Uiso   1.00
H276   H     0.62925   0.57332   0.25749   0.00000  Uiso   1.00
H277   H     0.62920   0.42666   0.24262   0.00000  Uiso   1.00
H278   H     0.37080   0.57334   0.25738   0.00000  Uiso   1.00
N279   N     0.50000   0.61907   0.25000   0.00000  Uiso   1.00
N280   N     0.50000   0.38093   0.25000   0.00000  Uiso   1.00
O281   O     0.43892   0.53821   0.25000   0.00000  Uiso   1.00
O282   O     0.56108   0.46179   0.25001   0.00000  Uiso   1.00
O283   O     0.56108   0.53821   0.25001   0.00000  Uiso   1.00
O284   O     0.43892   0.46179   0.25000   0.00000  Uiso   1.00
O285   O     0.49999   0.53823   0.18393   0.00000  Uiso   1.00
O286   O     0.50001   0.46177   0.31608   0.00000  Uiso   1.00
O287   O     0.50001   0.53823   0.31608   0.00000  Uiso   1.00
O288   O     0.49999   0.46177   0.18393   0.00000  Uiso   1.00
Zn289  Zn    0.50000   0.55104   0.25000   0.00000  Uiso   1.00
Zn290  Zn    0.50000   0.44896   0.25000   0.00000  Uiso   1.00
C291   C     0.75327   0.50000   0.24996   0.00000  Uiso   1.00
C292   C     0.70913   0.50000   0.24995   0.00000  Uiso   1.00
C293   C     0.86007   0.35760   0.27677   0.00000  Uiso   1.00
C294   C     0.80659   0.64240   0.22323   0.00000  Uiso   1.00
C295   C     0.80657   0.35707   0.22326   0.00000  Uiso   1.00
C296   C     0.86010   0.64293   0.27674   0.00000  Uiso   1.00
C297   C     0.83295   0.49973   0.16326   0.00000  Uiso   1.00
C298   C     0.83372   0.50027   0.33674   0.00000  Uiso   1.00
C299   C     0.84357   0.54083   0.40822   0.00000  Uiso   1.00
C300   C     0.82310   0.45917   0.09178   0.00000  Uiso   1.00
C301   C     0.83410   0.50080   0.38470   0.00000  Uiso   1.00
C302   C     0.91340   0.50000   0.25004   0.00000  Uiso   1.00
C303   C     0.83257   0.49920   0.11530   0.00000  Uiso   1.00
C304   C     0.82477   0.46077   0.40690   0.00000  Uiso   1.00
C305   C     0.84189   0.53923   0.09310   0.00000  Uiso   1.00
C306   C     0.82447   0.46006   0.45283   0.00000  Uiso   1.00
C307   C     0.84219   0.53994   0.04717   0.00000  Uiso   1.00
C308   C     0.83357   0.50027   0.47682   0.00000  Uiso   1.00
C309   C     0.83310   0.49973   0.02318   0.00000  Uiso   1.00
C310   C     0.84315   0.54096   0.45447   0.00000  Uiso   1.00
C311   C     0.82352   0.45904   0.04553   0.00000  Uiso   1.00
C312   C     0.81511   0.41983   0.47506   0.00000  Uiso   1.00
C313   C     0.81461   0.41924   0.02114   0.00000  Uiso   1.00
C314   C     0.85155   0.58018   0.02494   0.00000  Uiso   1.00
C315   C     0.85206   0.58076   0.47886   0.00000  Uiso   1.00
C316   C     0.68793   0.45878   0.24587   0.00000  Uiso   1.00
C317   C     0.97873   0.54122   0.25413   0.00000  Uiso   1.00
C318   C     0.97870   0.45878   0.24593   0.00000  Uiso   1.00
C319   C     0.68796   0.54122   0.25407   0.00000  Uiso   1.00
C320   C     0.95754   0.50000   0.25005   0.00000  Uiso   1.00
F321   F     0.85372   0.57928   0.38615   0.00000  Uiso   1.00
F322   F     0.88696   0.62044   0.30344   0.00000  Uiso   1.00
F323   F     0.81295   0.42072   0.11385   0.00000  Uiso   1.00
F324   F     0.80645   0.38097   0.45217   0.00000  Uiso   1.00
F325   F     0.86021   0.61904   0.04783   0.00000  Uiso   1.00
F326   F     0.80550   0.37958   0.04156   0.00000  Uiso   1.00
F327   F     0.86116   0.62042   0.45844   0.00000  Uiso   1.00
F328   F     0.88681   0.38063   0.30362   0.00000  Uiso   1.00
F329   F     0.77986   0.61937   0.19638   0.00000  Uiso   1.00
F330   F     0.77971   0.37956   0.19656   0.00000  Uiso   1.00
H331   H     0.81738   0.43011   0.38829   0.00000  Uiso   1.00
H332   H     0.84928   0.56989   0.11171   0.00000  Uiso   1.00
H333   H     0.70408   0.42668   0.24251   0.00000  Uiso   1.00
H334   H     0.96259   0.57332   0.25749   0.00000  Uiso   1.00
H335   H     0.96253   0.42666   0.24262   0.00000  Uiso   1.00
H336   H     0.70413   0.57334   0.25738   0.00000  Uiso   1.00
N337   N     0.83333   0.61907   0.25000   0.00000  Uiso   1.00
N338   N     0.83333   0.38093   0.25000   0.00000  Uiso   1.00
O339   O     0.77226   0.53821   0.25000   0.00000  Uiso   1.00
O340   O     0.89441   0.46179   0.25001   0.00000  Uiso   1.00
O341   O     0.89441   0.53821   0.25001   0.00000  Uiso   1.00
O342   O     0.77226   0.46179   0.25000   0.00000  Uiso   1.00
O343   O     0.83333   0.53823   0.18393   0.00000  Uiso   1.00
O344   O     0.83334   0.46177   0.31608   0.00000  Uiso   1.00
O345   O     0.83334   0.53823   0.31608   0.00000  Uiso   1.00
O346   O     0.83333   0.46177   0.18393   0.00000  Uiso   1.00
Zn347  Zn    0.83333   0.55104   0.25000   0.00000  Uiso   1.00
Zn348  Zn    0.83333   0.44896   0.25000   0.00000  Uiso   1.00
C349   C     0.08660   0.83333   0.24996   0.00000  Uiso   1.00
C350   C     0.04246   0.83334   0.24995   0.00000  Uiso   1.00
C351   C     0.19341   0.69094   0.27677   0.00000  Uiso   1.00
C352   C     0.13993   0.97573   0.22323   0.00000  Uiso   1.00
C353   C     0.13990   0.69040   0.22326   0.00000  Uiso   1.00
C354   C     0.19343   0.97626   0.27674   0.00000  Uiso   1.00
C355   C     0.16628   0.83307   0.16326   0.00000  Uiso   1.00
C356   C     0.16705   0.83360   0.33674   0.00000  Uiso   1.00
C357   C     0.17690   0.87417   0.40822   0.00000  Uiso   1.00
C358   C     0.15643   0.79250   0.09178   0.00000  Uiso   1.00
C359   C     0.16743   0.83414   0.38470   0.00000  Uiso   1.00
C360   C     0.24673   0.83333   0.25004   0.00000  Uiso   1.00
C361   C     0.16590   0.83253   0.11530   0.00000  Uiso   1.00
C362   C     0.15810   0.79410   0.40690   0.00000  Uiso   1.00
C363   C     0.17523   0.87257   0.09310   0.00000  Uiso   1.00
C364   C     0.15781   0.79339   0.45283   0.00000  Uiso   1.00
C365   C     0.17552   0.87328   0.04717   0.00000  Uiso   1.00
C366   C     0.16690   0.83360   0.47682   0.00000  Uiso   1.00
C367   C     0.16643   0.83307   0.02318   0.00000  Uiso   1.00
C368   C     0.17648   0.87430   0.45447   0.00000  Uiso   1.00
C369   C     0.15685   0.79237   0.04553   0.00000  Uiso   1.00
C370   C     0.14844   0.75316   0.47506   0.00000  Uiso   1.00
C371   C     0.14794   0.75257   0.02114   0.00000  Uiso   1.00
C372   C     0.18488   0.91351   0.02494   0.00000  Uiso   1.00
C373   C     0.18539   0.91410   0.47886   0.00000  Uiso   1.00
C374   C     0.02127   0.79212   0.24587   0.00000  Uiso   1.00
C375   C     0.31207   0.87455   0.25413   0.00000  Uiso   1.00
C376   C     0.31204   0.79211   0.24593   0.00000  Uiso   1.00
C377   C     0.02130   0.87456   0.25407   0.00000  Uiso   1.00
C378   C     0.29087   0.83333   0.25005   0.00000  Uiso   1.00
F379   F     0.18705   0.91261   0.38615   0.00000  Uiso   1.00
F380   F     0.22029   0.95377   0.30344   0.00000  Uiso   1.00
F381   F     0.14628   0.75405   0.11385   0.00000  Uiso   1.00
F382   F     0.13978   0.71430   0.45217   0.00000  Uiso   1.00
F383   F     0.19355   0.95237   0.04783   0.00000  Uiso   1.00
F384   F     0.13884   0.71292   0.04156   0.00000  Uiso   1.00
F385   F     0.19449   0.95375   0.45844   0.00000  Uiso   1.00
F386   F     0.22014   0.71397   0.30362   0.00000  Uiso   1.00
F387   F     0.11319   0.95270   0.19638   0.00000  Uiso   1.00
F388   F     0.11304   0.71290   0.19656   0.00000  Uiso   1.00
H389   H     0.15072   0.76344   0.38829   0.00000  Uiso   1.00
H390   H     0.18261   0.90323   0.11171   0.00000  Uiso   1.00
H391   H     0.03741   0.76001   0.24251   0.00000  Uiso   1.00
H392   H     0.29592   0.90666   0.25749   0.00000  Uiso   1.00
H393   H     0.29587   0.76000   0.24262   0.00000  Uiso   1.00
H394   H     0.03747   0.90667   0.25738   0.00000  Uiso   1.00
N395   N     0.16667   0.95240   0.25000   0.00000  Uiso   1.00
N396   N     0.16667   0.71427   0.25000   0.00000  Uiso   1.00
O397   O     0.10559   0.87154   0.25000   0.00000  Uiso   1.00
O398   O     0.22774   0.79513   0.25001   0.00000  Uiso   1.00
O399   O     0.22774   0.87154   0.25001   0.00000  Uiso   1.00
O400   O     0.10559   0.79513   0.25000   0.00000  Uiso   1.00
O401   O     0.16666   0.87156   0.18393   0.00000  Uiso   1.00
O402   O     0.16667   0.79511   0.31608   0.00000  Uiso   1.00
O403   O     0.16667   0.87156   0.31608   0.00000  Uiso   1.00
O404   O     0.16666   0.79511   0.18393   0.00000  Uiso   1.00
Zn405  Zn    0.16667   0.88437   0.25000   0.00000  Uiso   1.00
Zn406  Zn    0.16667   0.78229   0.25000   0.00000  Uiso   1.00
C407   C     0.41994   0.83333   0.24996   0.00000  Uiso   1.00
C408   C     0.37579   0.83334   0.24995   0.00000  Uiso   1.00
C409   C     0.52674   0.69094   0.27677   0.00000  Uiso   1.00
C410   C     0.47326   0.97573   0.22323   0.00000  Uiso   1.00
C411   C     0.47324   0.69040   0.22326   0.00000  Uiso   1.00
C412   C     0.52676   0.97626   0.27674   0.00000  Uiso   1.00
C413   C     0.49961   0.83307   0.16326   0.00000  Uiso   1.00
C414   C     0.50038   0.83360   0.33674   0.00000  Uiso   1.00
C415   C     0.51023   0.87417   0.40822   0.00000  Uiso   1.00
C416   C     0.48977   0.79250   0.09178   0.00000  Uiso   1.00
C417   C     0.50076   0.83414   0.38470   0.00000  Uiso   1.00
C418   C     0.58006   0.83333   0.25004   0.00000  Uiso   1.00
C419   C     0.49924   0.83253   0.11530   0.00000  Uiso   1.00
C420   C     0.49144   0.79410   0.40690   0.00000  Uiso   1.00
C421   C     0.50856   0.87257   0.09310   0.00000  Uiso   1.00
C422   C     0.49114   0.79339   0.45283   0.00000  Uiso   1.00
C423   C     0.50886   0.87328   0.04717   0.00000  Uiso   1.00
C424   C     0.50023   0.83360   0.47682   0.00000  Uiso   1.00
C425   C     0.49976   0.83307   0.02318   0.00000  Uiso   1.00
C426   C     0.50982   0.87430   0.45447   0.00000  Uiso   1.00
C427   C     0.49018   0.79237   0.04553   0.00000  Uiso   1.00
C428   C     0.48178   0.75316   0.47506   0.00000  Uiso   1.00
C429   C     0.48127   0.75257   0.02114   0.00000  Uiso   1.00
C430   C     0.51822   0.91351   0.02494   0.00000  Uiso   1.00
C431   C     0.51872   0.91410   0.47886   0.00000  Uiso   1.00
C432   C     0.35460   0.79212   0.24587   0.00000  Uiso   1.00
C433   C     0.64540   0.87455   0.25413   0.00000  Uiso   1.00
C434   C     0.64537   0.79211   0.24593   0.00000  Uiso   1.00
C435   C     0.35463   0.87456   0.25407   0.00000  Uiso   1.00
C436   C     0.62421   0.83333   0.25005   0.00000  Uiso   1.00
F437   F     0.52038   0.91261   0.38615   0.00000  Uiso   1.00
F438   F     0.55362   0.95377   0.30344   0.00000  Uiso   1.00
F439   F     0.47962   0.75405   0.11385   0.00000  Uiso   1.00
F440   F     0.47311   0.71430   0.45217   0.00000  Uiso   1.00
F441   F     0.52688   0.95237   0.04783   0.00000  Uiso   1.00
F442   F     0.47217   0.71292   0.04156   0.00000  Uiso   1.00
F443   F     0.52783   0.95375   0.45844   0.00000  Uiso   1.00
F444   F     0.55347   0.71397   0.30362   0.00000  Uiso   1.00
F445   F     0.44653   0.95270   0.19638   0.00000  Uiso   1.00
F446   F     0.44638   0.71290   0.19656   0.00000  Uiso   1.00
H447   H     0.48405   0.76344   0.38829   0.00000  Uiso   1.00
H448   H     0.51595   0.90323   0.11171   0.00000  Uiso   1.00
H449   H     0.37075   0.76001   0.24251   0.00000  Uiso   1.00
H450   H     0.62925   0.90666   0.25749   0.00000  Uiso   1.00
H451   H     0.62920   0.76000   0.24262   0.00000  Uiso   1.00
H452   H     0.37080   0.90667   0.25738   0.00000  Uiso   1.00
N453   N     0.50000   0.95240   0.25000   0.00000  Uiso   1.00
N454   N     0.50000   0.71427   0.25000   0.00000  Uiso   1.00
O455   O     0.43892   0.87154   0.25000   0.00000  Uiso   1.00
O456   O     0.56108   0.79513   0.25001   0.00000  Uiso   1.00
O457   O     0.56108   0.87154   0.25001   0.00000  Uiso   1.00
O458   O     0.43892   0.79513   0.25000   0.00000  Uiso   1.00
O459   O     0.49999   0.87156   0.18393   0.00000  Uiso   1.00
O460   O     0.50001   0.79511   0.31608   0.00000  Uiso   1.00
O461   O     0.50001   0.87156   0.31608   0.00000  Uiso   1.00
O462   O     0.49999   0.79511   0.18393   0.00000  Uiso   1.00
Zn463  Zn    0.50000   0.88437   0.25000   0.00000  Uiso   1.00
Zn464  Zn    0.50000   0.78229   0.25000   0.00000  Uiso   1.00
C465   C     0.75327   0.83333   0.24996   0.00000  Uiso   1.00
C466   C     0.70913   0.83334   0.24995   0.00000  Uiso   1.00
C467   C     0.86007   0.69094   0.27677   0.00000  Uiso   1.00
C468   C     0.80659   0.97573   0.22323   0.00000  Uiso   1.00
C469   C     0.80657   0.69040   0.22326   0.00000  Uiso   1.00
C470   C     0.86010   0.97626   0.27674   0.00000  Uiso   1.00
C471   C     0.83295   0.83307   0.16326   0.00000  Uiso   1.00
C472   C     0.83372   0.83360   0.33674   0.00000  Uiso   1.00
C473   C     0.84357   0.87417   0.40822   0.00000  Uiso   1.00
C474   C     0.82310   0.79250   0.09178   0.00000  Uiso   1.00
C475   C     0.83410   0.83414   0.38470   0.00000  Uiso   1.00
C476   C     0.91340   0.83333   0.25004   0.00000  Uiso   1.00
C477   C     0.83257   0.83253   0.11530   0.00000  Uiso   1.00
C478   C     0.82477   0.79410   0.40690   0.00000  Uiso   1.00
C479   C     0.84189   0.87257   0.09310   0.00000  Uiso   1.00
C480   C     0.82447   0.79339   0.45283   0.00000  Uiso   1.00
C481   C     0.84219   0.87328   0.04717   0.00000  Uiso   1.00
C482   C     0.83357   0.83360   0.47682   0.00000  Uiso   1.00
C483   C     0.83310   0.83307   0.02318   0.00000  Uiso   1.00
C484   C     0.84315   0.87430   0.45447   0.00000  Uiso   1.00
C485   C     0.82352   0.79237   0.04553   0.00000  Uiso   1.00
C486   C     0.81511   0.75316   0.47506   0.00000  Uiso   1.00
C487   C     0.81461   0.75257   0.02114   0.00000  Uiso   1.00
C488   C     0.85155   0.91351   0.02494   0.00000  Uiso   1.00
C489   C     0.85206   0.91410   0.47886   0.00000  Uiso   1.00
C490   C     0.68793   0.79212   0.24587   0.00000  Uiso   1.00
C491   C     0.97873   0.87455   0.25413   0.00000  Uiso   1.00
C492   C     0.97870   0.79211   0.24593   0.00000  Uiso   1.00
C493   C     0.68796   0.87456   0.25407   0.00000  Uiso   1.00
C494   C     0.95754   0.83333   0.25005   0.00000  Uiso   1.00
F495   F     0.85372   0.91261   0.38615   0.00000  Uiso   1.00
F496   F     0.88696   0.95377   0.30344   0.00000  Uiso   1.00
F497   F     0.81295   0.75405   0.11385   0.00000  Uiso   1.00
F498   F     0.80645   0.71430   0.45217   0.00000  Uiso   1.00
F499   F     0.86021   0.95237   0.04783   0.00000  Uiso   1.00
F500   F     0.80550   0.71292   0.04156   0.00000  Uiso   1.00
F501   F     0.86116   0.95375   0.45844   0.00000  Uiso   1.00
F502   F     0.88681   0.71397   0.30362   0.00000  Uiso   1.00
F503   F     0.77986   0.95270   0.19638   0.00000  Uiso   1.00
F504   F     0.77971   0.71290   0.19656   0.00000  Uiso   1.00
H505   H     0.81738   0.76344   0.38829   0.00000  Uiso   1.00
H506   H     0.84928   0.90323   0.11171   0.00000  Uiso   1.00
H507   H     0.70408   0.76001   0.24251   0.00000  Uiso   1.00
H508   H     0.96259   0.90666   0.25749   0.00000  Uiso   1.00
H509   H     0.96253   0.76000   0.24262   0.00000  Uiso   1.00
H510   H     0.70413   0.90667   0.25738   0.00000  Uiso   1.00
N511   N     0.83333   0.95240   0.25000   0.00000  Uiso   1.00
N512   N     0.83333   0.71427   0.25000   0.00000  Uiso   1.00
O513   O     0.77226   0.87154   0.25000   0.00000  Uiso   1.00
O514   O     0.89441   0.79513   0.25001   0.00000  Uiso   1.00
O515   O     0.89441   0.87154   0.25001   0.00000  Uiso   1.00
O516   O     0.77226   0.79513   0.25000   0.00000  Uiso   1.00
O517   O     0.83333   0.87156   0.18393   0.00000  Uiso   1.00
O518   O     0.83334   0.79511   0.31608   0.00000  Uiso   1.00
O519   O     0.83334   0.87156   0.31608   0.00000  Uiso   1.00
O520   O     0.83333   0.79511   0.18393   0.00000  Uiso   1.00
Zn521  Zn    0.83333   0.88437   0.25000   0.00000  Uiso   1.00
Zn522  Zn    0.83333   0.78229   0.25000   0.00000  Uiso   1.00
C523   C     0.08660   0.16667   0.74996   0.00000  Uiso   1.00
C524   C     0.04246   0.16667   0.74995   0.00000  Uiso   1.00
C525   C     0.19341   0.02427   0.77677   0.00000  Uiso   1.00
C526   C     0.13993   0.30906   0.72323   0.00000  Uiso   1.00
C527   C     0.13990   0.02374   0.72326   0.00000  Uiso   1.00
C528   C     0.19343   0.30960   0.77674   0.00000  Uiso   1.00
C529   C     0.16628   0.16640   0.66326   0.00000  Uiso   1.00
C530   C     0.16705   0.16693   0.83674   0.00000  Uiso   1.00
C531   C     0.17690   0.20750   0.90822   0.00000  Uiso   1.00
C532   C     0.15643   0.12584   0.59178   0.00000  Uiso   1.00
C533   C     0.16743   0.16747   0.88470   0.00000  Uiso   1.00
C534   C     0.24673   0.16667   0.75004   0.00000  Uiso   1.00
C535   C     0.16590   0.16586   0.61530   0.00000  Uiso   1.00
C536   C     0.15810   0.12743   0.90690   0.00000  Uiso   1.00
C537   C     0.17523   0.20590   0.59310   0.00000  Uiso   1.00
C538   C     0.15781   0.12673   0.95283   0.00000  Uiso   1.00
C539   C     0.17552   0.20661   0.54717   0.00000  Uiso   1.00
C540   C     0.16690   0.16693   0.97682   0.00000  Uiso   1.00
C541   C     0.16643   0.16640   0.52318   0.00000  Uiso   1.00
C542   C     0.17648   0.20763   0.95447   0.00000  Uiso   1.00
C543   C     0.15685   0.12571   0.54553   0.00000  Uiso   1.00
C544   C     0.14844   0.08649   0.97506   0.00000  Uiso   1.00
C545   C     0.14794   0.08590   0.52114   0.00000  Uiso   1.00
C546   C     0.18488   0.24684   0.52494   0.00000  Uiso   1.00
C547   C     0.18539   0.24743   0.97886   0.00000  Uiso   1.00
C548   C     0.02127   0.12545   0.74587   0.00000  Uiso   1.00
C549   C     0.31207   0.20788   0.75413   0.00000  Uiso   1.00
C550   C     0.31204   0.12544   0.74593   0.00000  Uiso   1.00
C551   C     0.02130   0.20789   0.75407   0.00000  Uiso   1.00
C552   C     0.29087   0.16666   0.75005   0.00000  Uiso   1.00
F553   F     0.18705   0.24595   0.88615   0.00000  Uiso   1.00
F554   F     0.22029   0.28710   0.80344   0.00000  Uiso   1.00
F555   F     0.14628   0.08739   0.61385   0.00000  Uiso   1.00
F556   F     0.13978   0.04763   0.95217   0.00000  Uiso   1.00
F557   F     0.19355   0.28570   0.54783   0.00000  Uiso   1.00
F558   F     0.13884   0.04625   0.54156   0.00000  Uiso   1.00
F559   F     0.19449   0.28709   0.95844   0.00000  Uiso   1.00
F560   F     0.22014   0.04730   0.80362   0.00000  Uiso   1.00
F561   F     0.11319   0.28603   0.69638   0.00000  Uiso   1.00
F562   F     0.11304   0.04623   0.69656   0.00000  Uiso   1.00
H563   H     0.15072   0.09677   0.88829   0.00000  Uiso   1.00
H564   H     0.18261   0.23656   0.61171   0.00000  Uiso   1.00
H565   H     0.03741   0.09334   0.74251   0.00000  Uiso   1.00
H566   H     0.29592   0.23999   0.75749   0.00000  Uiso   1.00
H567   H     0.29587   0.09333   0.74262   0.00000  Uiso   1.00
H568   H     0.03747   0.24000   0.75738   0.00000  Uiso   1.00
N569   N     0.16667   0.28573   0.75000   0.00000  Uiso   1.00
N570   N     0.16667   0.04760   0.75000   0.00000  Uiso   1.00
O571   O     0.10559   0.20487   0.75000   0.00000  Uiso   1.00
O572   O     0.22774   0.12846   0.75001   0.00000  Uiso   1.00
O573   O     0.22774   0.20487   0.75001   0.00000  Uiso   1.00
O574   O     0.10559   0.12846   0.75000   0.00000  Uiso   1.00
O575   O     0.16666   0.20489   0.68393   0.00000  Uiso   1.00
O576   O     0.16667   0.12844   0.81608   0.00000  Uiso   1.00
O577   O     0.16667   0.20489   0.81608   0.00000  Uiso   1.00
O578   O     0.16666   0.12844   0.68393   0.00000  Uiso   1.00
Zn579  Zn    0.16667   0.21771   0.75000   0.00000  Uiso   1.00
Zn580  Zn    0.16667   0.11563   0.75000   0.00000  Uiso   1.00
C581   C     0.41994   0.16667   0.74996   0.00000  Uiso   1.00
C582   C     0.37579   0.16667   0.74995   0.00000  Uiso   1.00
C583   C     0.52674   0.02427   0.77677   0.00000  Uiso   1.00
C584   C     0.47326   0.30906   0.72323   0.00000  Uiso   1.00
C585   C     0.47324   0.02374   0.72326   0.00000  Uiso   1.00
C586   C     0.52676   0.30960   0.77674   0.00000  Uiso   1.00
C587   C     0.49961   0.16640   0.66326   0.00000  Uiso   1.00
C588   C     0.50038   0.16693   0.83674   0.00000  Uiso   1.00
C589   C     0.51023   0.20750   0.90822   0.00000  Uiso   1.00
C590   C     0.48977   0.12584   0.59178   0.00000  Uiso   1.00
C591   C     0.50076   0.16747   0.88470   0.00000  Uiso   1.00
C592   C     0.58006   0.16667   0.75004   0.00000  Uiso   1.00
C593   C     0.49924   0.16586   0.61530   0.00000  Uiso   1.00
C594   C     0.49144   0.12743   0.90690   0.00000  Uiso   1.00
C595   C     0.50856   0.20590   0.59310   0.00000  Uiso   1.00
C596   C     0.49114   0.12673   0.95283   0.00000  Uiso   1.00
C597   C     0.50886   0.20661   0.54717   0.00000  Uiso   1.00
C598   C     0.50023   0.16693   0.97682   0.00000  Uiso   1.00
C599   C     0.49976   0.16640   0.52318   0.00000  Uiso   1.00
C600   C     0.50982   0.20763   0.95447   0.00000  Uiso   1.00
C601   C     0.49018   0.12571   0.54553   0.00000  Uiso   1.00
C602   C     0.48178   0.08649   0.97506   0.00000  Uiso   1.00
C603   C     0.48127   0.08590   0.52114   0.00000  Uiso   1.00
C604   C     0.51822   0.24684   0.52494   0.00000  Uiso   1.00
C605   C     0.51872   0.24743   0.97886   0.00000  Uiso   1.00
C606   C     0.35460   0.12545   0.74587   0.00000  Uiso   1.00
C607   C     0.64540   0.20788   0.75413   0.00000  Uiso   1.00
C608   C     0.64537   0.12544   0.74593   0.00000  Uiso   1.00
C609   C     0.35463   0.20789   0.75407   0.00000  Uiso   1.00
C610   C     0.62421   0.16666   0.75005   0.00000  Uiso   1.00
F611   F     0.52038   0.24595   0.88615   0.00000  Uiso   1.00
F612   F     0.55362   0.28710   0.80344   0.00000  Uiso   1.00
F613   F     0.47962   0.08739   0.61385   0.00000  Uiso   1.00
F614   F     0.47311   0.04763   0.95217   0.00000  Uiso   1.00
F615   F     0.52688   0.28570   0.54783   0.00000  Uiso   1.00
F616   F     0.47217   0.04625   0.54156   0.00000  Uiso   1.00
F617   F     0.52783   0.28709   0.95844   0.00000  Uiso   1.00
F618   F     0.55347   0.04730   0.80362   0.00000  Uiso   1.00
F619   F     0.44653   0.28603   0.69638   0.00000  Uiso   1.00
F620   F     0.44638   0.04623   0.69656   0.00000  Uiso   1.00
H621   H     0.48405   0.09677   0.88829   0.00000  Uiso   1.00
H622   H     0.51595   0.23656   0.61171   0.00000  Uiso   1.00
H623   H     0.37075   0.09334   0.74251   0.00000  Uiso   1.00
H624   H     0.62925   0.23999   0.75749   0.00000  Uiso   1.00
H625   H     0.62920   0.09333   0.74262   0.00000  Uiso   1.00
H626   H     0.37080   0.24000   0.75738   0.00000  Uiso   1.00
N627   N     0.50000   0.28573   0.75000   0.00000  Uiso   1.00
N628   N     0.50000   0.04760   0.75000   0.00000  Uiso   1.00
O629   O     0.43892   0.20487   0.75000   0.00000  Uiso   1.00
O630   O     0.56108   0.12846   0.75001   0.00000  Uiso   1.00
O631   O     0.56108   0.20487   0.75001   0.00000  Uiso   1.00
O632   O     0.43892   0.12846   0.75000   0.00000  Uiso   1.00
O633   O     0.49999   0.20489   0.68393   0.00000  Uiso   1.00
O634   O     0.50001   0.12844   0.81608   0.00000  Uiso   1.00
O635   O     0.50001   0.20489   0.81608   0.00000  Uiso   1.00
O636   O     0.49999   0.12844   0.68393   0.00000  Uiso   1.00
Zn637  Zn    0.50000   0.21771   0.75000   0.00000  Uiso   1.00
Zn638  Zn    0.50000   0.11563   0.75000   0.00000  Uiso   1.00
C639   C     0.75327   0.16667   0.74996   0.00000  Uiso   1.00
C640   C     0.70913   0.16667   0.74995   0.00000  Uiso   1.00
C641   C     0.86007   0.02427   0.77677   0.00000  Uiso   1.00
C642   C     0.80659   0.30906   0.72323   0.00000  Uiso   1.00
C643   C     0.80657   0.02374   0.72326   0.00000  Uiso   1.00
C644   C     0.86010   0.30960   0.77674   0.00000  Uiso   1.00
C645   C     0.83295   0.16640   0.66326   0.00000  Uiso   1.00
C646   C     0.83372   0.16693   0.83674   0.00000  Uiso   1.00
C647   C     0.84357   0.20750   0.90822   0.00000  Uiso   1.00
C648   C     0.82310   0.12584   0.59178   0.00000  Uiso   1.00
C649   C     0.83410   0.16747   0.88470   0.00000  Uiso   1.00
C650   C     0.91340   0.16667   0.75004   0.00000  Uiso   1.00
C651   C     0.83257   0.16586   0.61530   0.00000  Uiso   1.00
C652   C     0.82477   0.12743   0.90690   0.00000  Uiso   1.00
C653   C     0.84189   0.20590   0.59310   0.00000  Uiso   1.00
C654   C     0.82447   0.12673   0.95283   0.00000  Uiso   1.00
C655   C     0.84219   0.20661   0.54717   0.00000  Uiso   1.00
C656   C     0.83357   0.16693   0.97682   0.00000  Uiso   1.00
C657   C     0.83310   0.16640   0.52318   0.00000  Uiso   1.00
C658   C     0.84315   0.20763   0.95447   0.00000  Uiso   1.00
C659   C     0.82352   0.12571   0.54553   0.00000  Uiso   1.00
C660   C     0.81511   0.08649   0.97506   0.00000  Uiso   1.00
C661   C     0.81461   0.08590   0.52114   0.00000  Uiso   1.00
C662   C     0.85155   0.24684   0.52494   0.00000  Uiso   1.00
C663   C     0.85206   0.24743   0.97886   0.00000  Uiso   1.00
C664   C     0.68793   0.12545   0.74587   0.00000  Uiso   1.00
C665   C     0.97873   0.20788   0.75413   0.00000  Uiso   1.00
C666   C     0.97870   0.12544   0.74593   0.00000  Uiso   1.00
C667   C     0.68796   0.20789   0.75407   0.00000  Uiso   1.00
C668   C     0.95754   0.16666   0.75005   0.00000  Uiso   1.00
F669   F     0.85372   0.24595   0.88615   0.00000  Uiso   1.00
F670   F     0.88696   0.28710   0.80344   0.00000  Uiso   1.00
F671   F     0.81295   0.08739   0.61385   0.00000  Uiso   1.00
F672   F     0.80645   0.04763   0.95217   0.00000  Uiso   1.00
F673   F     0.86021   0.28570   0.54783   0.00000  Uiso   1.00
F674   F     0.80550   0.04625   0.54156   0.00000  Uiso   1.00
F675   F     0.86116   0.28709   0.95844   0.00000  Uiso   1.00
F676   F     0.88681   0.04730   0.80362   0.00000  Uiso   1.00
F677   F     0.77986   0.28603   0.69638   0.00000  Uiso   1.00
F678   F     0.77971   0.04623   0.69656   0.00000  Uiso   1.00
H679   H     0.81738   0.09677   0.88829   0.00000  Uiso   1.00
H680   H     0.84928   0.23656   0.61171   0.00000  Uiso   1.00
H681   H     0.70408   0.09334   0.74251   0.00000  Uiso   1.00
H682   H     0.96259   0.23999   0.75749   0.00000  Uiso   1.00
H683   H     0.96253   0.09333   0.74262   0.00000  Uiso   1.00
H684   H     0.70413   0.24000   0.75738   0.00000  Uiso   1.00
N685   N     0.83333   0.28573   0.75000   0.00000  Uiso   1.00
N686   N     0.83333   0.04760   0.75000   0.00000  Uiso   1.00
O687   O     0.77226   0.20487   0.75000   0.00000  Uiso   1.00
O688   O     0.89441   0.12846   0.75001   0.00000  Uiso   1.00
O689   O     0.89441   0.20487   0.75001   0.00000  Uiso   1.00
O690   O     0.77226   0.12846   0.75000   0.00000  Uiso   1.00
O691   O     0.83333   0.20489   0.68393   0.00000  Uiso   1.00
O692   O     0.83334   0.12844   0.81608   0.00000  Uiso   1.00
O693   O     0.83334   0.20489   0.81608   0.00000  Uiso   1.00
O694   O     0.83333   0.12844   0.68393   0.00000  Uiso   1.00
Zn695  Zn    0.83333   0.21771   0.75000   0.00000  Uiso   1.00
Zn696  Zn    0.83333   0.11563   0.75000   0.00000  Uiso   1.00
C697   C     0.08660   0.50000   0.74996   0.00000  Uiso   1.00
C698   C     0.04246   0.50000   0.74995   0.00000  Uiso   1.00
C699   C     0.19341   0.35760   0.77677   0.00000  Uiso   1.00
C700   C     0.13993   0.64240   0.72323   0.00000  Uiso   1.00
C701   C     0.13990   0.35707   0.72326   0.00000  Uiso   1.00
C702   C     0.19343   0.64293   0.77674   0.00000  Uiso   1.00
C703   C     0.16628   0.49973   0.66326   0.00000  Uiso   1.00
C704   C     0.16705   0.50027   0.83674   0.00000  Uiso   1.00
C705   C     0.17690   0.54083   0.90822   0.00000  Uiso   1.00
C706   C     0.15643   0.45917   0.59178   0.00000  Uiso   1.00
C707   C     0.16743   0.50080   0.88470   0.00000  Uiso   1.00
C708   C     0.24673   0.50000   0.75004   0.00000  Uiso   1.00
C709   C     0.16590   0.49920   0.61530   0.00000  Uiso   1.00
C710   C     0.15810   0.46077   0.90690   0.00000  Uiso   1.00
C711   C     0.17523   0.53923   0.59310   0.00000  Uiso   1.00
C712   C     0.15781   0.46006   0.95283   0.00000  Uiso   1.00
C713   C     0.17552   0.53994   0.54717   0.00000  Uiso   1.00
C714   C     0.16690   0.50027   0.97682   0.00000  Uiso   1.00
C715   C     0.16643   0.49973   0.52318   0.00000  Uiso   1.00
C716   C     0.17648   0.54096   0.95447   0.00000  Uiso   1.00
C717   C     0.15685   0.45904   0.54553   0.00000  Uiso   1.00
C718   C     0.14844   0.41983   0.97506   0.00000  Uiso   1.00
C719   C     0.14794   0.41924   0.52114   0.00000  Uiso   1.00
C720   C     0.18488   0.58018   0.52494   0.00000  Uiso   1.00
C721   C     0.18539   0.58076   0.97886   0.00000  Uiso   1.00
C722   C     0.02127   0.45878   0.74587   0.00000  Uiso   1.00
C723   C     0.31207   0.54122   0.75413   0.00000  Uiso   1.00
C724   C     0.31204   0.45878   0.74593   0.00000  Uiso   1.00
C725   C     0.02130   0.54122   0.75407   0.00000  Uiso   1.00
C726   C     0.29087   0.50000   0.75005   0.00000  Uiso   1.00
F727   F     0.18705   0.57928   0.88615   0.00000  Uiso   1.00
F728   F     0.22029   0.62044   0.80344   0.00000  Uiso   1.00
F729   F     0.14628   0.42072   0.61385   0.00000  Uiso   1.00
F730   F     0.13978   0.38097   0.95217   0.00000  Uiso   1.00
F731   F     0.19355   0.61904   0.54783   0.00000  Uiso   1.00
F732   F     0.13884   0.37958   0.54156   0.00000  Uiso   1.00
F733   F     0.19449   0.62042   0.95844   0.00000  Uiso   1.00
F734   F     0.22014   0.38063   0.80362   0.00000  Uiso   1.00
F735   F     0.11319   0.61937   0.69638   0.00000  Uiso   1.00
F736   F     0.11304   0.37956   0.69656   0.00000  Uiso   1.00
H737   H     0.15072   0.43011   0.88829   0.00000  Uiso   1.00
H738   H     0.18261   0.56989   0.61171   0.00000  Uiso   1.00
H739   H     0.03741   0.42668   0.74251   0.00000  Uiso   1.00
H740   H     0.29592   0.57332   0.75749   0.00000  Uiso   1.00
H741   H     0.29587   0.42666   0.74262   0.00000  Uiso   1.00
H742   H     0.03747   0.57334   0.75738   0.00000  Uiso   1.00
N743   N     0.16667   0.61907   0.75000   0.00000  Uiso   1.00
N744   N     0.16667   0.38093   0.75000   0.00000  Uiso   1.00
O745   O     0.10559   0.53821   0.75000   0.00000  Uiso   1.00
O746   O     0.22774   0.46179   0.75001   0.00000  Uiso   1.00
O747   O     0.22774   0.53821   0.75001   0.00000  Uiso   1.00
O748   O     0.10559   0.46179   0.75000   0.00000  Uiso   1.00
O749   O     0.16666   0.53823   0.68393   0.00000  Uiso   1.00
O750   O     0.16667   0.46177   0.81608   0.00000  Uiso   1.00
O751   O     0.16667   0.53823   0.81608   0.00000  Uiso   1.00
O752   O     0.16666   0.46177   0.68393   0.00000  Uiso   1.00
Zn753  Zn    0.16667   0.55104   0.75000   0.00000  Uiso   1.00
Zn754  Zn    0.16667   0.44896   0.75000   0.00000  Uiso   1.00
C755   C     0.41994   0.50000   0.74996   0.00000  Uiso   1.00
C756   C     0.37579   0.50000   0.74995   0.00000  Uiso   1.00
C757   C     0.52674   0.35760   0.77677   0.00000  Uiso   1.00
C758   C     0.47326   0.64240   0.72323   0.00000  Uiso   1.00
C759   C     0.47324   0.35707   0.72326   0.00000  Uiso   1.00
C760   C     0.52676   0.64293   0.77674   0.00000  Uiso   1.00
C761   C     0.49961   0.49973   0.66326   0.00000  Uiso   1.00
C762   C     0.50038   0.50027   0.83674   0.00000  Uiso   1.00
C763   C     0.51023   0.54083   0.90822   0.00000  Uiso   1.00
C764   C     0.48977   0.45917   0.59178   0.00000  Uiso   1.00
C765   C     0.50076   0.50080   0.88470   0.00000  Uiso   1.00
C766   C     0.58006   0.50000   0.75004   0.00000  Uiso   1.00
C767   C     0.49924   0.49920   0.61530   0.00000  Uiso   1.00
C768   C     0.49144   0.46077   0.90690   0.00000  Uiso   1.00
C769   C     0.50856   0.53923   0.59310   0.00000  Uiso   1.00
C770   C     0.49114   0.46006   0.95283   0.00000  Uiso   1.00
C771   C     0.50886   0.53994   0.54717   0.00000  Uiso   1.00
C772   C     0.50023   0.50027   0.97682   0.00000  Uiso   1.00
C773   C     0.49976   0.49973   0.52318   0.00000  Uiso   1.00
C774   C     0.50982   0.54096   0.95447   0.00000  Uiso   1.00
C775   C     0.49018   0.45904   0.54553   0.00000  Uiso   1.00
C776   C     0.48178   0.41983   0.97506   0.00000  Uiso   1.00
C777   C     0.48127   0.41924   0.52114   0.00000  Uiso   1.00
C778   C     0.51822   0.58018   0.52494   0.00000  Uiso   1.00
C779   C     0.51872   0.58076   0.97886   0.00000  Uiso   1.00
C780   C     0.35460   0.45878   0.74587   0.00000  Uiso   1.00
C781   C     0.64540   0.54122   0.75413   0.00000  Uiso   1.00
C782   C     0.64537   0.45878   0.74593   0.00000  Uiso   1.00
C783   C     0.35463   0.54122   0.75407   0.00000  Uiso   1.00
C784   C     0.62421   0.50000   0.75005   0.00000  Uiso   1.00
F785   F     0.52038   0.57928   0.88615   0.00000  Uiso   1.00
F786   F     0.55362   0.62044   0.80344   0.00000  Uiso   1.00
F787   F     0.47962   0.42072   0.61385   0.00000  Uiso   1.00
F788   F     0.47311   0.38097   0.95217   0.00000  Uiso   1.00
F789   F     0.52688   0.61904   0.54783   0.00000  Uiso   1.00
F790   F     0.47217   0.37958   0.54156   0.00000  Uiso   1.00
F791   F     0.52783   0.62042   0.95844   0.00000  Uiso   1.00
F792   F     0.55347   0.38063   0.80362   0.00000  Uiso   1.00
F793   F     0.44653   0.61937   0.69638   0.00000  Uiso   1.00
F794   F     0.44638   0.37956   0.69656   0.00000  Uiso   1.00
H795   H     0.48405   0.43011   0.88829   0.00000  Uiso   1.00
H796   H     0.51595   0.56989   0.61171   0.00000  Uiso   1.00
H797   H     0.37075   0.42668   0.74251   0.00000  Uiso   1.00
H798   H     0.62925   0.57332   0.75749   0.00000  Uiso   1.00
H799   H     0.62920   0.42666   0.74262   0.00000  Uiso   1.00
H800   H     0.37080   0.57334   0.75738   0.00000  Uiso   1.00
N801   N     0.50000   0.61907   0.75000   0.00000  Uiso   1.00
N802   N     0.50000   0.38093   0.75000   0.00000  Uiso   1.00
O803   O     0.43892   0.53821   0.75000   0.00000  Uiso   1.00
O804   O     0.56108   0.46179   0.75001   0.00000  Uiso   1.00
O805   O     0.56108   0.53821   0.75001   0.00000  Uiso   1.00
O806   O     0.43892   0.46179   0.75000   0.00000  Uiso   1.00
O807   O     0.49999   0.53823   0.68393   0.00000  Uiso   1.00
O808   O     0.50001   0.46177   0.81608   0.00000  Uiso   1.00
O809   O     0.50001   0.53823   0.81608   0.00000  Uiso   1.00
O810   O     0.49999   0.46177   0.68393   0.00000  Uiso   1.00
Zn811  Zn    0.50000   0.55104   0.75000   0.00000  Uiso   1.00
Zn812  Zn    0.50000   0.44896   0.75000   0.00000  Uiso   1.00
C813   C     0.75327   0.50000   0.74996   0.00000  Uiso   1.00
C814   C     0.70913   0.50000   0.74995   0.00000  Uiso   1.00
C815   C     0.86007   0.35760   0.77677   0.00000  Uiso   1.00
C816   C     0.80659   0.64240   0.72323   0.00000  Uiso   1.00
C817   C     0.80657   0.35707   0.72326   0.00000  Uiso   1.00
C818   C     0.86010   0.64293   0.77674   0.00000  Uiso   1.00
C819   C     0.83295   0.49973   0.66326   0.00000  Uiso   1.00
C820   C     0.83372   0.50027   0.83674   0.00000  Uiso   1.00
C821   C     0.84357   0.54083   0.90822   0.00000  Uiso   1.00
C822   C     0.82310   0.45917   0.59178   0.00000  Uiso   1.00
C823   C     0.83410   0.50080   0.88470   0.00000  Uiso   1.00
C824   C     0.91340   0.50000   0.75004   0.00000  Uiso   1.00
C825   C     0.83257   0.49920   0.61530   0.00000  Uiso   1.00
C826   C     0.82477   0.46077   0.90690   0.00000  Uiso   1.00
C827   C     0.84189   0.53923   0.59310   0.00000  Uiso   1.00
C828   C     0.82447   0.46006   0.95283   0.00000  Uiso   1.00
C829   C     0.84219   0.53994   0.54717   0.00000  Uiso   1.00
C830   C     0.83357   0.50027   0.97682   0.00000  Uiso   1.00
C831   C     0.83310   0.49973   0.52318   0.00000  Uiso   1.00
C832   C     0.84315   0.54096   0.95447   0.00000  Uiso   1.00
C833   C     0.82352   0.45904   0.54553   0.00000  Uiso   1.00
C834   C     0.81511   0.41983   0.97506   0.00000  Uiso   1.00
C835   C     0.81461   0.41924   0.52114   0.00000  Uiso   1.00
C836   C     0.85155   0.58018   0.52494   0.00000  Uiso   1.00
C837   C     0.85206   0.58076   0.97886   0.00000  Uiso   1.00
C838   C     0.68793   0.45878   0.74587   0.00000  Uiso   1.00
C839   C     0.97873   0.54122   0.75413   0.00000  Uiso   1.00
C840   C     0.97870   0.45878   0.74593   0.00000  Uiso   1.00
C841   C     0.68796   0.54122   0.75407   0.00000  Uiso   1.00
C842   C     0.95754   0.50000   0.75005   0.00000  Uiso   1.00
F843   F     0.85372   0.57928   0.88615   0.00000  Uiso   1.00
F844   F     0.88696   0.62044   0.80344   0.00000  Uiso   1.00
F845   F     0.81295   0.42072   0.61385   0.00000  Uiso   1.00
F846   F     0.80645   0.38097   0.95217   0.00000  Uiso   1.00
F847   F     0.86021   0.61904   0.54783   0.00000  Uiso   1.00
F848   F     0.80550   0.37958   0.54156   0.00000  Uiso   1.00
F849   F     0.86116   0.62042   0.95844   0.00000  Uiso   1.00
F850   F     0.88681   0.38063   0.80362   0.00000  Uiso   1.00
F851   F     0.77986   0.61937   0.69638   0.00000  Uiso   1.00
F852   F     0.77971   0.37956   0.69656   0.00000  Uiso   1.00
H853   H     0.81738   0.43011   0.88829   0.00000  Uiso   1.00
H854   H     0.84928   0.56989   0.61171   0.00000  Uiso   1.00
H855   H     0.70408   0.42668   0.74251   0.00000  Uiso   1.00
H856   H     0.96259   0.57332   0.75749   0.00000  Uiso   1.00
H857   H     0.96253   0.42666   0.74262   0.00000  Uiso   1.00
H858   H     0.70413   0.57334   0.75738   0.00000  Uiso   1.00
N859   N     0.83333   0.61907   0.75000   0.00000  Uiso   1.00
N860   N     0.83333   0.38093   0.75000   0.00000  Uiso   1.00
O861   O     0.77226   0.53821   0.75000   0.00000  Uiso   1.00
O862   O     0.89441   0.46179   0.75001   0.00000  Uiso   1.00
O863   O     0.89441   0.53821   0.75001   0.00000  Uiso   1.00
O864   O     0.77226   0.46179   0.75000   0.00000  Uiso   1.00
O865   O     0.83333   0.53823   0.68393   0.00000  Uiso   1.00
O866   O     0.83334   0.46177   0.81608   0.00000  Uiso   1.00
O867   O     0.83334   0.53823   0.81608   0.00000  Uiso   1.00
O868   O     0.83333   0.46177   0.68393   0.00000  Uiso   1.00
Zn869  Zn    0.83333   0.55104   0.75000   0.00000  Uiso   1.00
Zn870  Zn    0.83333   0.44896   0.75000   0.00000  Uiso   1.00
C871   C     0.08660   0.83333   0.74996   0.00000  Uiso   1.00
C872   C     0.04246   0.83334   0.74995   0.00000  Uiso   1.00
C873   C     0.19341   0.69094   0.77677   0.00000  Uiso   1.00
C874   C     0.13993   0.97573   0.72323   0.00000  Uiso   1.00
C875   C     0.13990   0.69040   0.72326   0.00000  Uiso   1.00
C876   C     0.19343   0.97626   0.77674   0.00000  Uiso   1.00
C877   C     0.16628   0.83307   0.66326   0.00000  Uiso   1.00
C878   C     0.16705   0.83360   0.83674   0.00000  Uiso   1.00
C879   C     0.17690   0.87417   0.90822   0.00000  Uiso   1.00
C880   C     0.15643   0.79250   0.59178   0.00000  Uiso   1.00
C881   C     0.16743   0.83414   0.88470   0.00000  Uiso   1.00
C882   C     0.24673   0.83333   0.75004   0.00000  Uiso   1.00
C883   C     0.16590   0.83253   0.61530   0.00000  Uiso   1.00
C884   C     0.15810   0.79410   0.90690   0.00000  Uiso   1.00
C885   C     0.17523   0.87257   0.59310   0.00000  Uiso   1.00
C886   C     0.15781   0.79339   0.95283   0.00000  Uiso   1.00
C887   C     0.17552   0.87328   0.54717   0.00000  Uiso   1.00
C888   C     0.16690   0.83360   0.97682   0.00000  Uiso   1.00
C889   C     0.16643   0.83307   0.52318   0.00000  Uiso   1.00
C890   C     0.17648   0.87430   0.95447   0.00000  Uiso   1.00
C891   C     0.15685   0.79237   0.54553   0.00000  Uiso   1.00
C892   C     0.14844   0.75316   0.97506   0.00000  Uiso   1.00
C893   C     0.14794   0.75257   0.52114   0.00000  Uiso   1.00
C894   C     0.18488   0.91351   0.52494   0.00000  Uiso   1.00
C895   C     0.18539   0.91410   0.97886   0.00000  Uiso   1.00
C896   C     0.02127   0.79212   0.74587   0.00000  Uiso   1.00
C897   C     0.31207   0.87455   0.75413   0.00000  Uiso   1.00
C898   C     0.31204   0.79211   0.74593   0.00000  Uiso   1.00
C899   C     0.02130   0.87456   0.75407   0.00000  Uiso   1.00
C900   C     0.29087   0.83333   0.75005   0.00000  Uiso   1.00
F901   F     0.18705   0.91261   0.88615   0.00000  Uiso   1.00
F902   F     0.22029   0.95377   0.80344   0.00000  Uiso   1.00
F903   F     0.14628   0.75405   0.61385   0.00000  Uiso   1.00
F904   F     0.13978   0.71430   0.95217   0.00000  Uiso   1.00
F905   F     0.19355   0.95237   0.54783   0.00000  Uiso   1.00
F906   F     0.13884   0.71292   0.54156   0.00000  Uiso   1.00
F907   F     0.19449   0.95375   0.95844   0.00000  Uiso   1.00
F908   F     0.22014   0.71397   0.80362   0.00000  Uiso   1.00
F909   F     0.11319   0.95270   0.69638   0.00000  Uiso   1.00
F910   F     0.11304   0.71290   0.69656   0.00000  Uiso   1.00
H911   H     0.15072   0.76344   0.88829   0.00000  Uiso   1.00
H912   H     0.18261   0.90323   0.61171   0.00000  Uiso   1.00
H913   H     0.03741   0.76001   0.74251   0.00000  Uiso   1.00
H914   H     0.29592   0.90666   0.75749   0.00000  Uiso   1.00
H915   H     0.29587   0.76000   0.74262   0.00000  Uiso   1.00
H916   H     0.03747   0.90667   0.75738   0.00000  Uiso   1.00
N917   N     0.16667   0.95240   0.75000   0.00000  Uiso   1.00
N918   N     0.16667   0.71427   0.75000   0.00000  Uiso   1.00
O919   O     0.10559   0.87154   0.75000   0.00000  Uiso   1.00
O920   O     0.22774   0.79513   0.75001   0.00000  Uiso   1.00
O921   O     0.22774   0.87154   0.75001   0.00000  Uiso   1.00
O922   O     0.10559   0.79513   0.75000   0.00000  Uiso   1.00
O923   O     0.16666   0.87156   0.68393   0.00000  Uiso   1.00
O924   O     0.16667   0.79511   0.81608   0.00000  Uiso   1.00
O925   O     0.16667   0.87156   0.81608   0.00000  Uiso   1.00
O926   O     0.16666   0.79511   0.68393   0.00000  Uiso   1.00
Zn927  Zn    0.16667   0.88437   0.75000   0.00000  Uiso   1.00
Zn928  Zn    0.16667   0.78229   0.75000   0.00000  Uiso   1.00
C929   C     0.41994   0.83333   0.74996   0.00000  Uiso   1.00
C930   C     0.37579   0.83334   0.74995   0.00000  Uiso   1.00
C931   C     0.52674   0.69094   0.77677   0.00000  Uiso   1.00
C932   C     0.47326   0.97573   0.72323   0.00000  Uiso   1.00
C933   C     0.47324   0.69040   0.72326   0.00000  Uiso   1.00
C934   C     0.52676   0.97626   0.77674   0.00000  Uiso   1.00
C935   C     0.49961   0.83307   0.66326   0.00000  Uiso   1.00
C936   C     0.50038   0.83360   0.83674   0.00000  Uiso   1.00
C937   C     0.51023   0.87417   0.90822   0.00000  Uiso   1.00
C938   C     0.48977   0.79250   0.59178   0.00000  Uiso   1.00
C939   C     0.50076   0.83414   0.88470   0.00000  Uiso   1.00
C940   C     0.58006   0.83333   0.75004   0.00000  Uiso   1.00
C941   C     0.49924   0.83253   0.61530   0.00000  Uiso   1.00
C942   C     0.49144   0.79410   0.90690   0.00000  Uiso   1.00
C943   C     0.50856   0.87257   0.59310   0.00000  Uiso   1.00
C944   C     0.49114   0.79339   0.95283   0.00000  Uiso   1.00
C945   C     0.50886   0.87328   0.54717   0.00000  Uiso   1.00
C946   C     0.50023   0.83360   0.97682   0.00000  Uiso   1.00
C947   C     0.49976   0.83307   0.52318   0.00000  Uiso   1.00
C948   C     0.50982   0.87430   0.95447   0.00000  Uiso   1.00
C949   C     0.49018   0.79237   0.54553   0.00000  Uiso   1.00
C950   C     0.48178   0.75316   0.97506   0.00000  Uiso   1.00
C951   C     0.48127   0.75257   0.52114   0.00000  Uiso   1.00
C952   C     0.51822   0.91351   0.52494   0.00000  Uiso   1.00
C953   C     0.51872   0.91410   0.97886   0.00000  Uiso   1.00
C954   C     0.35460   0.79212   0.74587   0.00000  Uiso   1.00
C955   C     0.64540   0.87455   0.75413   0.00000  Uiso   1.00
C956   C     0.64537   0.79211   0.74593   0.00000  Uiso   1.00
C957   C     0.35463   0.87456   0.75407   0.00000  Uiso   1.00
C958   C     0.62421   0.83333   0.75005   0.00000  Uiso   1.00
F959   F     0.52038   0.91261   0.88615   0.00000  Uiso   1.00
F960   F     0.55362   0.95377   0.80344   0.00000  Uiso   1.00
F961   F     0.47962   0.75405   0.61385   0.00000  Uiso   1.00
F962   F     0.47311   0.71430   0.95217   0.00000  Uiso   1.00
F963   F     0.52688   0.95237   0.54783   0.00000  Uiso   1.00
F964   F     0.47217   0.71292   0.54156   0.00000  Uiso   1.00
F965   F     0.52783   0.95375   0.95844   0.00000  Uiso   1.00
F966   F     0.55347   0.71397   0.80362   0.00000  Uiso   1.00
F967   F     0.44653   0.95270   0.69638   0.00000  Uiso   1.00
F968   F     0.44638   0.71290   0.69656   0.00000  Uiso   1.00
H969   H     0.48405   0.76344   0.88829   0.00000  Uiso   1.00
H970   H     0.51595   0.90323   0.61171   0.00000  Uiso   1.00
H971   H     0.37075   0.76001   0.74251   0.00000  Uiso   1.00
H972   H     0.62925   0.90666   0.75749   0.00000  Uiso   1.00
H973   H     0.62920   0.76000   0.74262   0.00000  Uiso   1.00
H974   H     0.37080   0.90667   0.75738   0.00000  Uiso   1.00
N975   N     0.50000   0.95240   0.75000   0.00000  Uiso   1.00
N976   N     0.50000   0.71427   0.75000   0.00000  Uiso   1.00
O977   O     0.43892   0.87154   0.75000   0.00000  Uiso   1.00
O978   O     0.56108   0.79513   0.75001   0.00000  Uiso   1.00
O979   O     0.56108   0.87154   0.75001   0.00000  Uiso   1.00
O980   O     0.43892   0.79513   0.75000   0.00000  Uiso   1.00
O981   O     0.49999   0.87156   0.68393   0.00000  Uiso   1.00
O982   O     0.50001   0.79511   0.81608   0.00000  Uiso   1.00
O983   O     0.50001   0.87156   0.81608   0.00000  Uiso   1.00
O984   O     0.49999   0.79511   0.68393   0.00000  Uiso   1.00
Zn985  Zn    0.50000   0.88437   0.75000   0.00000  Uiso   1.00
Zn986  Zn    0.50000   0.78229   0.75000   0.00000  Uiso   1.00
C987   C     0.75327   0.83333   0.74996   0.00000  Uiso   1.00
C988   C     0.70913   0.83334   0.74995   0.00000  Uiso   1.00
C989   C     0.86007   0.69094   0.77677   0.00000  Uiso   1.00
C990   C     0.80659   0.97573   0.72323   0.00000  Uiso   1.00
C991   C     0.80657   0.69040   0.72326   0.00000  Uiso   1.00
C992   C     0.86010   0.97626   0.77674   0.00000  Uiso   1.00
C993   C     0.83295   0.83307   0.66326   0.00000  Uiso   1.00
C994   C     0.83372   0.83360   0.83674   0.00000  Uiso   1.00
C995   C     0.84357   0.87417   0.90822   0.00000  Uiso   1.00
C996   C     0.82310   0.79250   0.59178   0.00000  Uiso   1.00
C997   C     0.83410   0.83414   0.88470   0.00000  Uiso   1.00
C998   C     0.91340   0.83333   0.75004   0.00000  Uiso   1.00
C999   C     0.83257   0.83253   0.61530   0.00000  Uiso   1.00
C1000  C     0.82477   0.79410   0.90690   0.00000  Uiso   1.00
C1001  C     0.84189   0.87257   0.59310   0.00000  Uiso   1.00
C1002  C     0.82447   0.79339   0.95283   0.00000  Uiso   1.00
C1003  C     0.84219   0.87328   0.54717   0.00000  Uiso   1.00
C1004  C     0.83357   0.83360   0.97682   0.00000  Uiso   1.00
C1005  C     0.83310   0.83307   0.52318   0.00000  Uiso   1.00
C1006  C     0.84315   0.87430   0.95447   0.00000  Uiso   1.00
C1007  C     0.82352   0.79237   0.54553   0.00000  Uiso   1.00
C1008  C     0.81511   0.75316   0.97506   0.00000  Uiso   1.00
C1009  C     0.81461   0.75257   0.52114   0.00000  Uiso   1.00
C1010  C     0.85155   0.91351   0.52494   0.00000  Uiso   1.00
C1011  C     0.85206   0.91410   0.97886   0.00000  Uiso   1.00
C1012  C     0.68793   0.79212   0.74587   0.00000  Uiso   1.00
C1013  C     0.97873   0.87455   0.75413   0.00000  Uiso   1.00
C1014  C     0.97870   0.79211   0.74593   0.00000  Uiso   1.00
C1015  C     0.68796   0.87456   0.75407   0.00000  Uiso   1.00
C1016  C     0.95754   0.83333   0.75005   0.00000  Uiso   1.00
F1017  F     0.85372   0.91261   0.88615   0.00000  Uiso   1.00
F1018  F     0.88696   0.95377   0.80344   0.00000  Uiso   1.00
F1019  F     0.81295   0.75405   0.61385   0.00000  Uiso   1.00
F1020  F     0.80645   0.71430   0.95217   0.00000  Uiso   1.00
F1021  F     0.86021   0.95237   0.54783   0.00000  Uiso   1.00
F1022  F     0.80550   0.71292   0.54156   0.00000  Uiso   1.00
F1023  F     0.86116   0.95375   0.95844   0.00000  Uiso   1.00
F1024  F     0.88681   0.71397   0.80362   0.00000  Uiso   1.00
F1025  F     0.77986   0.95270   0.69638   0.00000  Uiso   1.00
F1026  F     0.77971   0.71290   0.69656   0.00000  Uiso   1.00
H1027  H     0.81738   0.76344   0.88829   0.00000  Uiso   1.00
H1028  H     0.84928   0.90323   0.61171   0.00000  Uiso   1.00
H1029  H     0.70408   0.76001   0.74251   0.00000  Uiso   1.00
H1030  H     0.96259   0.90666   0.75749   0.00000  Uiso   1.00
H1031  H     0.96253   0.76000   0.74262   0.00000  Uiso   1.00
H1032  H     0.70413   0.90667   0.75738   0.00000  Uiso   1.00
N1033  N     0.83333   0.95240   0.75000   0.00000  Uiso   1.00
N1034  N     0.83333   0.71427   0.75000   0.00000  Uiso   1.00
O1035  O     0.77226   0.87154   0.75000   0.00000  Uiso   1.00
O1036  O     0.89441   0.79513   0.75001   0.00000  Uiso   1.00
O1037  O     0.89441   0.87154   0.75001   0.00000  Uiso   1.00
O1038  O     0.77226   0.79513   0.75000   0.00000  Uiso   1.00
O1039  O     0.83333   0.87156   0.68393   0.00000  Uiso   1.00
O1040  O     0.83334   0.79511   0.81608   0.00000  Uiso   1.00
O1041  O     0.83334   0.87156   0.81608   0.00000  Uiso   1.00
O1042  O     0.83333   0.79511   0.68393   0.00000  Uiso   1.00
Zn1043 Zn    0.83333   0.88437   0.75000   0.00000  Uiso   1.00
Zn1044 Zn    0.83333   0.78229   0.75000   0.00000  Uiso   1.00
loop_
_geom_bond_atom_site_label_1
_geom_bond_atom_site_label_2
_geom_bond_distance
_geom_bond_site_symmetry_2
_ccdc_geom_bond_type
C1     C2      1.420   .     S
C1     O52     1.281   .     A
C1     O49     1.281   .     A
C2     C26     1.397   .     A
C2     C29     1.397   .     A
C3     N48     1.366   .     A
C3     F38     1.355   .     S
C3     C354    1.415   1_545 S
C4     F39     1.355   .     S
C4     N47     1.366   .     A
C4     C179    1.415   .     S
C5     N48     1.366   .     A
C5     F40     1.355   .     S
C5     C352    1.415   1_545 S
C6     F32     1.355   .     S
C6     N47     1.366   .     A
C6     C177    1.415   .     S
C7     O56     1.285   .     A
C7     O53     1.289   .     A
C7     C13     1.443   .     S
C8     O55     1.285   .     A
C8     C11     1.443   .     S
C8     O54     1.289   .     A
C9     C20     1.392   .     A
C9     F31     1.360   .     S
C9     C11     1.403   .     A
C10    C13     1.403   .     A
C10    F33     1.360   .     S
C10    C21     1.392   .     A
C11    C14     1.395   .     A
C12    O51     1.281   .     A
C12    C30     1.420   .     S
C12    O50     1.281   .     A
C13    C15     1.395   .     A
C14    H41     1.084   .     S
C14    C16     1.383   .     A
C15    H42     1.084   .     S
C15    C17     1.383   .     A
C16    C18     1.412   .     A
C16    C22     1.401   .     A
C17    C24     1.401   .     A
C17    C19     1.412   .     A
C18    C20     1.416   .     A
C18    C541    1.395   .     S
C19    C21     1.416   .     A
C19    C540    1.395   1_554 S
C20    C25     1.407   .     A
C21    C23     1.407   .     A
C22    F34     1.359   .     S
C22    C545    1.387   .     S
C23    F36     1.358   .     S
C23    C544    1.387   1_554 S
C24    F35     1.359   .     S
C24    C547    1.387   1_554 S
C25    F37     1.358   .     S
C25    C546    1.387   .     S
C26    H43     1.084   .     S
C26    C144    1.370   1_455 S
C27    C30     1.397   .     A
C27    H44     1.084   .     S
C27    C87     1.370   .     S
C28    C30     1.397   .     A
C28    H45     1.084   .     S
C28    C84     1.370   .     S
C29    H46     1.084   .     S
C29    C143    1.370   1_455 S
N47    Zn57    2.005   .     S
N48    Zn58    2.005   .     S
O49    Zn57    2.001   .     S
O50    Zn58    2.001   .     S
O51    Zn57    2.001   .     S
O52    Zn58    2.001   .     S
O53    Zn57    2.020   .     S
O54    Zn58    2.020   .     S
O55    Zn57    2.027   .     S
O56    Zn58    2.027   .     S
C59    C60     1.420   .     S
C59    O110    1.281   .     A
C59    O107    1.281   .     A
C60    C84     1.397   .     A
C60    C87     1.397   .     A
C61    N106    1.366   .     A
C61    F96     1.355   .     S
C61    C412    1.415   1_545 S
C62    F97     1.355   .     S
C62    N105    1.366   .     A
C62    C237    1.415   .     S
C63    N106    1.366   .     A
C63    F98     1.355   .     S
C63    C410    1.415   1_545 S
C64    F90     1.355   .     S
C64    N105    1.366   .     A
C64    C235    1.415   .     S
C65    O114    1.285   .     A
C65    O111    1.289   .     A
C65    C71     1.443   .     S
C66    O113    1.285   .     A
C66    C69     1.443   .     S
C66    O112    1.289   .     A
C67    C78     1.392   .     A
C67    F89     1.360   .     S
C67    C69     1.403   .     A
C68    C71     1.403   .     A
C68    F91     1.360   .     S
C68    C79     1.392   .     A
C69    C72     1.395   .     A
C70    O109    1.281   .     A
C70    C88     1.420   .     S
C70    O108    1.281   .     A
C71    C73     1.395   .     A
C72    H99     1.084   .     S
C72    C74     1.383   .     A
C73    H100    1.084   .     S
C73    C75     1.383   .     A
C74    C76     1.412   .     A
C74    C80     1.401   .     A
C75    C82     1.401   .     A
C75    C77     1.412   .     A
C76    C78     1.416   .     A
C76    C599    1.395   .     S
C77    C79     1.416   .     A
C77    C598    1.395   1_554 S
C78    C83     1.407   .     A
C79    C81     1.407   .     A
C80    F92     1.359   .     S
C80    C603    1.387   .     S
C81    F94     1.358   .     S
C81    C602    1.387   1_554 S
C82    F93     1.359   .     S
C82    C605    1.387   1_554 S
C83    F95     1.358   .     S
C83    C604    1.387   .     S
C84    H101    1.084   .     S
C85    C88     1.397   .     A
C85    H102    1.084   .     S
C85    C145    1.370   .     S
C86    C88     1.397   .     A
C86    H103    1.084   .     S
C86    C142    1.370   .     S
C87    H104    1.084   .     S
N105   Zn115   2.005   .     S
N106   Zn116   2.005   .     S
O107   Zn115   2.001   .     S
O108   Zn116   2.001   .     S
O109   Zn115   2.001   .     S
O110   Zn116   2.001   .     S
O111   Zn115   2.020   .     S
O112   Zn116   2.020   .     S
O113   Zn115   2.027   .     S
O114   Zn116   2.027   .     S
C117   C118    1.420   .     S
C117   O168    1.281   .     A
C117   O165    1.281   .     A
C118   C142    1.397   .     A
C118   C145    1.397   .     A
C119   N164    1.366   .     A
C119   F154    1.355   .     S
C119   C470    1.415   1_545 S
C120   F155    1.355   .     S
C120   N163    1.366   .     A
C120   C295    1.415   .     S
C121   N164    1.366   .     A
C121   F156    1.355   .     S
C121   C468    1.415   1_545 S
C122   F148    1.355   .     S
C122   N163    1.366   .     A
C122   C293    1.415   .     S
C123   O172    1.285   .     A
C123   O169    1.289   .     A
C123   C129    1.443   .     S
C124   O171    1.285   .     A
C124   C127    1.443   .     S
C124   O170    1.289   .     A
C125   C136    1.392   .     A
C125   F147    1.360   .     S
C125   C127    1.403   .     A
C126   C129    1.403   .     A
C126   F149    1.360   .     S
C126   C137    1.392   .     A
C127   C130    1.395   .     A
C128   O167    1.281   .     A
C128   C146    1.420   .     S
C128   O166    1.281   .     A
C129   C131    1.395   .     A
C130   H157    1.084   .     S
C130   C132    1.383   .     A
C131   H158    1.084   .     S
C131   C133    1.383   .     A
C132   C134    1.412   .     A
C132   C138    1.401   .     A
C133   C140    1.401   .     A
C133   C135    1.412   .     A
C134   C136    1.416   .     A
C134   C657    1.395   .     S
C135   C137    1.416   .     A
C135   C656    1.395   1_554 S
C136   C141    1.407   .     A
C137   C139    1.407   .     A
C138   F150    1.359   .     S
C138   C661    1.387   .     S
C139   F152    1.358   .     S
C139   C660    1.387   1_554 S
C140   F151    1.359   .     S
C140   C663    1.387   1_554 S
C141   F153    1.358   .     S
C141   C662    1.387   .     S
C142   H159    1.084   .     S
C143   C146    1.397   .     A
C143   H160    1.084   .     S
C143   C29     1.370   1_655 S
C144   C146    1.397   .     A
C144   H161    1.084   .     S
C144   C26     1.370   1_655 S
C145   H162    1.084   .     S
N163   Zn173   2.005   .     S
N164   Zn174   2.005   .     S
O165   Zn173   2.001   .     S
O166   Zn174   2.001   .     S
O167   Zn173   2.001   .     S
O168   Zn174   2.001   .     S
O169   Zn173   2.020   .     S
O170   Zn174   2.020   .     S
O171   Zn173   2.027   .     S
O172   Zn174   2.027   .     S
C175   C176    1.420   .     S
C175   O226    1.281   .     A
C175   O223    1.281   .     A
C176   C200    1.397   .     A
C176   C203    1.397   .     A
C177   N222    1.366   .     A
C177   F212    1.355   .     S
C178   F213    1.355   .     S
C178   N221    1.366   .     A
C178   C353    1.415   .     S
C179   N222    1.366   .     A
C179   F214    1.355   .     S
C180   F206    1.355   .     S
C180   N221    1.366   .     A
C180   C351    1.415   .     S
C181   O230    1.285   .     A
C181   O227    1.289   .     A
C181   C187    1.443   .     S
C182   O229    1.285   .     A
C182   C185    1.443   .     S
C182   O228    1.289   .     A
C183   C194    1.392   .     A
C183   F205    1.360   .     S
C183   C185    1.403   .     A
C184   C187    1.403   .     A
C184   F207    1.360   .     S
C184   C195    1.392   .     A
C185   C188    1.395   .     A
C186   O225    1.281   .     A
C186   C204    1.420   .     S
C186   O224    1.281   .     A
C187   C189    1.395   .     A
C188   H215    1.084   .     S
C188   C190    1.383   .     A
C189   H216    1.084   .     S
C189   C191    1.383   .     A
C190   C192    1.412   .     A
C190   C196    1.401   .     A
C191   C198    1.401   .     A
C191   C193    1.412   .     A
C192   C194    1.416   .     A
C192   C715    1.395   .     S
C193   C195    1.416   .     A
C193   C714    1.395   1_554 S
C194   C199    1.407   .     A
C195   C197    1.407   .     A
C196   F208    1.359   .     S
C196   C719    1.387   .     S
C197   F210    1.358   .     S
C197   C718    1.387   1_554 S
C198   F209    1.359   .     S
C198   C721    1.387   1_554 S
C199   F211    1.358   .     S
C199   C720    1.387   .     S
C200   H217    1.084   .     S
C200   C318    1.370   1_455 S
C201   C204    1.397   .     A
C201   H218    1.084   .     S
C201   C261    1.370   .     S
C202   C204    1.397   .     A
C202   H219    1.084   .     S
C202   C258    1.370   .     S
C203   H220    1.084   .     S
C203   C317    1.370   1_455 S
N221   Zn231   2.005   .     S
N222   Zn232   2.005   .     S
O223   Zn231   2.001   .     S
O224   Zn232   2.001   .     S
O225   Zn231   2.001   .     S
O226   Zn232   2.001   .     S
O227   Zn231   2.020   .     S
O228   Zn232   2.020   .     S
O229   Zn231   2.027   .     S
O230   Zn232   2.027   .     S
C233   C234    1.420   .     S
C233   O284    1.281   .     A
C233   O281    1.281   .     A
C234   C258    1.397   .     A
C234   C261    1.397   .     A
C235   N280    1.366   .     A
C235   F270    1.355   .     S
C236   F271    1.355   .     S
C236   N279    1.366   .     A
C236   C411    1.415   .     S
C237   N280    1.366   .     A
C237   F272    1.355   .     S
C238   F264    1.355   .     S
C238   N279    1.366   .     A
C238   C409    1.415   .     S
C239   O288    1.285   .     A
C239   O285    1.289   .     A
C239   C245    1.443   .     S
C240   O287    1.285   .     A
C240   C243    1.443   .     S
C240   O286    1.289   .     A
C241   C252    1.392   .     A
C241   F263    1.360   .     S
C241   C243    1.403   .     A
C242   C245    1.403   .     A
C242   F265    1.360   .     S
C242   C253    1.392   .     A
C243   C246    1.395   .     A
C244   O283    1.281   .     A
C244   C262    1.420   .     S
C244   O282    1.281   .     A
C245   C247    1.395   .     A
C246   H273    1.084   .     S
C246   C248    1.383   .     A
C247   H274    1.084   .     S
C247   C249    1.383   .     A
C248   C250    1.412   .     A
C248   C254    1.401   .     A
C249   C256    1.401   .     A
C249   C251    1.412   .     A
C250   C252    1.416   .     A
C250   C773    1.395   .     S
C251   C253    1.416   .     A
C251   C772    1.395   1_554 S
C252   C257    1.407   .     A
C253   C255    1.407   .     A
C254   F266    1.359   .     S
C254   C777    1.387   .     S
C255   F268    1.358   .     S
C255   C776    1.387   1_554 S
C256   F267    1.359   .     S
C256   C779    1.387   1_554 S
C257   F269    1.358   .     S
C257   C778    1.387   .     S
C258   H275    1.084   .     S
C259   C262    1.397   .     A
C259   H276    1.084   .     S
C259   C319    1.370   .     S
C260   C262    1.397   .     A
C260   H277    1.084   .     S
C260   C316    1.370   .     S
C261   H278    1.084   .     S
N279   Zn289   2.005   .     S
N280   Zn290   2.005   .     S
O281   Zn289   2.001   .     S
O282   Zn290   2.001   .     S
O283   Zn289   2.001   .     S
O284   Zn290   2.001   .     S
O285   Zn289   2.020   .     S
O286   Zn290   2.020   .     S
O287   Zn289   2.027   .     S
O288   Zn290   2.027   .     S
C291   C292    1.420   .     S
C291   O342    1.281   .     A
C291   O339    1.281   .     A
C292   C316    1.397   .     A
C292   C319    1.397   .     A
C293   N338    1.366   .     A
C293   F328    1.355   .     S
C294   F329    1.355   .     S
C294   N337    1.366   .     A
C294   C469    1.415   .     S
C295   N338    1.366   .     A
C295   F330    1.355   .     S
C296   F322    1.355   .     S
C296   N337    1.366   .     A
C296   C467    1.415   .     S
C297   O346    1.285   .     A
C297   O343    1.289   .     A
C297   C303    1.443   .     S
C298   O345    1.285   .     A
C298   C301    1.443   .     S
C298   O344    1.289   .     A
C299   C310    1.392   .     A
C299   F321    1.360   .     S
C299   C301    1.403   .     A
C300   C303    1.403   .     A
C300   F323    1.360   .     S
C300   C311    1.392   .     A
C301   C304    1.395   .     A
C302   O341    1.281   .     A
C302   C320    1.420   .     S
C302   O340    1.281   .     A
C303   C305    1.395   .     A
C304   H331    1.084   .     S
C304   C306    1.383   .     A
C305   H332    1.084   .     S
C305   C307    1.383   .     A
C306   C308    1.412   .     A
C306   C312    1.401   .     A
C307   C314    1.401   .     A
C307   C309    1.412   .     A
C308   C310    1.416   .     A
C308   C831    1.395   .     S
C309   C311    1.416   .     A
C309   C830    1.395   1_554 S
C310   C315    1.407   .     A
C311   C313    1.407   .     A
C312   F324    1.359   .     S
C312   C835    1.387   .     S
C313   F326    1.358   .     S
C313   C834    1.387   1_554 S
C314   F325    1.359   .     S
C314   C837    1.387   1_554 S
C315   F327    1.358   .     S
C315   C836    1.387   .     S
C316   H333    1.084   .     S
C317   C320    1.397   .     A
C317   H334    1.084   .     S
C317   C203    1.370   1_655 S
C318   C320    1.397   .     A
C318   H335    1.084   .     S
C318   C200    1.370   1_655 S
C319   H336    1.084   .     S
N337   Zn347   2.005   .     S
N338   Zn348   2.005   .     S
O339   Zn347   2.001   .     S
O340   Zn348   2.001   .     S
O341   Zn347   2.001   .     S
O342   Zn348   2.001   .     S
O343   Zn347   2.020   .     S
O344   Zn348   2.020   .     S
O345   Zn347   2.027   .     S
O346   Zn348   2.027   .     S
C349   C350    1.420   .     S
C349   O400    1.281   .     A
C349   O397    1.281   .     A
C350   C374    1.397   .     A
C350   C377    1.397   .     A
C351   N396    1.366   .     A
C351   F386    1.355   .     S
C352   F387    1.355   .     S
C352   N395    1.366   .     A
C352   C5      1.415   1_565 S
C353   N396    1.366   .     A
C353   F388    1.355   .     S
C354   F380    1.355   .     S
C354   N395    1.366   .     A
C354   C3      1.415   1_565 S
C355   O404    1.285   .     A
C355   O401    1.289   .     A
C355   C361    1.443   .     S
C356   O403    1.285   .     A
C356   C359    1.443   .     S
C356   O402    1.289   .     A
C357   C368    1.392   .     A
C357   F379    1.360   .     S
C357   C359    1.403   .     A
C358   C361    1.403   .     A
C358   F381    1.360   .     S
C358   C369    1.392   .     A
C359   C362    1.395   .     A
C360   O399    1.281   .     A
C360   C378    1.420   .     S
C360   O398    1.281   .     A
C361   C363    1.395   .     A
C362   H389    1.084   .     S
C362   C364    1.383   .     A
C363   H390    1.084   .     S
C363   C365    1.383   .     A
C364   C366    1.412   .     A
C364   C370    1.401   .     A
C365   C372    1.401   .     A
C365   C367    1.412   .     A
C366   C368    1.416   .     A
C366   C889    1.395   .     S
C367   C369    1.416   .     A
C367   C888    1.395   1_554 S
C368   C373    1.407   .     A
C369   C371    1.407   .     A
C370   F382    1.359   .     S
C370   C893    1.387   .     S
C371   F384    1.358   .     S
C371   C892    1.387   1_554 S
C372   F383    1.359   .     S
C372   C895    1.387   1_554 S
C373   F385    1.358   .     S
C373   C894    1.387   .     S
C374   H391    1.084   .     S
C374   C492    1.370   1_455 S
C375   C378    1.397   .     A
C375   H392    1.084   .     S
C375   C435    1.370   .     S
C376   C378    1.397   .     A
C376   H393    1.084   .     S
C376   C432    1.370   .     S
C377   H394    1.084   .     S
C377   C491    1.370   1_455 S
N395   Zn405   2.005   .     S
N396   Zn406   2.005   .     S
O397   Zn405   2.001   .     S
O398   Zn406   2.001   .     S
O399   Zn405   2.001   .     S
O400   Zn406   2.001   .     S
O401   Zn405   2.020   .     S
O402   Zn406   2.020   .     S
O403   Zn405   2.027   .     S
O404   Zn406   2.027   .     S
C407   C408    1.420   .     S
C407   O458    1.281   .     A
C407   O455    1.281   .     A
C408   C432    1.397   .     A
C408   C435    1.397   .     A
C409   N454    1.366   .     A
C409   F444    1.355   .     S
C410   F445    1.355   .     S
C410   N453    1.366   .     A
C410   C63     1.415   1_565 S
C411   N454    1.366   .     A
C411   F446    1.355   .     S
C412   F438    1.355   .     S
C412   N453    1.366   .     A
C412   C61     1.415   1_565 S
C413   O462    1.285   .     A
C413   O459    1.289   .     A
C413   C419    1.443   .     S
C414   O461    1.285   .     A
C414   C417    1.443   .     S
C414   O460    1.289   .     A
C415   C426    1.392   .     A
C415   F437    1.360   .     S
C415   C417    1.403   .     A
C416   C419    1.403   .     A
C416   F439    1.360   .     S
C416   C427    1.392   .     A
C417   C420    1.395   .     A
C418   O457    1.281   .     A
C418   C436    1.420   .     S
C418   O456    1.281   .     A
C419   C421    1.395   .     A
C420   H447    1.084   .     S
C420   C422    1.383   .     A
C421   H448    1.084   .     S
C421   C423    1.383   .     A
C422   C424    1.412   .     A
C422   C428    1.401   .     A
C423   C430    1.401   .     A
C423   C425    1.412   .     A
C424   C426    1.416   .     A
C424   C947    1.395   .     S
C425   C427    1.416   .     A
C425   C946    1.395   1_554 S
C426   C431    1.407   .     A
C427   C429    1.407   .     A
C428   F440    1.359   .     S
C428   C951    1.387   .     S
C429   F442    1.358   .     S
C429   C950    1.387   1_554 S
C430   F441    1.359   .     S
C430   C953    1.387   1_554 S
C431   F443    1.358   .     S
C431   C952    1.387   .     S
C432   H449    1.084   .     S
C433   C436    1.397   .     A
C433   H450    1.084   .     S
C433   C493    1.370   .     S
C434   C436    1.397   .     A
C434   H451    1.084   .     S
C434   C490    1.370   .     S
C435   H452    1.084   .     S
N453   Zn463   2.005   .     S
N454   Zn464   2.005   .     S
O455   Zn463   2.001   .     S
O456   Zn464   2.001   .     S
O457   Zn463   2.001   .     S
O458   Zn464   2.001   .     S
O459   Zn463   2.020   .     S
O460   Zn464   2.020   .     S
O461   Zn463   2.027   .     S
O462   Zn464   2.027   .     S
C465   C466    1.420   .     S
C465   O516    1.281   .     A
C465   O513    1.281   .     A
C466   C490    1.397   .     A
C466   C493    1.397   .     A
C467   N512    1.366   .     A
C467   F502    1.355   .     S
C468   F503    1.355   .     S
C468   N511    1.366   .     A
C468   C121    1.415   1_565 S
C469   N512    1.366   .     A
C469   F504    1.355   .     S
C470   F496    1.355   .     S
C470   N511    1.366   .     A
C470   C119    1.415   1_565 S
C471   O520    1.285   .     A
C471   O517    1.289   .     A
C471   C477    1.443   .     S
C472   O519    1.285   .     A
C472   C475    1.443   .     S
C472   O518    1.289   .     A
C473   C484    1.392   .     A
C473   F495    1.360   .     S
C473   C475    1.403   .     A
C474   C477    1.403   .     A
C474   F497    1.360   .     S
C474   C485    1.392   .     A
C475   C478    1.395   .     A
C476   O515    1.281   .     A
C476   C494    1.420   .     S
C476   O514    1.281   .     A
C477   C479    1.395   .     A
C478   H505    1.084   .     S
C478   C480    1.383   .     A
C479   H506    1.084   .     S
C479   C481    1.383   .     A
C480   C482    1.412   .     A
C480   C486    1.401   .     A
C481   C488    1.401   .     A
C481   C483    1.412   .     A
C482   C484    1.416   .     A
C482   C1005   1.395   .     S
C483   C485    1.416   .     A
C483   C1004   1.395   1_554 S
C484   C489    1.407   .     A
C485   C487    1.407   .     A
C486   F498    1.359   .     S
C486   C1009   1.387   .     S
C487   F500    1.358   .     S
C487   C1008   1.387   1_554 S
C488   F499    1.359   .     S
C488   C1011   1.387   1_554 S
C489   F501    1.358   .     S
C489   C1010   1.387   .     S
C490   H507    1.084   .     S
C491   C494    1.397   .     A
C491   H508    1.084   .     S
C491   C377    1.370   1_655 S
C492   C494    1.397   .     A
C492   H509    1.084   .     S
C492   C374    1.370   1_655 S
C493   H510    1.084   .     S
N511   Zn521   2.005   .     S
N512   Zn522   2.005   .     S
O513   Zn521   2.001   .     S
O514   Zn522   2.001   .     S
O515   Zn521   2.001   .     S
O516   Zn522   2.001   .     S
O517   Zn521   2.020   .     S
O518   Zn522   2.020   .     S
O519   Zn521   2.027   .     S
O520   Zn522   2.027   .     S
C523   C524    1.420   .     S
C523   O574    1.281   .     A
C523   O571    1.281   .     A
C524   C548    1.397   .     A
C524   C551    1.397   .     A
C525   N570    1.366   .     A
C525   F560    1.355   .     S
C525   C876    1.415   1_545 S
C526   F561    1.355   .     S
C526   N569    1.366   .     A
C526   C701    1.415   .     S
C527   N570    1.366   .     A
C527   F562    1.355   .     S
C527   C874    1.415   1_545 S
C528   F554    1.355   .     S
C528   N569    1.366   .     A
C528   C699    1.415   .     S
C529   O578    1.285   .     A
C529   O575    1.289   .     A
C529   C535    1.443   .     S
C530   O577    1.285   .     A
C530   C533    1.443   .     S
C530   O576    1.289   .     A
C531   C542    1.392   .     A
C531   F553    1.360   .     S
C531   C533    1.403   .     A
C532   C535    1.403   .     A
C532   F555    1.360   .     S
C532   C543    1.392   .     A
C533   C536    1.395   .     A
C534   O573    1.281   .     A
C534   C552    1.420   .     S
C534   O572    1.281   .     A
C535   C537    1.395   .     A
C536   H563    1.084   .     S
C536   C538    1.383   .     A
C537   H564    1.084   .     S
C537   C539    1.383   .     A
C538   C540    1.412   .     A
C538   C544    1.401   .     A
C539   C546    1.401   .     A
C539   C541    1.412   .     A
C540   C542    1.416   .     A
C540   C19     1.395   1_556 S
C541   C543    1.416   .     A
C542   C547    1.407   .     A
C543   C545    1.407   .     A
C544   F556    1.359   .     S
C544   C23     1.387   1_556 S
C545   F558    1.358   .     S
C546   F557    1.359   .     S
C547   F559    1.358   .     S
C547   C24     1.387   1_556 S
C548   H565    1.084   .     S
C548   C666    1.370   1_455 S
C549   C552    1.397   .     A
C549   H566    1.084   .     S
C549   C609    1.370   .     S
C550   C552    1.397   .     A
C550   H567    1.084   .     S
C550   C606    1.370   .     S
C551   H568    1.084   .     S
C551   C665    1.370   1_455 S
N569   Zn579   2.005   .     S
N570   Zn580   2.005   .     S
O571   Zn579   2.001   .     S
O572   Zn580   2.001   .     S
O573   Zn579   2.001   .     S
O574   Zn580   2.001   .     S
O575   Zn579   2.020   .     S
O576   Zn580   2.020   .     S
O577   Zn579   2.027   .     S
O578   Zn580   2.027   .     S
C581   C582    1.420   .     S
C581   O632    1.281   .     A
C581   O629    1.281   .     A
C582   C606    1.397   .     A
C582   C609    1.397   .     A
C583   N628    1.366   .     A
C583   F618    1.355   .     S
C583   C934    1.415   1_545 S
C584   F619    1.355   .     S
C584   N627    1.366   .     A
C584   C759    1.415   .     S
C585   N628    1.366   .     A
C585   F620    1.355   .     S
C585   C932    1.415   1_545 S
C586   F612    1.355   .     S
C586   N627    1.366   .     A
C586   C757    1.415   .     S
C587   O636    1.285   .     A
C587   O633    1.289   .     A
C587   C593    1.443   .     S
C588   O635    1.285   .     A
C588   C591    1.443   .     S
C588   O634    1.289   .     A
C589   C600    1.392   .     A
C589   F611    1.360   .     S
C589   C591    1.403   .     A
C590   C593    1.403   .     A
C590   F613    1.360   .     S
C590   C601    1.392   .     A
C591   C594    1.395   .     A
C592   O631    1.281   .     A
C592   C610    1.420   .     S
C592   O630    1.281   .     A
C593   C595    1.395   .     A
C594   H621    1.084   .     S
C594   C596    1.383   .     A
C595   H622    1.084   .     S
C595   C597    1.383   .     A
C596   C598    1.412   .     A
C596   C602    1.401   .     A
C597   C604    1.401   .     A
C597   C599    1.412   .     A
C598   C600    1.416   .     A
C598   C77     1.395   1_556 S
C599   C601    1.416   .     A
C600   C605    1.407   .     A
C601   C603    1.407   .     A
C602   F614    1.359   .     S
C602   C81     1.387   1_556 S
C603   F616    1.358   .     S
C604   F615    1.359   .     S
C605   F617    1.358   .     S
C605   C82     1.387   1_556 S
C606   H623    1.084   .     S
C607   C610    1.397   .     A
C607   H624    1.084   .     S
C607   C667    1.370   .     S
C608   C610    1.397   .     A
C608   H625    1.084   .     S
C608   C664    1.370   .     S
C609   H626    1.084   .     S
N627   Zn637   2.005   .     S
N628   Zn638   2.005   .     S
O629   Zn637   2.001   .     S
O630   Zn638   2.001   .     S
O631   Zn637   2.001   .     S
O632   Zn638   2.001   .     S
O633   Zn637   2.020   .     S
O634   Zn638   2.020   .     S
O635   Zn637   2.027   .     S
O636   Zn638   2.027   .     S
C639   C640    1.420   .     S
C639   O690    1.281   .     A
C639   O687    1.281   .     A
C640   C664    1.397   .     A
C640   C667    1.397   .     A
C641   N686    1.366   .     A
C641   F676    1.355   .     S
C641   C992    1.415   1_545 S
C642   F677    1.355   .     S
C642   N685    1.366   .     A
C642   C817    1.415   .     S
C643   N686    1.366   .     A
C643   F678    1.355   .     S
C643   C990    1.415   1_545 S
C644   F670    1.355   .     S
C644   N685    1.366   .     A
C644   C815    1.415   .     S
C645   O694    1.285   .     A
C645   O691    1.289   .     A
C645   C651    1.443   .     S
C646   O693    1.285   .     A
C646   C649    1.443   .     S
C646   O692    1.289   .     A
C647   C658    1.392   .     A
C647   F669    1.360   .     S
C647   C649    1.403   .     A
C648   C651    1.403   .     A
C648   F671    1.360   .     S
C648   C659    1.392   .     A
C649   C652    1.395   .     A
C650   O689    1.281   .     A
C650   C668    1.420   .     S
C650   O688    1.281   .     A
C651   C653    1.395   .     A
C652   H679    1.084   .     S
C652   C654    1.383   .     A
C653   H680    1.084   .     S
C653   C655    1.383   .     A
C654   C656    1.412   .     A
C654   C660    1.401   .     A
C655   C662    1.401   .     A
C655   C657    1.412   .     A
C656   C658    1.416   .     A
C656   C135    1.395   1_556 S
C657   C659    1.416   .     A
C658   C663    1.407   .     A
C659   C661    1.407   .     A
C660   F672    1.359   .     S
C660   C139    1.387   1_556 S
C661   F674    1.358   .     S
C662   F673    1.359   .     S
C663   F675    1.358   .     S
C663   C140    1.387   1_556 S
C664   H681    1.084   .     S
C665   C668    1.397   .     A
C665   H682    1.084   .     S
C665   C551    1.370   1_655 S
C666   C668    1.397   .     A
C666   H683    1.084   .     S
C666   C548    1.370   1_655 S
C667   H684    1.084   .     S
N685   Zn695   2.005   .     S
N686   Zn696   2.005   .     S
O687   Zn695   2.001   .     S
O688   Zn696   2.001   .     S
O689   Zn695   2.001   .     S
O690   Zn696   2.001   .     S
O691   Zn695   2.020   .     S
O692   Zn696   2.020   .     S
O693   Zn695   2.027   .     S
O694   Zn696   2.027   .     S
C697   C698    1.420   .     S
C697   O748    1.281   .     A
C697   O745    1.281   .     A
C698   C722    1.397   .     A
C698   C725    1.397   .     A
C699   N744    1.366   .     A
C699   F734    1.355   .     S
C700   F735    1.355   .     S
C700   N743    1.366   .     A
C700   C875    1.415   .     S
C701   N744    1.366   .     A
C701   F736    1.355   .     S
C702   F728    1.355   .     S
C702   N743    1.366   .     A
C702   C873    1.415   .     S
C703   O752    1.285   .     A
C703   O749    1.289   .     A
C703   C709    1.443   .     S
C704   O751    1.285   .     A
C704   C707    1.443   .     S
C704   O750    1.289   .     A
C705   C716    1.392   .     A
C705   F727    1.360   .     S
C705   C707    1.403   .     A
C706   C709    1.403   .     A
C706   F729    1.360   .     S
C706   C717    1.392   .     A
C707   C710    1.395   .     A
C708   O747    1.281   .     A
C708   C726    1.420   .     S
C708   O746    1.281   .     A
C709   C711    1.395   .     A
C710   H737    1.084   .     S
C710   C712    1.383   .     A
C711   H738    1.084   .     S
C711   C713    1.383   .     A
C712   C714    1.412   .     A
C712   C718    1.401   .     A
C713   C720    1.401   .     A
C713   C715    1.412   .     A
C714   C716    1.416   .     A
C714   C193    1.395   1_556 S
C715   C717    1.416   .     A
C716   C721    1.407   .     A
C717   C719    1.407   .     A
C718   F730    1.359   .     S
C718   C197    1.387   1_556 S
C719   F732    1.358   .     S
C720   F731    1.359   .     S
C721   F733    1.358   .     S
C721   C198    1.387   1_556 S
C722   H739    1.084   .     S
C722   C840    1.370   1_455 S
C723   C726    1.397   .     A
C723   H740    1.084   .     S
C723   C783    1.370   .     S
C724   C726    1.397   .     A
C724   H741    1.084   .     S
C724   C780    1.370   .     S
C725   H742    1.084   .     S
C725   C839    1.370   1_455 S
N743   Zn753   2.005   .     S
N744   Zn754   2.005   .     S
O745   Zn753   2.001   .     S
O746   Zn754   2.001   .     S
O747   Zn753   2.001   .     S
O748   Zn754   2.001   .     S
O749   Zn753   2.020   .     S
O750   Zn754   2.020   .     S
O751   Zn753   2.027   .     S
O752   Zn754   2.027   .     S
C755   C756    1.420   .     S
C755   O806    1.281   .     A
C755   O803    1.281   .     A
C756   C780    1.397   .     A
C756   C783    1.397   .     A
C757   N802    1.366   .     A
C757   F792    1.355   .     S
C758   F793    1.355   .     S
C758   N801    1.366   .     A
C758   C933    1.415   .     S
C759   N802    1.366   .     A
C759   F794    1.355   .     S
C760   F786    1.355   .     S
C760   N801    1.366   .     A
C760   C931    1.415   .     S
C761   O810    1.285   .     A
C761   O807    1.289   .     A
C761   C767    1.443   .     S
C762   O809    1.285   .     A
C762   C765    1.443   .     S
C762   O808    1.289   .     A
C763   C774    1.392   .     A
C763   F785    1.360   .     S
C763   C765    1.403   .     A
C764   C767    1.403   .     A
C764   F787    1.360   .     S
C764   C775    1.392   .     A
C765   C768    1.395   .     A
C766   O805    1.281   .     A
C766   C784    1.420   .     S
C766   O804    1.281   .     A
C767   C769    1.395   .     A
C768   H795    1.084   .     S
C768   C770    1.383   .     A
C769   H796    1.084   .     S
C769   C771    1.383   .     A
C770   C772    1.412   .     A
C770   C776    1.401   .     A
C771   C778    1.401   .     A
C771   C773    1.412   .     A
C772   C774    1.416   .     A
C772   C251    1.395   1_556 S
C773   C775    1.416   .     A
C774   C779    1.407   .     A
C775   C777    1.407   .     A
C776   F788    1.359   .     S
C776   C255    1.387   1_556 S
C777   F790    1.358   .     S
C778   F789    1.359   .     S
C779   F791    1.358   .     S
C779   C256    1.387   1_556 S
C780   H797    1.084   .     S
C781   C784    1.397   .     A
C781   H798    1.084   .     S
C781   C841    1.370   .     S
C782   C784    1.397   .     A
C782   H799    1.084   .     S
C782   C838    1.370   .     S
C783   H800    1.084   .     S
N801   Zn811   2.005   .     S
N802   Zn812   2.005   .     S
O803   Zn811   2.001   .     S
O804   Zn812   2.001   .     S
O805   Zn811   2.001   .     S
O806   Zn812   2.001   .     S
O807   Zn811   2.020   .     S
O808   Zn812   2.020   .     S
O809   Zn811   2.027   .     S
O810   Zn812   2.027   .     S
C813   C814    1.420   .     S
C813   O864    1.281   .     A
C813   O861    1.281   .     A
C814   C838    1.397   .     A
C814   C841    1.397   .     A
C815   N860    1.366   .     A
C815   F850    1.355   .     S
C816   F851    1.355   .     S
C816   N859    1.366   .     A
C816   C991    1.415   .     S
C817   N860    1.366   .     A
C817   F852    1.355   .     S
C818   F844    1.355   .     S
C818   N859    1.366   .     A
C818   C989    1.415   .     S
C819   O868    1.285   .     A
C819   O865    1.289   .     A
C819   C825    1.443   .     S
C820   O867    1.285   .     A
C820   C823    1.443   .     S
C820   O866    1.289   .     A
C821   C832    1.392   .     A
C821   F843    1.360   .     S
C821   C823    1.403   .     A
C822   C825    1.403   .     A
C822   F845    1.360   .     S
C822   C833    1.392   .     A
C823   C826    1.395   .     A
C824   O863    1.281   .     A
C824   C842    1.420   .     S
C824   O862    1.281   .     A
C825   C827    1.395   .     A
C826   H853    1.084   .     S
C826   C828    1.383   .     A
C827   H854    1.084   .     S
C827   C829    1.383   .     A
C828   C830    1.412   .     A
C828   C834    1.401   .     A
C829   C836    1.401   .     A
C829   C831    1.412   .     A
C830   C832    1.416   .     A
C830   C309    1.395   1_556 S
C831   C833    1.416   .     A
C832   C837    1.407   .     A
C833   C835    1.407   .     A
C834   F846    1.359   .     S
C834   C313    1.387   1_556 S
C835   F848    1.358   .     S
C836   F847    1.359   .     S
C837   F849    1.358   .     S
C837   C314    1.387   1_556 S
C838   H855    1.084   .     S
C839   C842    1.397   .     A
C839   H856    1.084   .     S
C839   C725    1.370   1_655 S
C840   C842    1.397   .     A
C840   H857    1.084   .     S
C840   C722    1.370   1_655 S
C841   H858    1.084   .     S
N859   Zn869   2.005   .     S
N860   Zn870   2.005   .     S
O861   Zn869   2.001   .     S
O862   Zn870   2.001   .     S
O863   Zn869   2.001   .     S
O864   Zn870   2.001   .     S
O865   Zn869   2.020   .     S
O866   Zn870   2.020   .     S
O867   Zn869   2.027   .     S
O868   Zn870   2.027   .     S
C871   C872    1.420   .     S
C871   O922    1.281   .     A
C871   O919    1.281   .     A
C872   C896    1.397   .     A
C872   C899    1.397   .     A
C873   N918    1.366   .     A
C873   F908    1.355   .     S
C874   F909    1.355   .     S
C874   N917    1.366   .     A
C874   C527    1.415   1_565 S
C875   N918    1.366   .     A
C875   F910    1.355   .     S
C876   F902    1.355   .     S
C876   N917    1.366   .     A
C876   C525    1.415   1_565 S
C877   O926    1.285   .     A
C877   O923    1.289   .     A
C877   C883    1.443   .     S
C878   O925    1.285   .     A
C878   C881    1.443   .     S
C878   O924    1.289   .     A
C879   C890    1.392   .     A
C879   F901    1.360   .     S
C879   C881    1.403   .     A
C880   C883    1.403   .     A
C880   F903    1.360   .     S
C880   C891    1.392   .     A
C881   C884    1.395   .     A
C882   O921    1.281   .     A
C882   C900    1.420   .     S
C882   O920    1.281   .     A
C883   C885    1.395   .     A
C884   H911    1.084   .     S
C884   C886    1.383   .     A
C885   H912    1.084   .     S
C885   C887    1.383   .     A
C886   C888    1.412   .     A
C886   C892    1.401   .     A
C887   C894    1.401   .     A
C887   C889    1.412   .     A
C888   C890    1.416   .     A
C888   C367    1.395   1_556 S
C889   C891    1.416   .     A
C890   C895    1.407   .     A
C891   C893    1.407   .     A
C892   F904    1.359   .     S
C892   C371    1.387   1_556 S
C893   F906    1.358   .     S
C894   F905    1.359   .     S
C895   F907    1.358   .     S
C895   C372    1.387   1_556 S
C896   H913    1.084   .     S
C896   C1014   1.370   1_455 S
C897   C900    1.397   .     A
C897   H914    1.084   .     S
C897   C957    1.370   .     S
C898   C900    1.397   .     A
C898   H915    1.084   .     S
C898   C954    1.370   .     S
C899   H916    1.084   .     S
C899   C1013   1.370   1_455 S
N917   Zn927   2.005   .     S
N918   Zn928   2.005   .     S
O919   Zn927   2.001   .     S
O920   Zn928   2.001   .     S
O921   Zn927   2.001   .     S
O922   Zn928   2.001   .     S
O923   Zn927   2.020   .     S
O924   Zn928   2.020   .     S
O925   Zn927   2.027   .     S
O926   Zn928   2.027   .     S
C929   C930    1.420   .     S
C929   O980    1.281   .     A
C929   O977    1.281   .     A
C930   C954    1.397   .     A
C930   C957    1.397   .     A
C931   N976    1.366   .     A
C931   F966    1.355   .     S
C932   F967    1.355   .     S
C932   N975    1.366   .     A
C932   C585    1.415   1_565 S
C933   N976    1.366   .     A
C933   F968    1.355   .     S
C934   F960    1.355   .     S
C934   N975    1.366   .     A
C934   C583    1.415   1_565 S
C935   O984    1.285   .     A
C935   O981    1.289   .     A
C935   C941    1.443   .     S
C936   O983    1.285   .     A
C936   C939    1.443   .     S
C936   O982    1.289   .     A
C937   C948    1.392   .     A
C937   F959    1.360   .     S
C937   C939    1.403   .     A
C938   C941    1.403   .     A
C938   F961    1.360   .     S
C938   C949    1.392   .     A
C939   C942    1.395   .     A
C940   O979    1.281   .     A
C940   C958    1.420   .     S
C940   O978    1.281   .     A
C941   C943    1.395   .     A
C942   H969    1.084   .     S
C942   C944    1.383   .     A
C943   H970    1.084   .     S
C943   C945    1.383   .     A
C944   C946    1.412   .     A
C944   C950    1.401   .     A
C945   C952    1.401   .     A
C945   C947    1.412   .     A
C946   C948    1.416   .     A
C946   C425    1.395   1_556 S
C947   C949    1.416   .     A
C948   C953    1.407   .     A
C949   C951    1.407   .     A
C950   F962    1.359   .     S
C950   C429    1.387   1_556 S
C951   F964    1.358   .     S
C952   F963    1.359   .     S
C953   F965    1.358   .     S
C953   C430    1.387   1_556 S
C954   H971    1.084   .     S
C955   C958    1.397   .     A
C955   H972    1.084   .     S
C955   C1015   1.370   .     S
C956   C958    1.397   .     A
C956   H973    1.084   .     S
C956   C1012   1.370   .     S
C957   H974    1.084   .     S
N975   Zn985   2.005   .     S
N976   Zn986   2.005   .     S
O977   Zn985   2.001   .     S
O978   Zn986   2.001   .     S
O979   Zn985   2.001   .     S
O980   Zn986   2.001   .     S
O981   Zn985   2.020   .     S
O982   Zn986   2.020   .     S
O983   Zn985   2.027   .     S
O984   Zn986   2.027   .     S
C987   C988    1.420   .     S
C987   O1038   1.281   .     A
C987   O1035   1.281   .     A
C988   C1012   1.397   .     A
C988   C1015   1.397   .     A
C989   N1034   1.366   .     A
C989   F1024   1.355   .     S
C990   F1025   1.355   .     S
C990   N1033   1.366   .     A
C990   C643    1.415   1_565 S
C991   N1034   1.366   .     A
C991   F1026   1.355   .     S
C992   F1018   1.355   .     S
C992   N1033   1.366   .     A
C992   C641    1.415   1_565 S
C993   O1042   1.285   .     A
C993   O1039   1.289   .     A
C993   C999    1.443   .     S
C994   O1041   1.285   .     A
C994   C997    1.443   .     S
C994   O1040   1.289   .     A
C995   C1006   1.392   .     A
C995   F1017   1.360   .     S
C995   C997    1.403   .     A
C996   C999    1.403   .     A
C996   F1019   1.360   .     S
C996   C1007   1.392   .     A
C997   C1000   1.395   .     A
C998   O1037   1.281   .     A
C998   C1016   1.420   .     S
C998   O1036   1.281   .     A
C999   C1001   1.395   .     A
C1000  H1027   1.084   .     S
C1000  C1002   1.383   .     A
C1001  H1028   1.084   .     S
C1001  C1003   1.383   .     A
C1002  C1004   1.412   .     A
C1002  C1008   1.401   .     A
C1003  C1010   1.401   .     A
C1003  C1005   1.412   .     A
C1004  C1006   1.416   .     A
C1004  C483    1.395   1_556 S
C1005  C1007   1.416   .     A
C1006  C1011   1.407   .     A
C1007  C1009   1.407   .     A
C1008  F1020   1.359   .     S
C1008  C487    1.387   1_556 S
C1009  F1022   1.358   .     S
C1010  F1021   1.359   .     S
C1011  F1023   1.358   .     S
C1011  C488    1.387   1_556 S
C1012  H1029   1.084   .     S
C1013  C1016   1.397   .     A
C1013  H1030   1.084   .     S
C1013  C899    1.370   1_655 S
C1014  C1016   1.397   .     A
C1014  H1031   1.084   .     S
C1014  C896    1.370   1_655 S
C1015  H1032   1.084   .     S
N1033  Zn1043  2.005   .     S
N1034  Zn1044  2.005   .     S
O1035  Zn1043  2.001   .     S
O1036  Zn1044  2.001   .     S
O1037  Zn1043  2.001   .     S
O1038  Zn1044  2.001   .     S
O1039  Zn1043  2.020   .     S
O1040  Zn1044  2.020   .     S
O1041  Zn1043  2.027   .     S
O1042  Zn1044  2.027   .     S
