data_str_m2_o1_o17_pcu_sym.144
_audit_creation_date              2020-01-03
_audit_creation_method            'Materials Studio'
_symmetry_space_group_name_H-M    'P1'
_symmetry_Int_Tables_number       1
_symmetry_cell_setting            triclinic
loop_
_symmetry_equiv_pos_as_xyz
  x,y,z
_cell_length_a                    32.4927
_cell_length_b                    28.8466
_cell_length_c                    30.0182
_cell_angle_alpha                 90.5282
_cell_angle_beta                  91.4940
_cell_angle_gamma                 89.9329
loop_
_atom_site_label
_atom_site_type_symbol
_atom_site_fract_x
_atom_site_fract_y
_atom_site_fract_z
_atom_site_U_iso_or_equiv
_atom_site_adp_type
_atom_site_occupancy
O1     O     0.10655   0.20625   0.25000   0.00000  Uiso   1.00
O2     O     0.22679   0.12709   0.25001   0.00000  Uiso   1.00
O3     O     0.22679   0.20625   0.25001   0.00000  Uiso   1.00
O4     O     0.10655   0.12709   0.25000   0.00000  Uiso   1.00
C5     C     0.08746   0.16668   0.25021   0.00000  Uiso   1.00
C6     C     0.24588   0.16665   0.24979   0.00000  Uiso   1.00
O7     O     0.16666   0.20627   0.18513   0.00000  Uiso   1.00
O8     O     0.16668   0.12707   0.31487   0.00000  Uiso   1.00
O9     O     0.16668   0.20627   0.31487   0.00000  Uiso   1.00
O10    O     0.16666   0.12707   0.18513   0.00000  Uiso   1.00
C11    C     0.16642   0.16652   0.16456   0.00000  Uiso   1.00
C12    C     0.16692   0.16681   0.33544   0.00000  Uiso   1.00
Cu13   Cu    0.16667   0.21355   0.25000   0.00000  Uiso   1.00
Cu14   Cu    0.16667   0.11978   0.25000   0.00000  Uiso   1.00
C15    C     0.19702   0.19112   0.40769   0.00000  Uiso   1.00
C16    C     0.13632   0.14222   0.09232   0.00000  Uiso   1.00
C17    C     0.16671   0.16702   0.38366   0.00000  Uiso   1.00
C18    C     0.16662   0.16631   0.11634   0.00000  Uiso   1.00
C19    C     0.13646   0.14249   0.40530   0.00000  Uiso   1.00
C20    C     0.19687   0.19085   0.09471   0.00000  Uiso   1.00
C21    C     0.13504   0.14285   0.45198   0.00000  Uiso   1.00
C22    C     0.19829   0.19049   0.04802   0.00000  Uiso   1.00
C23    C     0.16638   0.16702   0.47662   0.00000  Uiso   1.00
C24    C     0.16696   0.16632   0.02338   0.00000  Uiso   1.00
C25    C     0.19742   0.19152   0.45430   0.00000  Uiso   1.00
C26    C     0.13591   0.14182   0.04570   0.00000  Uiso   1.00
C27    C     0.10373   0.11889   0.47438   0.00000  Uiso   1.00
C28    C     0.22960   0.21446   0.02562   0.00000  Uiso   1.00
C29    C     0.10444   0.11839   0.02134   0.00000  Uiso   1.00
C30    C     0.22889   0.21495   0.47866   0.00000  Uiso   1.00
H31    H     0.22088   0.20828   0.38953   0.00000  Uiso   1.00
H32    H     0.11245   0.12505   0.11048   0.00000  Uiso   1.00
H33    H     0.11428   0.12335   0.38495   0.00000  Uiso   1.00
H34    H     0.21905   0.20999   0.11505   0.00000  Uiso   1.00
C35    C     0.02131   0.12459   0.24927   0.00000  Uiso   1.00
C36    C     0.31202   0.20875   0.25073   0.00000  Uiso   1.00
C37    C     0.31207   0.12458   0.24852   0.00000  Uiso   1.00
C38    C     0.02127   0.20875   0.25148   0.00000  Uiso   1.00
H39    H     0.03724   0.09163   0.24897   0.00000  Uiso   1.00
H40    H     0.29609   0.24170   0.25103   0.00000  Uiso   1.00
H41    H     0.29616   0.09165   0.24701   0.00000  Uiso   1.00
H42    H     0.03717   0.24168   0.25299   0.00000  Uiso   1.00
C43    C     0.29054   0.16665   0.24957   0.00000  Uiso   1.00
C44    C     0.04279   0.16668   0.25043   0.00000  Uiso   1.00
C45    C     0.14534   0.02436   0.21779   0.00000  Uiso   1.00
C46    C     0.18800   0.30897   0.28221   0.00000  Uiso   1.00
C47    C     0.18818   0.02499   0.28210   0.00000  Uiso   1.00
C48    C     0.14515   0.30834   0.21790   0.00000  Uiso   1.00
N49    N     0.16667   0.28402   0.25000   0.00000  Uiso   1.00
N50    N     0.16667   0.04931   0.25000   0.00000  Uiso   1.00
C51    C     0.06985   0.09477   0.44909   0.00000  Uiso   1.00
H52    H     0.05642   0.10996   0.41917   0.00000  Uiso   1.00
O53    O     0.05675   0.05745   0.46131   0.00000  Uiso   1.00
C54    C     0.26347   0.23859   0.05091   0.00000  Uiso   1.00
H55    H     0.27691   0.22340   0.08083   0.00000  Uiso   1.00
O56    O     0.27655   0.27593   0.03870   0.00000  Uiso   1.00
N57    N     0.07209   0.09563   0.04434   0.00000  Uiso   1.00
O58    O     0.03491   0.11243   0.04277   0.00000  Uiso   1.00
O59    O     0.07932   0.05677   0.06476   0.00000  Uiso   1.00
N60    N     0.26124   0.23771   0.45566   0.00000  Uiso   1.00
O61    O     0.25401   0.27655   0.43521   0.00000  Uiso   1.00
O62    O     0.29843   0.22095   0.45729   0.00000  Uiso   1.00
N63    N     0.12373   0.04769   0.18260   0.00000  Uiso   1.00
O64    O     0.13869   0.04631   0.14284   0.00000  Uiso   1.00
O65    O     0.08513   0.05811   0.18706   0.00000  Uiso   1.00
N66    N     0.20960   0.28564   0.31740   0.00000  Uiso   1.00
O67    O     0.19464   0.28702   0.35716   0.00000  Uiso   1.00
O68    O     0.24820   0.27522   0.31294   0.00000  Uiso   1.00
N69    N     0.21188   0.04902   0.31577   0.00000  Uiso   1.00
O70    O     0.25075   0.05642   0.30955   0.00000  Uiso   1.00
O71    O     0.19829   0.05128   0.35612   0.00000  Uiso   1.00
N72    N     0.12145   0.28431   0.18423   0.00000  Uiso   1.00
O73    O     0.08258   0.27692   0.19046   0.00000  Uiso   1.00
O74    O     0.13504   0.28205   0.14388   0.00000  Uiso   1.00
O75    O     0.43988   0.20625   0.25000   0.00000  Uiso   1.00
O76    O     0.56012   0.12709   0.25001   0.00000  Uiso   1.00
O77    O     0.56012   0.20625   0.25001   0.00000  Uiso   1.00
O78    O     0.43988   0.12709   0.25000   0.00000  Uiso   1.00
C79    C     0.42079   0.16668   0.25021   0.00000  Uiso   1.00
C80    C     0.57921   0.16665   0.24979   0.00000  Uiso   1.00
O81    O     0.49999   0.20627   0.18513   0.00000  Uiso   1.00
O82    O     0.50001   0.12707   0.31487   0.00000  Uiso   1.00
O83    O     0.50001   0.20627   0.31487   0.00000  Uiso   1.00
O84    O     0.49999   0.12707   0.18513   0.00000  Uiso   1.00
C85    C     0.49975   0.16652   0.16456   0.00000  Uiso   1.00
C86    C     0.50025   0.16681   0.33544   0.00000  Uiso   1.00
Cu87   Cu    0.50000   0.21355   0.25000   0.00000  Uiso   1.00
Cu88   Cu    0.50000   0.11978   0.25000   0.00000  Uiso   1.00
C89    C     0.53035   0.19112   0.40769   0.00000  Uiso   1.00
C90    C     0.46965   0.14222   0.09232   0.00000  Uiso   1.00
C91    C     0.50004   0.16702   0.38366   0.00000  Uiso   1.00
C92    C     0.49996   0.16631   0.11634   0.00000  Uiso   1.00
C93    C     0.46980   0.14249   0.40530   0.00000  Uiso   1.00
C94    C     0.53020   0.19085   0.09471   0.00000  Uiso   1.00
C95    C     0.46838   0.14285   0.45198   0.00000  Uiso   1.00
C96    C     0.53162   0.19049   0.04802   0.00000  Uiso   1.00
C97    C     0.49971   0.16702   0.47662   0.00000  Uiso   1.00
C98    C     0.50029   0.16632   0.02338   0.00000  Uiso   1.00
C99    C     0.53076   0.19152   0.45430   0.00000  Uiso   1.00
C100   C     0.46924   0.14182   0.04570   0.00000  Uiso   1.00
C101   C     0.43707   0.11889   0.47438   0.00000  Uiso   1.00
C102   C     0.56293   0.21446   0.02562   0.00000  Uiso   1.00
C103   C     0.43778   0.11839   0.02134   0.00000  Uiso   1.00
C104   C     0.56222   0.21495   0.47866   0.00000  Uiso   1.00
H105   H     0.55422   0.20828   0.38953   0.00000  Uiso   1.00
H106   H     0.44579   0.12505   0.11048   0.00000  Uiso   1.00
H107   H     0.44762   0.12335   0.38495   0.00000  Uiso   1.00
H108   H     0.55238   0.20999   0.11505   0.00000  Uiso   1.00
C109   C     0.35464   0.12459   0.24927   0.00000  Uiso   1.00
C110   C     0.64536   0.20875   0.25073   0.00000  Uiso   1.00
C111   C     0.64540   0.12458   0.24852   0.00000  Uiso   1.00
C112   C     0.35460   0.20875   0.25148   0.00000  Uiso   1.00
H113   H     0.37057   0.09163   0.24897   0.00000  Uiso   1.00
H114   H     0.62943   0.24170   0.25103   0.00000  Uiso   1.00
H115   H     0.62950   0.09165   0.24701   0.00000  Uiso   1.00
H116   H     0.37050   0.24168   0.25299   0.00000  Uiso   1.00
C117   C     0.62387   0.16665   0.24957   0.00000  Uiso   1.00
C118   C     0.37613   0.16668   0.25043   0.00000  Uiso   1.00
C119   C     0.47867   0.02436   0.21779   0.00000  Uiso   1.00
C120   C     0.52133   0.30897   0.28221   0.00000  Uiso   1.00
C121   C     0.52151   0.02499   0.28210   0.00000  Uiso   1.00
C122   C     0.47849   0.30834   0.21790   0.00000  Uiso   1.00
N123   N     0.50000   0.28402   0.25000   0.00000  Uiso   1.00
N124   N     0.50000   0.04931   0.25000   0.00000  Uiso   1.00
C125   C     0.40318   0.09477   0.44909   0.00000  Uiso   1.00
H126   H     0.38975   0.10996   0.41917   0.00000  Uiso   1.00
O127   O     0.39008   0.05745   0.46131   0.00000  Uiso   1.00
C128   C     0.59680   0.23859   0.05091   0.00000  Uiso   1.00
H129   H     0.61024   0.22340   0.08083   0.00000  Uiso   1.00
O130   O     0.60988   0.27593   0.03870   0.00000  Uiso   1.00
N131   N     0.40543   0.09563   0.04434   0.00000  Uiso   1.00
O132   O     0.36825   0.11243   0.04277   0.00000  Uiso   1.00
O133   O     0.41265   0.05677   0.06476   0.00000  Uiso   1.00
N134   N     0.59458   0.23771   0.45566   0.00000  Uiso   1.00
O135   O     0.58734   0.27655   0.43521   0.00000  Uiso   1.00
O136   O     0.63177   0.22095   0.45729   0.00000  Uiso   1.00
N137   N     0.45706   0.04769   0.18260   0.00000  Uiso   1.00
O138   O     0.47202   0.04631   0.14284   0.00000  Uiso   1.00
O139   O     0.41846   0.05811   0.18706   0.00000  Uiso   1.00
N140   N     0.54293   0.28564   0.31740   0.00000  Uiso   1.00
O141   O     0.52798   0.28702   0.35716   0.00000  Uiso   1.00
O142   O     0.58154   0.27522   0.31294   0.00000  Uiso   1.00
N143   N     0.54522   0.04902   0.31577   0.00000  Uiso   1.00
O144   O     0.58408   0.05642   0.30955   0.00000  Uiso   1.00
O145   O     0.53162   0.05128   0.35612   0.00000  Uiso   1.00
N146   N     0.45478   0.28431   0.18423   0.00000  Uiso   1.00
O147   O     0.41591   0.27692   0.19046   0.00000  Uiso   1.00
O148   O     0.46837   0.28205   0.14388   0.00000  Uiso   1.00
O149   O     0.77321   0.20625   0.25000   0.00000  Uiso   1.00
O150   O     0.89345   0.12709   0.25001   0.00000  Uiso   1.00
O151   O     0.89345   0.20625   0.25001   0.00000  Uiso   1.00
O152   O     0.77321   0.12709   0.25000   0.00000  Uiso   1.00
C153   C     0.75412   0.16668   0.25021   0.00000  Uiso   1.00
C154   C     0.91254   0.16665   0.24979   0.00000  Uiso   1.00
O155   O     0.83332   0.20627   0.18513   0.00000  Uiso   1.00
O156   O     0.83334   0.12707   0.31487   0.00000  Uiso   1.00
O157   O     0.83334   0.20627   0.31487   0.00000  Uiso   1.00
O158   O     0.83332   0.12707   0.18513   0.00000  Uiso   1.00
C159   C     0.83308   0.16652   0.16456   0.00000  Uiso   1.00
C160   C     0.83358   0.16681   0.33544   0.00000  Uiso   1.00
Cu161  Cu    0.83333   0.21355   0.25000   0.00000  Uiso   1.00
Cu162  Cu    0.83333   0.11978   0.25000   0.00000  Uiso   1.00
C163   C     0.86369   0.19112   0.40769   0.00000  Uiso   1.00
C164   C     0.80298   0.14222   0.09232   0.00000  Uiso   1.00
C165   C     0.83338   0.16702   0.38366   0.00000  Uiso   1.00
C166   C     0.83329   0.16631   0.11634   0.00000  Uiso   1.00
C167   C     0.80313   0.14249   0.40530   0.00000  Uiso   1.00
C168   C     0.86354   0.19085   0.09471   0.00000  Uiso   1.00
C169   C     0.80171   0.14285   0.45198   0.00000  Uiso   1.00
C170   C     0.86496   0.19049   0.04802   0.00000  Uiso   1.00
C171   C     0.83305   0.16702   0.47662   0.00000  Uiso   1.00
C172   C     0.83362   0.16632   0.02338   0.00000  Uiso   1.00
C173   C     0.86409   0.19152   0.45430   0.00000  Uiso   1.00
C174   C     0.80258   0.14182   0.04570   0.00000  Uiso   1.00
C175   C     0.77040   0.11889   0.47438   0.00000  Uiso   1.00
C176   C     0.89626   0.21446   0.02562   0.00000  Uiso   1.00
C177   C     0.77111   0.11839   0.02134   0.00000  Uiso   1.00
C178   C     0.89556   0.21495   0.47866   0.00000  Uiso   1.00
H179   H     0.88755   0.20828   0.38953   0.00000  Uiso   1.00
H180   H     0.77912   0.12505   0.11048   0.00000  Uiso   1.00
H181   H     0.78095   0.12335   0.38495   0.00000  Uiso   1.00
H182   H     0.88571   0.20999   0.11505   0.00000  Uiso   1.00
C183   C     0.68797   0.12459   0.24927   0.00000  Uiso   1.00
C184   C     0.97869   0.20875   0.25073   0.00000  Uiso   1.00
C185   C     0.97873   0.12458   0.24852   0.00000  Uiso   1.00
C186   C     0.68793   0.20875   0.25148   0.00000  Uiso   1.00
H187   H     0.70391   0.09163   0.24897   0.00000  Uiso   1.00
H188   H     0.96276   0.24170   0.25103   0.00000  Uiso   1.00
H189   H     0.96283   0.09165   0.24701   0.00000  Uiso   1.00
H190   H     0.70384   0.24168   0.25299   0.00000  Uiso   1.00
C191   C     0.95721   0.16665   0.24957   0.00000  Uiso   1.00
C192   C     0.70946   0.16668   0.25043   0.00000  Uiso   1.00
C193   C     0.81200   0.02436   0.21779   0.00000  Uiso   1.00
C194   C     0.85466   0.30897   0.28221   0.00000  Uiso   1.00
C195   C     0.85484   0.02499   0.28210   0.00000  Uiso   1.00
C196   C     0.81182   0.30834   0.21790   0.00000  Uiso   1.00
N197   N     0.83333   0.28402   0.25000   0.00000  Uiso   1.00
N198   N     0.83333   0.04931   0.25000   0.00000  Uiso   1.00
C199   C     0.73652   0.09477   0.44909   0.00000  Uiso   1.00
H200   H     0.72309   0.10996   0.41917   0.00000  Uiso   1.00
O201   O     0.72342   0.05745   0.46131   0.00000  Uiso   1.00
C202   C     0.93013   0.23859   0.05091   0.00000  Uiso   1.00
H203   H     0.94357   0.22340   0.08083   0.00000  Uiso   1.00
O204   O     0.94321   0.27593   0.03870   0.00000  Uiso   1.00
N205   N     0.73876   0.09563   0.04434   0.00000  Uiso   1.00
O206   O     0.70158   0.11243   0.04277   0.00000  Uiso   1.00
O207   O     0.74598   0.05677   0.06476   0.00000  Uiso   1.00
N208   N     0.92791   0.23771   0.45566   0.00000  Uiso   1.00
O209   O     0.92067   0.27655   0.43521   0.00000  Uiso   1.00
O210   O     0.96510   0.22095   0.45729   0.00000  Uiso   1.00
N211   N     0.79040   0.04769   0.18260   0.00000  Uiso   1.00
O212   O     0.80535   0.04631   0.14284   0.00000  Uiso   1.00
O213   O     0.75180   0.05811   0.18706   0.00000  Uiso   1.00
N214   N     0.87627   0.28564   0.31740   0.00000  Uiso   1.00
O215   O     0.86131   0.28702   0.35716   0.00000  Uiso   1.00
O216   O     0.91487   0.27522   0.31294   0.00000  Uiso   1.00
N217   N     0.87855   0.04902   0.31577   0.00000  Uiso   1.00
O218   O     0.91742   0.05642   0.30955   0.00000  Uiso   1.00
O219   O     0.86496   0.05128   0.35612   0.00000  Uiso   1.00
N220   N     0.78812   0.28431   0.18423   0.00000  Uiso   1.00
O221   O     0.74925   0.27692   0.19046   0.00000  Uiso   1.00
O222   O     0.80171   0.28205   0.14388   0.00000  Uiso   1.00
O223   O     0.10655   0.53958   0.25000   0.00000  Uiso   1.00
O224   O     0.22679   0.46042   0.25001   0.00000  Uiso   1.00
O225   O     0.22679   0.53958   0.25001   0.00000  Uiso   1.00
O226   O     0.10655   0.46042   0.25000   0.00000  Uiso   1.00
C227   C     0.08746   0.50001   0.25021   0.00000  Uiso   1.00
C228   C     0.24588   0.49998   0.24979   0.00000  Uiso   1.00
O229   O     0.16666   0.53960   0.18513   0.00000  Uiso   1.00
O230   O     0.16668   0.46040   0.31487   0.00000  Uiso   1.00
O231   O     0.16668   0.53960   0.31487   0.00000  Uiso   1.00
O232   O     0.16666   0.46040   0.18513   0.00000  Uiso   1.00
C233   C     0.16642   0.49985   0.16456   0.00000  Uiso   1.00
C234   C     0.16692   0.50015   0.33544   0.00000  Uiso   1.00
Cu235  Cu    0.16667   0.54689   0.25000   0.00000  Uiso   1.00
Cu236  Cu    0.16667   0.45311   0.25000   0.00000  Uiso   1.00
C237   C     0.19702   0.52445   0.40769   0.00000  Uiso   1.00
C238   C     0.13632   0.47555   0.09232   0.00000  Uiso   1.00
C239   C     0.16671   0.50036   0.38366   0.00000  Uiso   1.00
C240   C     0.16662   0.49964   0.11634   0.00000  Uiso   1.00
C241   C     0.13646   0.47582   0.40530   0.00000  Uiso   1.00
C242   C     0.19687   0.52418   0.09471   0.00000  Uiso   1.00
C243   C     0.13504   0.47618   0.45198   0.00000  Uiso   1.00
C244   C     0.19829   0.52382   0.04802   0.00000  Uiso   1.00
C245   C     0.16638   0.50035   0.47662   0.00000  Uiso   1.00
C246   C     0.16696   0.49965   0.02338   0.00000  Uiso   1.00
C247   C     0.19742   0.52485   0.45430   0.00000  Uiso   1.00
C248   C     0.13591   0.47515   0.04570   0.00000  Uiso   1.00
C249   C     0.10373   0.45222   0.47438   0.00000  Uiso   1.00
C250   C     0.22960   0.54779   0.02562   0.00000  Uiso   1.00
C251   C     0.10444   0.45172   0.02134   0.00000  Uiso   1.00
C252   C     0.22889   0.54828   0.47866   0.00000  Uiso   1.00
H253   H     0.22088   0.54161   0.38953   0.00000  Uiso   1.00
H254   H     0.11245   0.45839   0.11048   0.00000  Uiso   1.00
H255   H     0.11428   0.45668   0.38495   0.00000  Uiso   1.00
H256   H     0.21905   0.54332   0.11505   0.00000  Uiso   1.00
C257   C     0.02131   0.45792   0.24927   0.00000  Uiso   1.00
C258   C     0.31202   0.54208   0.25073   0.00000  Uiso   1.00
C259   C     0.31207   0.45792   0.24852   0.00000  Uiso   1.00
C260   C     0.02127   0.54208   0.25148   0.00000  Uiso   1.00
H261   H     0.03724   0.42497   0.24897   0.00000  Uiso   1.00
H262   H     0.29609   0.57503   0.25103   0.00000  Uiso   1.00
H263   H     0.29616   0.42499   0.24701   0.00000  Uiso   1.00
H264   H     0.03717   0.57501   0.25299   0.00000  Uiso   1.00
C265   C     0.29054   0.49999   0.24957   0.00000  Uiso   1.00
C266   C     0.04279   0.50001   0.25043   0.00000  Uiso   1.00
C267   C     0.14534   0.35770   0.21779   0.00000  Uiso   1.00
C268   C     0.18800   0.64230   0.28221   0.00000  Uiso   1.00
C269   C     0.18818   0.35833   0.28210   0.00000  Uiso   1.00
C270   C     0.14515   0.64167   0.21790   0.00000  Uiso   1.00
N271   N     0.16667   0.61736   0.25000   0.00000  Uiso   1.00
N272   N     0.16667   0.38264   0.25000   0.00000  Uiso   1.00
C273   C     0.06985   0.42810   0.44909   0.00000  Uiso   1.00
H274   H     0.05642   0.44330   0.41917   0.00000  Uiso   1.00
O275   O     0.05675   0.39078   0.46131   0.00000  Uiso   1.00
C276   C     0.26347   0.57193   0.05091   0.00000  Uiso   1.00
H277   H     0.27691   0.55674   0.08083   0.00000  Uiso   1.00
O278   O     0.27655   0.60926   0.03870   0.00000  Uiso   1.00
N279   N     0.07209   0.42896   0.04434   0.00000  Uiso   1.00
O280   O     0.03491   0.44576   0.04277   0.00000  Uiso   1.00
O281   O     0.07932   0.39011   0.06476   0.00000  Uiso   1.00
N282   N     0.26124   0.57104   0.45566   0.00000  Uiso   1.00
O283   O     0.25401   0.60988   0.43521   0.00000  Uiso   1.00
O284   O     0.29843   0.55428   0.45729   0.00000  Uiso   1.00
N285   N     0.12373   0.38103   0.18260   0.00000  Uiso   1.00
O286   O     0.13869   0.37965   0.14284   0.00000  Uiso   1.00
O287   O     0.08513   0.39145   0.18706   0.00000  Uiso   1.00
N288   N     0.20960   0.61897   0.31740   0.00000  Uiso   1.00
O289   O     0.19464   0.62035   0.35716   0.00000  Uiso   1.00
O290   O     0.24820   0.60855   0.31294   0.00000  Uiso   1.00
N291   N     0.21188   0.38236   0.31577   0.00000  Uiso   1.00
O292   O     0.25075   0.38975   0.30955   0.00000  Uiso   1.00
O293   O     0.19829   0.38462   0.35612   0.00000  Uiso   1.00
N294   N     0.12145   0.61764   0.18423   0.00000  Uiso   1.00
O295   O     0.08258   0.61025   0.19046   0.00000  Uiso   1.00
O296   O     0.13504   0.61538   0.14388   0.00000  Uiso   1.00
O297   O     0.43988   0.53958   0.25000   0.00000  Uiso   1.00
O298   O     0.56012   0.46042   0.25001   0.00000  Uiso   1.00
O299   O     0.56012   0.53958   0.25001   0.00000  Uiso   1.00
O300   O     0.43988   0.46042   0.25000   0.00000  Uiso   1.00
C301   C     0.42079   0.50001   0.25021   0.00000  Uiso   1.00
C302   C     0.57921   0.49998   0.24979   0.00000  Uiso   1.00
O303   O     0.49999   0.53960   0.18513   0.00000  Uiso   1.00
O304   O     0.50001   0.46040   0.31487   0.00000  Uiso   1.00
O305   O     0.50001   0.53960   0.31487   0.00000  Uiso   1.00
O306   O     0.49999   0.46040   0.18513   0.00000  Uiso   1.00
C307   C     0.49975   0.49985   0.16456   0.00000  Uiso   1.00
C308   C     0.50025   0.50015   0.33544   0.00000  Uiso   1.00
Cu309  Cu    0.50000   0.54689   0.25000   0.00000  Uiso   1.00
Cu310  Cu    0.50000   0.45311   0.25000   0.00000  Uiso   1.00
C311   C     0.53035   0.52445   0.40769   0.00000  Uiso   1.00
C312   C     0.46965   0.47555   0.09232   0.00000  Uiso   1.00
C313   C     0.50004   0.50036   0.38366   0.00000  Uiso   1.00
C314   C     0.49996   0.49964   0.11634   0.00000  Uiso   1.00
C315   C     0.46980   0.47582   0.40530   0.00000  Uiso   1.00
C316   C     0.53020   0.52418   0.09471   0.00000  Uiso   1.00
C317   C     0.46838   0.47618   0.45198   0.00000  Uiso   1.00
C318   C     0.53162   0.52382   0.04802   0.00000  Uiso   1.00
C319   C     0.49971   0.50035   0.47662   0.00000  Uiso   1.00
C320   C     0.50029   0.49965   0.02338   0.00000  Uiso   1.00
C321   C     0.53076   0.52485   0.45430   0.00000  Uiso   1.00
C322   C     0.46924   0.47515   0.04570   0.00000  Uiso   1.00
C323   C     0.43707   0.45222   0.47438   0.00000  Uiso   1.00
C324   C     0.56293   0.54779   0.02562   0.00000  Uiso   1.00
C325   C     0.43778   0.45172   0.02134   0.00000  Uiso   1.00
C326   C     0.56222   0.54828   0.47866   0.00000  Uiso   1.00
H327   H     0.55422   0.54161   0.38953   0.00000  Uiso   1.00
H328   H     0.44579   0.45839   0.11048   0.00000  Uiso   1.00
H329   H     0.44762   0.45668   0.38495   0.00000  Uiso   1.00
H330   H     0.55238   0.54332   0.11505   0.00000  Uiso   1.00
C331   C     0.35464   0.45792   0.24927   0.00000  Uiso   1.00
C332   C     0.64536   0.54208   0.25073   0.00000  Uiso   1.00
C333   C     0.64540   0.45792   0.24852   0.00000  Uiso   1.00
C334   C     0.35460   0.54208   0.25148   0.00000  Uiso   1.00
H335   H     0.37057   0.42497   0.24897   0.00000  Uiso   1.00
H336   H     0.62943   0.57503   0.25103   0.00000  Uiso   1.00
H337   H     0.62950   0.42499   0.24701   0.00000  Uiso   1.00
H338   H     0.37050   0.57501   0.25299   0.00000  Uiso   1.00
C339   C     0.62387   0.49999   0.24957   0.00000  Uiso   1.00
C340   C     0.37613   0.50001   0.25043   0.00000  Uiso   1.00
C341   C     0.47867   0.35770   0.21779   0.00000  Uiso   1.00
C342   C     0.52133   0.64230   0.28221   0.00000  Uiso   1.00
C343   C     0.52151   0.35833   0.28210   0.00000  Uiso   1.00
C344   C     0.47849   0.64167   0.21790   0.00000  Uiso   1.00
N345   N     0.50000   0.61736   0.25000   0.00000  Uiso   1.00
N346   N     0.50000   0.38264   0.25000   0.00000  Uiso   1.00
C347   C     0.40318   0.42810   0.44909   0.00000  Uiso   1.00
H348   H     0.38975   0.44330   0.41917   0.00000  Uiso   1.00
O349   O     0.39008   0.39078   0.46131   0.00000  Uiso   1.00
C350   C     0.59680   0.57193   0.05091   0.00000  Uiso   1.00
H351   H     0.61024   0.55674   0.08083   0.00000  Uiso   1.00
O352   O     0.60988   0.60926   0.03870   0.00000  Uiso   1.00
N353   N     0.40543   0.42896   0.04434   0.00000  Uiso   1.00
O354   O     0.36825   0.44576   0.04277   0.00000  Uiso   1.00
O355   O     0.41265   0.39011   0.06476   0.00000  Uiso   1.00
N356   N     0.59458   0.57104   0.45566   0.00000  Uiso   1.00
O357   O     0.58734   0.60988   0.43521   0.00000  Uiso   1.00
O358   O     0.63177   0.55428   0.45729   0.00000  Uiso   1.00
N359   N     0.45706   0.38103   0.18260   0.00000  Uiso   1.00
O360   O     0.47202   0.37965   0.14284   0.00000  Uiso   1.00
O361   O     0.41846   0.39145   0.18706   0.00000  Uiso   1.00
N362   N     0.54293   0.61897   0.31740   0.00000  Uiso   1.00
O363   O     0.52798   0.62035   0.35716   0.00000  Uiso   1.00
O364   O     0.58154   0.60855   0.31294   0.00000  Uiso   1.00
N365   N     0.54522   0.38236   0.31577   0.00000  Uiso   1.00
O366   O     0.58408   0.38975   0.30955   0.00000  Uiso   1.00
O367   O     0.53162   0.38462   0.35612   0.00000  Uiso   1.00
N368   N     0.45478   0.61764   0.18423   0.00000  Uiso   1.00
O369   O     0.41591   0.61025   0.19046   0.00000  Uiso   1.00
O370   O     0.46837   0.61538   0.14388   0.00000  Uiso   1.00
O371   O     0.77321   0.53958   0.25000   0.00000  Uiso   1.00
O372   O     0.89345   0.46042   0.25001   0.00000  Uiso   1.00
O373   O     0.89345   0.53958   0.25001   0.00000  Uiso   1.00
O374   O     0.77321   0.46042   0.25000   0.00000  Uiso   1.00
C375   C     0.75412   0.50001   0.25021   0.00000  Uiso   1.00
C376   C     0.91254   0.49998   0.24979   0.00000  Uiso   1.00
O377   O     0.83332   0.53960   0.18513   0.00000  Uiso   1.00
O378   O     0.83334   0.46040   0.31487   0.00000  Uiso   1.00
O379   O     0.83334   0.53960   0.31487   0.00000  Uiso   1.00
O380   O     0.83332   0.46040   0.18513   0.00000  Uiso   1.00
C381   C     0.83308   0.49985   0.16456   0.00000  Uiso   1.00
C382   C     0.83358   0.50015   0.33544   0.00000  Uiso   1.00
Cu383  Cu    0.83333   0.54689   0.25000   0.00000  Uiso   1.00
Cu384  Cu    0.83333   0.45311   0.25000   0.00000  Uiso   1.00
C385   C     0.86369   0.52445   0.40769   0.00000  Uiso   1.00
C386   C     0.80298   0.47555   0.09232   0.00000  Uiso   1.00
C387   C     0.83338   0.50036   0.38366   0.00000  Uiso   1.00
C388   C     0.83329   0.49964   0.11634   0.00000  Uiso   1.00
C389   C     0.80313   0.47582   0.40530   0.00000  Uiso   1.00
C390   C     0.86354   0.52418   0.09471   0.00000  Uiso   1.00
C391   C     0.80171   0.47618   0.45198   0.00000  Uiso   1.00
C392   C     0.86496   0.52382   0.04802   0.00000  Uiso   1.00
C393   C     0.83305   0.50035   0.47662   0.00000  Uiso   1.00
C394   C     0.83362   0.49965   0.02338   0.00000  Uiso   1.00
C395   C     0.86409   0.52485   0.45430   0.00000  Uiso   1.00
C396   C     0.80258   0.47515   0.04570   0.00000  Uiso   1.00
C397   C     0.77040   0.45222   0.47438   0.00000  Uiso   1.00
C398   C     0.89626   0.54779   0.02562   0.00000  Uiso   1.00
C399   C     0.77111   0.45172   0.02134   0.00000  Uiso   1.00
C400   C     0.89556   0.54828   0.47866   0.00000  Uiso   1.00
H401   H     0.88755   0.54161   0.38953   0.00000  Uiso   1.00
H402   H     0.77912   0.45839   0.11048   0.00000  Uiso   1.00
H403   H     0.78095   0.45668   0.38495   0.00000  Uiso   1.00
H404   H     0.88571   0.54332   0.11505   0.00000  Uiso   1.00
C405   C     0.68797   0.45792   0.24927   0.00000  Uiso   1.00
C406   C     0.97869   0.54208   0.25073   0.00000  Uiso   1.00
C407   C     0.97873   0.45792   0.24852   0.00000  Uiso   1.00
C408   C     0.68793   0.54208   0.25148   0.00000  Uiso   1.00
H409   H     0.70391   0.42497   0.24897   0.00000  Uiso   1.00
H410   H     0.96276   0.57503   0.25103   0.00000  Uiso   1.00
H411   H     0.96283   0.42499   0.24701   0.00000  Uiso   1.00
H412   H     0.70384   0.57501   0.25299   0.00000  Uiso   1.00
C413   C     0.95721   0.49999   0.24957   0.00000  Uiso   1.00
C414   C     0.70946   0.50001   0.25043   0.00000  Uiso   1.00
C415   C     0.81200   0.35770   0.21779   0.00000  Uiso   1.00
C416   C     0.85466   0.64230   0.28221   0.00000  Uiso   1.00
C417   C     0.85484   0.35833   0.28210   0.00000  Uiso   1.00
C418   C     0.81182   0.64167   0.21790   0.00000  Uiso   1.00
N419   N     0.83333   0.61736   0.25000   0.00000  Uiso   1.00
N420   N     0.83333   0.38264   0.25000   0.00000  Uiso   1.00
C421   C     0.73652   0.42810   0.44909   0.00000  Uiso   1.00
H422   H     0.72309   0.44330   0.41917   0.00000  Uiso   1.00
O423   O     0.72342   0.39078   0.46131   0.00000  Uiso   1.00
C424   C     0.93013   0.57193   0.05091   0.00000  Uiso   1.00
H425   H     0.94357   0.55674   0.08083   0.00000  Uiso   1.00
O426   O     0.94321   0.60926   0.03870   0.00000  Uiso   1.00
N427   N     0.73876   0.42896   0.04434   0.00000  Uiso   1.00
O428   O     0.70158   0.44576   0.04277   0.00000  Uiso   1.00
O429   O     0.74598   0.39011   0.06476   0.00000  Uiso   1.00
N430   N     0.92791   0.57104   0.45566   0.00000  Uiso   1.00
O431   O     0.92067   0.60988   0.43521   0.00000  Uiso   1.00
O432   O     0.96510   0.55428   0.45729   0.00000  Uiso   1.00
N433   N     0.79040   0.38103   0.18260   0.00000  Uiso   1.00
O434   O     0.80535   0.37965   0.14284   0.00000  Uiso   1.00
O435   O     0.75180   0.39145   0.18706   0.00000  Uiso   1.00
N436   N     0.87627   0.61897   0.31740   0.00000  Uiso   1.00
O437   O     0.86131   0.62035   0.35716   0.00000  Uiso   1.00
O438   O     0.91487   0.60855   0.31294   0.00000  Uiso   1.00
N439   N     0.87855   0.38236   0.31577   0.00000  Uiso   1.00
O440   O     0.91742   0.38975   0.30955   0.00000  Uiso   1.00
O441   O     0.86496   0.38462   0.35612   0.00000  Uiso   1.00
N442   N     0.78812   0.61764   0.18423   0.00000  Uiso   1.00
O443   O     0.74925   0.61025   0.19046   0.00000  Uiso   1.00
O444   O     0.80171   0.61538   0.14388   0.00000  Uiso   1.00
O445   O     0.10655   0.87291   0.25000   0.00000  Uiso   1.00
O446   O     0.22679   0.79375   0.25001   0.00000  Uiso   1.00
O447   O     0.22679   0.87291   0.25001   0.00000  Uiso   1.00
O448   O     0.10655   0.79375   0.25000   0.00000  Uiso   1.00
C449   C     0.08746   0.83335   0.25021   0.00000  Uiso   1.00
C450   C     0.24588   0.83332   0.24979   0.00000  Uiso   1.00
O451   O     0.16666   0.87293   0.18513   0.00000  Uiso   1.00
O452   O     0.16668   0.79373   0.31487   0.00000  Uiso   1.00
O453   O     0.16668   0.87293   0.31487   0.00000  Uiso   1.00
O454   O     0.16666   0.79373   0.18513   0.00000  Uiso   1.00
C455   C     0.16642   0.83319   0.16456   0.00000  Uiso   1.00
C456   C     0.16692   0.83348   0.33544   0.00000  Uiso   1.00
Cu457  Cu    0.16667   0.88022   0.25000   0.00000  Uiso   1.00
Cu458  Cu    0.16667   0.78645   0.25000   0.00000  Uiso   1.00
C459   C     0.19702   0.85778   0.40769   0.00000  Uiso   1.00
C460   C     0.13632   0.80888   0.09232   0.00000  Uiso   1.00
C461   C     0.16671   0.83369   0.38366   0.00000  Uiso   1.00
C462   C     0.16662   0.83298   0.11634   0.00000  Uiso   1.00
C463   C     0.13646   0.80916   0.40530   0.00000  Uiso   1.00
C464   C     0.19687   0.85752   0.09471   0.00000  Uiso   1.00
C465   C     0.13504   0.80952   0.45198   0.00000  Uiso   1.00
C466   C     0.19829   0.85716   0.04802   0.00000  Uiso   1.00
C467   C     0.16638   0.83369   0.47662   0.00000  Uiso   1.00
C468   C     0.16696   0.83298   0.02338   0.00000  Uiso   1.00
C469   C     0.19742   0.85818   0.45430   0.00000  Uiso   1.00
C470   C     0.13591   0.80849   0.04570   0.00000  Uiso   1.00
C471   C     0.10373   0.78555   0.47438   0.00000  Uiso   1.00
C472   C     0.22960   0.88112   0.02562   0.00000  Uiso   1.00
C473   C     0.10444   0.78506   0.02134   0.00000  Uiso   1.00
C474   C     0.22889   0.88162   0.47866   0.00000  Uiso   1.00
H475   H     0.22088   0.87494   0.38953   0.00000  Uiso   1.00
H476   H     0.11245   0.79172   0.11048   0.00000  Uiso   1.00
H477   H     0.11428   0.79002   0.38495   0.00000  Uiso   1.00
H478   H     0.21905   0.87666   0.11505   0.00000  Uiso   1.00
C479   C     0.02131   0.79125   0.24927   0.00000  Uiso   1.00
C480   C     0.31202   0.87541   0.25073   0.00000  Uiso   1.00
C481   C     0.31207   0.79125   0.24852   0.00000  Uiso   1.00
C482   C     0.02127   0.87542   0.25148   0.00000  Uiso   1.00
H483   H     0.03724   0.75830   0.24897   0.00000  Uiso   1.00
H484   H     0.29609   0.90837   0.25103   0.00000  Uiso   1.00
H485   H     0.29616   0.75832   0.24701   0.00000  Uiso   1.00
H486   H     0.03717   0.90835   0.25299   0.00000  Uiso   1.00
C487   C     0.29054   0.83332   0.24957   0.00000  Uiso   1.00
C488   C     0.04279   0.83334   0.25043   0.00000  Uiso   1.00
C489   C     0.14534   0.69103   0.21779   0.00000  Uiso   1.00
C490   C     0.18800   0.97564   0.28221   0.00000  Uiso   1.00
C491   C     0.18818   0.69166   0.28210   0.00000  Uiso   1.00
C492   C     0.14515   0.97501   0.21790   0.00000  Uiso   1.00
N493   N     0.16667   0.95069   0.25000   0.00000  Uiso   1.00
N494   N     0.16667   0.71598   0.25000   0.00000  Uiso   1.00
C495   C     0.06985   0.76143   0.44909   0.00000  Uiso   1.00
H496   H     0.05642   0.77663   0.41917   0.00000  Uiso   1.00
O497   O     0.05675   0.72411   0.46131   0.00000  Uiso   1.00
C498   C     0.26347   0.90526   0.05091   0.00000  Uiso   1.00
H499   H     0.27691   0.89007   0.08083   0.00000  Uiso   1.00
O500   O     0.27655   0.94259   0.03870   0.00000  Uiso   1.00
N501   N     0.07209   0.76230   0.04434   0.00000  Uiso   1.00
O502   O     0.03491   0.77910   0.04277   0.00000  Uiso   1.00
O503   O     0.07932   0.72344   0.06476   0.00000  Uiso   1.00
N504   N     0.26124   0.90438   0.45566   0.00000  Uiso   1.00
O505   O     0.25401   0.94321   0.43521   0.00000  Uiso   1.00
O506   O     0.29843   0.88761   0.45729   0.00000  Uiso   1.00
N507   N     0.12373   0.71436   0.18260   0.00000  Uiso   1.00
O508   O     0.13869   0.71298   0.14284   0.00000  Uiso   1.00
O509   O     0.08513   0.72478   0.18706   0.00000  Uiso   1.00
N510   N     0.20960   0.95231   0.31740   0.00000  Uiso   1.00
O511   O     0.19464   0.95369   0.35716   0.00000  Uiso   1.00
O512   O     0.24820   0.94189   0.31294   0.00000  Uiso   1.00
N513   N     0.21188   0.71569   0.31577   0.00000  Uiso   1.00
O514   O     0.25075   0.72308   0.30955   0.00000  Uiso   1.00
O515   O     0.19829   0.71795   0.35612   0.00000  Uiso   1.00
N516   N     0.12145   0.95098   0.18423   0.00000  Uiso   1.00
O517   O     0.08258   0.94359   0.19046   0.00000  Uiso   1.00
O518   O     0.13504   0.94871   0.14388   0.00000  Uiso   1.00
O519   O     0.43988   0.87291   0.25000   0.00000  Uiso   1.00
O520   O     0.56012   0.79375   0.25001   0.00000  Uiso   1.00
O521   O     0.56012   0.87291   0.25001   0.00000  Uiso   1.00
O522   O     0.43988   0.79375   0.25000   0.00000  Uiso   1.00
C523   C     0.42079   0.83335   0.25021   0.00000  Uiso   1.00
C524   C     0.57921   0.83332   0.24979   0.00000  Uiso   1.00
O525   O     0.49999   0.87293   0.18513   0.00000  Uiso   1.00
O526   O     0.50001   0.79373   0.31487   0.00000  Uiso   1.00
O527   O     0.50001   0.87293   0.31487   0.00000  Uiso   1.00
O528   O     0.49999   0.79373   0.18513   0.00000  Uiso   1.00
C529   C     0.49975   0.83319   0.16456   0.00000  Uiso   1.00
C530   C     0.50025   0.83348   0.33544   0.00000  Uiso   1.00
Cu531  Cu    0.50000   0.88022   0.25000   0.00000  Uiso   1.00
Cu532  Cu    0.50000   0.78645   0.25000   0.00000  Uiso   1.00
C533   C     0.53035   0.85778   0.40769   0.00000  Uiso   1.00
C534   C     0.46965   0.80888   0.09232   0.00000  Uiso   1.00
C535   C     0.50004   0.83369   0.38366   0.00000  Uiso   1.00
C536   C     0.49996   0.83298   0.11634   0.00000  Uiso   1.00
C537   C     0.46980   0.80916   0.40530   0.00000  Uiso   1.00
C538   C     0.53020   0.85752   0.09471   0.00000  Uiso   1.00
C539   C     0.46838   0.80952   0.45198   0.00000  Uiso   1.00
C540   C     0.53162   0.85716   0.04802   0.00000  Uiso   1.00
C541   C     0.49971   0.83369   0.47662   0.00000  Uiso   1.00
C542   C     0.50029   0.83298   0.02338   0.00000  Uiso   1.00
C543   C     0.53076   0.85818   0.45430   0.00000  Uiso   1.00
C544   C     0.46924   0.80849   0.04570   0.00000  Uiso   1.00
C545   C     0.43707   0.78555   0.47438   0.00000  Uiso   1.00
C546   C     0.56293   0.88112   0.02562   0.00000  Uiso   1.00
C547   C     0.43778   0.78506   0.02134   0.00000  Uiso   1.00
C548   C     0.56222   0.88162   0.47866   0.00000  Uiso   1.00
H549   H     0.55422   0.87494   0.38953   0.00000  Uiso   1.00
H550   H     0.44579   0.79172   0.11048   0.00000  Uiso   1.00
H551   H     0.44762   0.79002   0.38495   0.00000  Uiso   1.00
H552   H     0.55238   0.87666   0.11505   0.00000  Uiso   1.00
C553   C     0.35464   0.79125   0.24927   0.00000  Uiso   1.00
C554   C     0.64536   0.87541   0.25073   0.00000  Uiso   1.00
C555   C     0.64540   0.79125   0.24852   0.00000  Uiso   1.00
C556   C     0.35460   0.87542   0.25148   0.00000  Uiso   1.00
H557   H     0.37057   0.75830   0.24897   0.00000  Uiso   1.00
H558   H     0.62943   0.90837   0.25103   0.00000  Uiso   1.00
H559   H     0.62950   0.75832   0.24701   0.00000  Uiso   1.00
H560   H     0.37050   0.90835   0.25299   0.00000  Uiso   1.00
C561   C     0.62387   0.83332   0.24957   0.00000  Uiso   1.00
C562   C     0.37613   0.83334   0.25043   0.00000  Uiso   1.00
C563   C     0.47867   0.69103   0.21779   0.00000  Uiso   1.00
C564   C     0.52133   0.97564   0.28221   0.00000  Uiso   1.00
C565   C     0.52151   0.69166   0.28210   0.00000  Uiso   1.00
C566   C     0.47849   0.97501   0.21790   0.00000  Uiso   1.00
N567   N     0.50000   0.95069   0.25000   0.00000  Uiso   1.00
N568   N     0.50000   0.71598   0.25000   0.00000  Uiso   1.00
C569   C     0.40318   0.76143   0.44909   0.00000  Uiso   1.00
H570   H     0.38975   0.77663   0.41917   0.00000  Uiso   1.00
O571   O     0.39008   0.72411   0.46131   0.00000  Uiso   1.00
C572   C     0.59680   0.90526   0.05091   0.00000  Uiso   1.00
H573   H     0.61024   0.89007   0.08083   0.00000  Uiso   1.00
O574   O     0.60988   0.94259   0.03870   0.00000  Uiso   1.00
N575   N     0.40543   0.76230   0.04434   0.00000  Uiso   1.00
O576   O     0.36825   0.77910   0.04277   0.00000  Uiso   1.00
O577   O     0.41265   0.72344   0.06476   0.00000  Uiso   1.00
N578   N     0.59458   0.90438   0.45566   0.00000  Uiso   1.00
O579   O     0.58734   0.94321   0.43521   0.00000  Uiso   1.00
O580   O     0.63177   0.88761   0.45729   0.00000  Uiso   1.00
N581   N     0.45706   0.71436   0.18260   0.00000  Uiso   1.00
O582   O     0.47202   0.71298   0.14284   0.00000  Uiso   1.00
O583   O     0.41846   0.72478   0.18706   0.00000  Uiso   1.00
N584   N     0.54293   0.95231   0.31740   0.00000  Uiso   1.00
O585   O     0.52798   0.95369   0.35716   0.00000  Uiso   1.00
O586   O     0.58154   0.94189   0.31294   0.00000  Uiso   1.00
N587   N     0.54522   0.71569   0.31577   0.00000  Uiso   1.00
O588   O     0.58408   0.72308   0.30955   0.00000  Uiso   1.00
O589   O     0.53162   0.71795   0.35612   0.00000  Uiso   1.00
N590   N     0.45478   0.95098   0.18423   0.00000  Uiso   1.00
O591   O     0.41591   0.94359   0.19046   0.00000  Uiso   1.00
O592   O     0.46837   0.94871   0.14388   0.00000  Uiso   1.00
O593   O     0.77321   0.87291   0.25000   0.00000  Uiso   1.00
O594   O     0.89345   0.79375   0.25001   0.00000  Uiso   1.00
O595   O     0.89345   0.87291   0.25001   0.00000  Uiso   1.00
O596   O     0.77321   0.79375   0.25000   0.00000  Uiso   1.00
C597   C     0.75412   0.83335   0.25021   0.00000  Uiso   1.00
C598   C     0.91254   0.83332   0.24979   0.00000  Uiso   1.00
O599   O     0.83332   0.87293   0.18513   0.00000  Uiso   1.00
O600   O     0.83334   0.79373   0.31487   0.00000  Uiso   1.00
O601   O     0.83334   0.87293   0.31487   0.00000  Uiso   1.00
O602   O     0.83332   0.79373   0.18513   0.00000  Uiso   1.00
C603   C     0.83308   0.83319   0.16456   0.00000  Uiso   1.00
C604   C     0.83358   0.83348   0.33544   0.00000  Uiso   1.00
Cu605  Cu    0.83333   0.88022   0.25000   0.00000  Uiso   1.00
Cu606  Cu    0.83333   0.78645   0.25000   0.00000  Uiso   1.00
C607   C     0.86369   0.85778   0.40769   0.00000  Uiso   1.00
C608   C     0.80298   0.80888   0.09232   0.00000  Uiso   1.00
C609   C     0.83338   0.83369   0.38366   0.00000  Uiso   1.00
C610   C     0.83329   0.83298   0.11634   0.00000  Uiso   1.00
C611   C     0.80313   0.80916   0.40530   0.00000  Uiso   1.00
C612   C     0.86354   0.85752   0.09471   0.00000  Uiso   1.00
C613   C     0.80171   0.80952   0.45198   0.00000  Uiso   1.00
C614   C     0.86496   0.85716   0.04802   0.00000  Uiso   1.00
C615   C     0.83305   0.83369   0.47662   0.00000  Uiso   1.00
C616   C     0.83362   0.83298   0.02338   0.00000  Uiso   1.00
C617   C     0.86409   0.85818   0.45430   0.00000  Uiso   1.00
C618   C     0.80258   0.80849   0.04570   0.00000  Uiso   1.00
C619   C     0.77040   0.78555   0.47438   0.00000  Uiso   1.00
C620   C     0.89626   0.88112   0.02562   0.00000  Uiso   1.00
C621   C     0.77111   0.78506   0.02134   0.00000  Uiso   1.00
C622   C     0.89556   0.88162   0.47866   0.00000  Uiso   1.00
H623   H     0.88755   0.87494   0.38953   0.00000  Uiso   1.00
H624   H     0.77912   0.79172   0.11048   0.00000  Uiso   1.00
H625   H     0.78095   0.79002   0.38495   0.00000  Uiso   1.00
H626   H     0.88571   0.87666   0.11505   0.00000  Uiso   1.00
C627   C     0.68797   0.79125   0.24927   0.00000  Uiso   1.00
C628   C     0.97869   0.87541   0.25073   0.00000  Uiso   1.00
C629   C     0.97873   0.79125   0.24852   0.00000  Uiso   1.00
C630   C     0.68793   0.87542   0.25148   0.00000  Uiso   1.00
H631   H     0.70391   0.75830   0.24897   0.00000  Uiso   1.00
H632   H     0.96276   0.90837   0.25103   0.00000  Uiso   1.00
H633   H     0.96283   0.75832   0.24701   0.00000  Uiso   1.00
H634   H     0.70384   0.90835   0.25299   0.00000  Uiso   1.00
C635   C     0.95721   0.83332   0.24957   0.00000  Uiso   1.00
C636   C     0.70946   0.83334   0.25043   0.00000  Uiso   1.00
C637   C     0.81200   0.69103   0.21779   0.00000  Uiso   1.00
C638   C     0.85466   0.97564   0.28221   0.00000  Uiso   1.00
C639   C     0.85484   0.69166   0.28210   0.00000  Uiso   1.00
C640   C     0.81182   0.97501   0.21790   0.00000  Uiso   1.00
N641   N     0.83333   0.95069   0.25000   0.00000  Uiso   1.00
N642   N     0.83333   0.71598   0.25000   0.00000  Uiso   1.00
C643   C     0.73652   0.76143   0.44909   0.00000  Uiso   1.00
H644   H     0.72309   0.77663   0.41917   0.00000  Uiso   1.00
O645   O     0.72342   0.72411   0.46131   0.00000  Uiso   1.00
C646   C     0.93013   0.90526   0.05091   0.00000  Uiso   1.00
H647   H     0.94357   0.89007   0.08083   0.00000  Uiso   1.00
O648   O     0.94321   0.94259   0.03870   0.00000  Uiso   1.00
N649   N     0.73876   0.76230   0.04434   0.00000  Uiso   1.00
O650   O     0.70158   0.77910   0.04277   0.00000  Uiso   1.00
O651   O     0.74598   0.72344   0.06476   0.00000  Uiso   1.00
N652   N     0.92791   0.90438   0.45566   0.00000  Uiso   1.00
O653   O     0.92067   0.94321   0.43521   0.00000  Uiso   1.00
O654   O     0.96510   0.88761   0.45729   0.00000  Uiso   1.00
N655   N     0.79040   0.71436   0.18260   0.00000  Uiso   1.00
O656   O     0.80535   0.71298   0.14284   0.00000  Uiso   1.00
O657   O     0.75180   0.72478   0.18706   0.00000  Uiso   1.00
N658   N     0.87627   0.95231   0.31740   0.00000  Uiso   1.00
O659   O     0.86131   0.95369   0.35716   0.00000  Uiso   1.00
O660   O     0.91487   0.94189   0.31294   0.00000  Uiso   1.00
N661   N     0.87855   0.71569   0.31577   0.00000  Uiso   1.00
O662   O     0.91742   0.72308   0.30955   0.00000  Uiso   1.00
O663   O     0.86496   0.71795   0.35612   0.00000  Uiso   1.00
N664   N     0.78812   0.95098   0.18423   0.00000  Uiso   1.00
O665   O     0.74925   0.94359   0.19046   0.00000  Uiso   1.00
O666   O     0.80171   0.94871   0.14388   0.00000  Uiso   1.00
O667   O     0.10655   0.20625   0.75000   0.00000  Uiso   1.00
O668   O     0.22679   0.12709   0.75001   0.00000  Uiso   1.00
O669   O     0.22679   0.20625   0.75001   0.00000  Uiso   1.00
O670   O     0.10655   0.12709   0.75000   0.00000  Uiso   1.00
C671   C     0.08746   0.16668   0.75021   0.00000  Uiso   1.00
C672   C     0.24588   0.16665   0.74979   0.00000  Uiso   1.00
O673   O     0.16666   0.20627   0.68513   0.00000  Uiso   1.00
O674   O     0.16668   0.12707   0.81487   0.00000  Uiso   1.00
O675   O     0.16668   0.20627   0.81487   0.00000  Uiso   1.00
O676   O     0.16666   0.12707   0.68513   0.00000  Uiso   1.00
C677   C     0.16642   0.16652   0.66456   0.00000  Uiso   1.00
C678   C     0.16692   0.16681   0.83544   0.00000  Uiso   1.00
Cu679  Cu    0.16667   0.21355   0.75000   0.00000  Uiso   1.00
Cu680  Cu    0.16667   0.11978   0.75000   0.00000  Uiso   1.00
C681   C     0.19702   0.19112   0.90769   0.00000  Uiso   1.00
C682   C     0.13632   0.14222   0.59232   0.00000  Uiso   1.00
C683   C     0.16671   0.16702   0.88366   0.00000  Uiso   1.00
C684   C     0.16662   0.16631   0.61634   0.00000  Uiso   1.00
C685   C     0.13646   0.14249   0.90530   0.00000  Uiso   1.00
C686   C     0.19687   0.19085   0.59471   0.00000  Uiso   1.00
C687   C     0.13504   0.14285   0.95198   0.00000  Uiso   1.00
C688   C     0.19829   0.19049   0.54802   0.00000  Uiso   1.00
C689   C     0.16638   0.16702   0.97662   0.00000  Uiso   1.00
C690   C     0.16696   0.16632   0.52338   0.00000  Uiso   1.00
C691   C     0.19742   0.19152   0.95430   0.00000  Uiso   1.00
C692   C     0.13591   0.14182   0.54570   0.00000  Uiso   1.00
C693   C     0.10373   0.11889   0.97438   0.00000  Uiso   1.00
C694   C     0.22960   0.21446   0.52562   0.00000  Uiso   1.00
C695   C     0.10444   0.11839   0.52134   0.00000  Uiso   1.00
C696   C     0.22889   0.21495   0.97866   0.00000  Uiso   1.00
H697   H     0.22088   0.20828   0.88953   0.00000  Uiso   1.00
H698   H     0.11245   0.12505   0.61048   0.00000  Uiso   1.00
H699   H     0.11428   0.12335   0.88495   0.00000  Uiso   1.00
H700   H     0.21905   0.20999   0.61505   0.00000  Uiso   1.00
C701   C     0.02131   0.12459   0.74927   0.00000  Uiso   1.00
C702   C     0.31202   0.20875   0.75073   0.00000  Uiso   1.00
C703   C     0.31207   0.12458   0.74852   0.00000  Uiso   1.00
C704   C     0.02127   0.20875   0.75148   0.00000  Uiso   1.00
H705   H     0.03724   0.09163   0.74897   0.00000  Uiso   1.00
H706   H     0.29609   0.24170   0.75103   0.00000  Uiso   1.00
H707   H     0.29616   0.09165   0.74701   0.00000  Uiso   1.00
H708   H     0.03717   0.24168   0.75299   0.00000  Uiso   1.00
C709   C     0.29054   0.16665   0.74957   0.00000  Uiso   1.00
C710   C     0.04279   0.16668   0.75043   0.00000  Uiso   1.00
C711   C     0.14534   0.02436   0.71779   0.00000  Uiso   1.00
C712   C     0.18800   0.30897   0.78221   0.00000  Uiso   1.00
C713   C     0.18818   0.02499   0.78210   0.00000  Uiso   1.00
C714   C     0.14515   0.30834   0.71790   0.00000  Uiso   1.00
N715   N     0.16667   0.28402   0.75000   0.00000  Uiso   1.00
N716   N     0.16667   0.04931   0.75000   0.00000  Uiso   1.00
C717   C     0.06985   0.09477   0.94909   0.00000  Uiso   1.00
H718   H     0.05642   0.10996   0.91917   0.00000  Uiso   1.00
O719   O     0.05675   0.05745   0.96131   0.00000  Uiso   1.00
C720   C     0.26347   0.23859   0.55091   0.00000  Uiso   1.00
H721   H     0.27691   0.22340   0.58083   0.00000  Uiso   1.00
O722   O     0.27655   0.27593   0.53870   0.00000  Uiso   1.00
N723   N     0.07209   0.09563   0.54434   0.00000  Uiso   1.00
O724   O     0.03491   0.11243   0.54277   0.00000  Uiso   1.00
O725   O     0.07932   0.05677   0.56476   0.00000  Uiso   1.00
N726   N     0.26124   0.23771   0.95566   0.00000  Uiso   1.00
O727   O     0.25401   0.27655   0.93521   0.00000  Uiso   1.00
O728   O     0.29843   0.22095   0.95729   0.00000  Uiso   1.00
N729   N     0.12373   0.04769   0.68260   0.00000  Uiso   1.00
O730   O     0.13869   0.04631   0.64284   0.00000  Uiso   1.00
O731   O     0.08513   0.05811   0.68706   0.00000  Uiso   1.00
N732   N     0.20960   0.28564   0.81740   0.00000  Uiso   1.00
O733   O     0.19464   0.28702   0.85716   0.00000  Uiso   1.00
O734   O     0.24820   0.27522   0.81294   0.00000  Uiso   1.00
N735   N     0.21188   0.04902   0.81577   0.00000  Uiso   1.00
O736   O     0.25075   0.05642   0.80955   0.00000  Uiso   1.00
O737   O     0.19829   0.05128   0.85612   0.00000  Uiso   1.00
N738   N     0.12145   0.28431   0.68423   0.00000  Uiso   1.00
O739   O     0.08258   0.27692   0.69046   0.00000  Uiso   1.00
O740   O     0.13504   0.28205   0.64388   0.00000  Uiso   1.00
O741   O     0.43988   0.20625   0.75000   0.00000  Uiso   1.00
O742   O     0.56012   0.12709   0.75001   0.00000  Uiso   1.00
O743   O     0.56012   0.20625   0.75001   0.00000  Uiso   1.00
O744   O     0.43988   0.12709   0.75000   0.00000  Uiso   1.00
C745   C     0.42079   0.16668   0.75021   0.00000  Uiso   1.00
C746   C     0.57921   0.16665   0.74979   0.00000  Uiso   1.00
O747   O     0.49999   0.20627   0.68513   0.00000  Uiso   1.00
O748   O     0.50001   0.12707   0.81487   0.00000  Uiso   1.00
O749   O     0.50001   0.20627   0.81487   0.00000  Uiso   1.00
O750   O     0.49999   0.12707   0.68513   0.00000  Uiso   1.00
C751   C     0.49975   0.16652   0.66456   0.00000  Uiso   1.00
C752   C     0.50025   0.16681   0.83544   0.00000  Uiso   1.00
Cu753  Cu    0.50000   0.21355   0.75000   0.00000  Uiso   1.00
Cu754  Cu    0.50000   0.11978   0.75000   0.00000  Uiso   1.00
C755   C     0.53035   0.19112   0.90769   0.00000  Uiso   1.00
C756   C     0.46965   0.14222   0.59232   0.00000  Uiso   1.00
C757   C     0.50004   0.16702   0.88366   0.00000  Uiso   1.00
C758   C     0.49996   0.16631   0.61634   0.00000  Uiso   1.00
C759   C     0.46980   0.14249   0.90530   0.00000  Uiso   1.00
C760   C     0.53020   0.19085   0.59471   0.00000  Uiso   1.00
C761   C     0.46838   0.14285   0.95198   0.00000  Uiso   1.00
C762   C     0.53162   0.19049   0.54802   0.00000  Uiso   1.00
C763   C     0.49971   0.16702   0.97662   0.00000  Uiso   1.00
C764   C     0.50029   0.16632   0.52338   0.00000  Uiso   1.00
C765   C     0.53076   0.19152   0.95430   0.00000  Uiso   1.00
C766   C     0.46924   0.14182   0.54570   0.00000  Uiso   1.00
C767   C     0.43707   0.11889   0.97438   0.00000  Uiso   1.00
C768   C     0.56293   0.21446   0.52562   0.00000  Uiso   1.00
C769   C     0.43778   0.11839   0.52134   0.00000  Uiso   1.00
C770   C     0.56222   0.21495   0.97866   0.00000  Uiso   1.00
H771   H     0.55422   0.20828   0.88953   0.00000  Uiso   1.00
H772   H     0.44579   0.12505   0.61048   0.00000  Uiso   1.00
H773   H     0.44762   0.12335   0.88495   0.00000  Uiso   1.00
H774   H     0.55238   0.20999   0.61505   0.00000  Uiso   1.00
C775   C     0.35464   0.12459   0.74927   0.00000  Uiso   1.00
C776   C     0.64536   0.20875   0.75073   0.00000  Uiso   1.00
C777   C     0.64540   0.12458   0.74852   0.00000  Uiso   1.00
C778   C     0.35460   0.20875   0.75148   0.00000  Uiso   1.00
H779   H     0.37057   0.09163   0.74897   0.00000  Uiso   1.00
H780   H     0.62943   0.24170   0.75103   0.00000  Uiso   1.00
H781   H     0.62950   0.09165   0.74701   0.00000  Uiso   1.00
H782   H     0.37050   0.24168   0.75299   0.00000  Uiso   1.00
C783   C     0.62387   0.16665   0.74957   0.00000  Uiso   1.00
C784   C     0.37613   0.16668   0.75043   0.00000  Uiso   1.00
C785   C     0.47867   0.02436   0.71779   0.00000  Uiso   1.00
C786   C     0.52133   0.30897   0.78221   0.00000  Uiso   1.00
C787   C     0.52151   0.02499   0.78210   0.00000  Uiso   1.00
C788   C     0.47849   0.30834   0.71790   0.00000  Uiso   1.00
N789   N     0.50000   0.28402   0.75000   0.00000  Uiso   1.00
N790   N     0.50000   0.04931   0.75000   0.00000  Uiso   1.00
C791   C     0.40318   0.09477   0.94909   0.00000  Uiso   1.00
H792   H     0.38975   0.10996   0.91917   0.00000  Uiso   1.00
O793   O     0.39008   0.05745   0.96131   0.00000  Uiso   1.00
C794   C     0.59680   0.23859   0.55091   0.00000  Uiso   1.00
H795   H     0.61024   0.22340   0.58083   0.00000  Uiso   1.00
O796   O     0.60988   0.27593   0.53870   0.00000  Uiso   1.00
N797   N     0.40543   0.09563   0.54434   0.00000  Uiso   1.00
O798   O     0.36825   0.11243   0.54277   0.00000  Uiso   1.00
O799   O     0.41265   0.05677   0.56476   0.00000  Uiso   1.00
N800   N     0.59458   0.23771   0.95566   0.00000  Uiso   1.00
O801   O     0.58734   0.27655   0.93521   0.00000  Uiso   1.00
O802   O     0.63177   0.22095   0.95729   0.00000  Uiso   1.00
N803   N     0.45706   0.04769   0.68260   0.00000  Uiso   1.00
O804   O     0.47202   0.04631   0.64284   0.00000  Uiso   1.00
O805   O     0.41846   0.05811   0.68706   0.00000  Uiso   1.00
N806   N     0.54293   0.28564   0.81740   0.00000  Uiso   1.00
O807   O     0.52798   0.28702   0.85716   0.00000  Uiso   1.00
O808   O     0.58154   0.27522   0.81294   0.00000  Uiso   1.00
N809   N     0.54522   0.04902   0.81577   0.00000  Uiso   1.00
O810   O     0.58408   0.05642   0.80955   0.00000  Uiso   1.00
O811   O     0.53162   0.05128   0.85612   0.00000  Uiso   1.00
N812   N     0.45478   0.28431   0.68423   0.00000  Uiso   1.00
O813   O     0.41591   0.27692   0.69046   0.00000  Uiso   1.00
O814   O     0.46837   0.28205   0.64388   0.00000  Uiso   1.00
O815   O     0.77321   0.20625   0.75000   0.00000  Uiso   1.00
O816   O     0.89345   0.12709   0.75001   0.00000  Uiso   1.00
O817   O     0.89345   0.20625   0.75001   0.00000  Uiso   1.00
O818   O     0.77321   0.12709   0.75000   0.00000  Uiso   1.00
C819   C     0.75412   0.16668   0.75021   0.00000  Uiso   1.00
C820   C     0.91254   0.16665   0.74979   0.00000  Uiso   1.00
O821   O     0.83332   0.20627   0.68513   0.00000  Uiso   1.00
O822   O     0.83334   0.12707   0.81487   0.00000  Uiso   1.00
O823   O     0.83334   0.20627   0.81487   0.00000  Uiso   1.00
O824   O     0.83332   0.12707   0.68513   0.00000  Uiso   1.00
C825   C     0.83308   0.16652   0.66456   0.00000  Uiso   1.00
C826   C     0.83358   0.16681   0.83544   0.00000  Uiso   1.00
Cu827  Cu    0.83333   0.21355   0.75000   0.00000  Uiso   1.00
Cu828  Cu    0.83333   0.11978   0.75000   0.00000  Uiso   1.00
C829   C     0.86369   0.19112   0.90769   0.00000  Uiso   1.00
C830   C     0.80298   0.14222   0.59232   0.00000  Uiso   1.00
C831   C     0.83338   0.16702   0.88366   0.00000  Uiso   1.00
C832   C     0.83329   0.16631   0.61634   0.00000  Uiso   1.00
C833   C     0.80313   0.14249   0.90530   0.00000  Uiso   1.00
C834   C     0.86354   0.19085   0.59471   0.00000  Uiso   1.00
C835   C     0.80171   0.14285   0.95198   0.00000  Uiso   1.00
C836   C     0.86496   0.19049   0.54802   0.00000  Uiso   1.00
C837   C     0.83305   0.16702   0.97662   0.00000  Uiso   1.00
C838   C     0.83362   0.16632   0.52338   0.00000  Uiso   1.00
C839   C     0.86409   0.19152   0.95430   0.00000  Uiso   1.00
C840   C     0.80258   0.14182   0.54570   0.00000  Uiso   1.00
C841   C     0.77040   0.11889   0.97438   0.00000  Uiso   1.00
C842   C     0.89626   0.21446   0.52562   0.00000  Uiso   1.00
C843   C     0.77111   0.11839   0.52134   0.00000  Uiso   1.00
C844   C     0.89556   0.21495   0.97866   0.00000  Uiso   1.00
H845   H     0.88755   0.20828   0.88953   0.00000  Uiso   1.00
H846   H     0.77912   0.12505   0.61048   0.00000  Uiso   1.00
H847   H     0.78095   0.12335   0.88495   0.00000  Uiso   1.00
H848   H     0.88571   0.20999   0.61505   0.00000  Uiso   1.00
C849   C     0.68797   0.12459   0.74927   0.00000  Uiso   1.00
C850   C     0.97869   0.20875   0.75073   0.00000  Uiso   1.00
C851   C     0.97873   0.12458   0.74852   0.00000  Uiso   1.00
C852   C     0.68793   0.20875   0.75148   0.00000  Uiso   1.00
H853   H     0.70391   0.09163   0.74897   0.00000  Uiso   1.00
H854   H     0.96276   0.24170   0.75103   0.00000  Uiso   1.00
H855   H     0.96283   0.09165   0.74701   0.00000  Uiso   1.00
H856   H     0.70384   0.24168   0.75299   0.00000  Uiso   1.00
C857   C     0.95721   0.16665   0.74957   0.00000  Uiso   1.00
C858   C     0.70946   0.16668   0.75043   0.00000  Uiso   1.00
C859   C     0.81200   0.02436   0.71779   0.00000  Uiso   1.00
C860   C     0.85466   0.30897   0.78221   0.00000  Uiso   1.00
C861   C     0.85484   0.02499   0.78210   0.00000  Uiso   1.00
C862   C     0.81182   0.30834   0.71790   0.00000  Uiso   1.00
N863   N     0.83333   0.28402   0.75000   0.00000  Uiso   1.00
N864   N     0.83333   0.04931   0.75000   0.00000  Uiso   1.00
C865   C     0.73652   0.09477   0.94909   0.00000  Uiso   1.00
H866   H     0.72309   0.10996   0.91917   0.00000  Uiso   1.00
O867   O     0.72342   0.05745   0.96131   0.00000  Uiso   1.00
C868   C     0.93013   0.23859   0.55091   0.00000  Uiso   1.00
H869   H     0.94357   0.22340   0.58083   0.00000  Uiso   1.00
O870   O     0.94321   0.27593   0.53870   0.00000  Uiso   1.00
N871   N     0.73876   0.09563   0.54434   0.00000  Uiso   1.00
O872   O     0.70158   0.11243   0.54277   0.00000  Uiso   1.00
O873   O     0.74598   0.05677   0.56476   0.00000  Uiso   1.00
N874   N     0.92791   0.23771   0.95566   0.00000  Uiso   1.00
O875   O     0.92067   0.27655   0.93521   0.00000  Uiso   1.00
O876   O     0.96510   0.22095   0.95729   0.00000  Uiso   1.00
N877   N     0.79040   0.04769   0.68260   0.00000  Uiso   1.00
O878   O     0.80535   0.04631   0.64284   0.00000  Uiso   1.00
O879   O     0.75180   0.05811   0.68706   0.00000  Uiso   1.00
N880   N     0.87627   0.28564   0.81740   0.00000  Uiso   1.00
O881   O     0.86131   0.28702   0.85716   0.00000  Uiso   1.00
O882   O     0.91487   0.27522   0.81294   0.00000  Uiso   1.00
N883   N     0.87855   0.04902   0.81577   0.00000  Uiso   1.00
O884   O     0.91742   0.05642   0.80955   0.00000  Uiso   1.00
O885   O     0.86496   0.05128   0.85612   0.00000  Uiso   1.00
N886   N     0.78812   0.28431   0.68423   0.00000  Uiso   1.00
O887   O     0.74925   0.27692   0.69046   0.00000  Uiso   1.00
O888   O     0.80171   0.28205   0.64388   0.00000  Uiso   1.00
O889   O     0.10655   0.53958   0.75000   0.00000  Uiso   1.00
O890   O     0.22679   0.46042   0.75001   0.00000  Uiso   1.00
O891   O     0.22679   0.53958   0.75001   0.00000  Uiso   1.00
O892   O     0.10655   0.46042   0.75000   0.00000  Uiso   1.00
C893   C     0.08746   0.50001   0.75021   0.00000  Uiso   1.00
C894   C     0.24588   0.49998   0.74979   0.00000  Uiso   1.00
O895   O     0.16666   0.53960   0.68513   0.00000  Uiso   1.00
O896   O     0.16668   0.46040   0.81487   0.00000  Uiso   1.00
O897   O     0.16668   0.53960   0.81487   0.00000  Uiso   1.00
O898   O     0.16666   0.46040   0.68513   0.00000  Uiso   1.00
C899   C     0.16642   0.49985   0.66456   0.00000  Uiso   1.00
C900   C     0.16692   0.50015   0.83544   0.00000  Uiso   1.00
Cu901  Cu    0.16667   0.54689   0.75000   0.00000  Uiso   1.00
Cu902  Cu    0.16667   0.45311   0.75000   0.00000  Uiso   1.00
C903   C     0.19702   0.52445   0.90769   0.00000  Uiso   1.00
C904   C     0.13632   0.47555   0.59232   0.00000  Uiso   1.00
C905   C     0.16671   0.50036   0.88366   0.00000  Uiso   1.00
C906   C     0.16662   0.49964   0.61634   0.00000  Uiso   1.00
C907   C     0.13646   0.47582   0.90530   0.00000  Uiso   1.00
C908   C     0.19687   0.52418   0.59471   0.00000  Uiso   1.00
C909   C     0.13504   0.47618   0.95198   0.00000  Uiso   1.00
C910   C     0.19829   0.52382   0.54802   0.00000  Uiso   1.00
C911   C     0.16638   0.50035   0.97662   0.00000  Uiso   1.00
C912   C     0.16696   0.49965   0.52338   0.00000  Uiso   1.00
C913   C     0.19742   0.52485   0.95430   0.00000  Uiso   1.00
C914   C     0.13591   0.47515   0.54570   0.00000  Uiso   1.00
C915   C     0.10373   0.45222   0.97438   0.00000  Uiso   1.00
C916   C     0.22960   0.54779   0.52562   0.00000  Uiso   1.00
C917   C     0.10444   0.45172   0.52134   0.00000  Uiso   1.00
C918   C     0.22889   0.54828   0.97866   0.00000  Uiso   1.00
H919   H     0.22088   0.54161   0.88953   0.00000  Uiso   1.00
H920   H     0.11245   0.45839   0.61048   0.00000  Uiso   1.00
H921   H     0.11428   0.45668   0.88495   0.00000  Uiso   1.00
H922   H     0.21905   0.54332   0.61505   0.00000  Uiso   1.00
C923   C     0.02131   0.45792   0.74927   0.00000  Uiso   1.00
C924   C     0.31202   0.54208   0.75073   0.00000  Uiso   1.00
C925   C     0.31207   0.45792   0.74852   0.00000  Uiso   1.00
C926   C     0.02127   0.54208   0.75148   0.00000  Uiso   1.00
H927   H     0.03724   0.42497   0.74897   0.00000  Uiso   1.00
H928   H     0.29609   0.57503   0.75103   0.00000  Uiso   1.00
H929   H     0.29616   0.42499   0.74701   0.00000  Uiso   1.00
H930   H     0.03717   0.57501   0.75299   0.00000  Uiso   1.00
C931   C     0.29054   0.49999   0.74957   0.00000  Uiso   1.00
C932   C     0.04279   0.50001   0.75043   0.00000  Uiso   1.00
C933   C     0.14534   0.35770   0.71779   0.00000  Uiso   1.00
C934   C     0.18800   0.64230   0.78221   0.00000  Uiso   1.00
C935   C     0.18818   0.35833   0.78210   0.00000  Uiso   1.00
C936   C     0.14515   0.64167   0.71790   0.00000  Uiso   1.00
N937   N     0.16667   0.61736   0.75000   0.00000  Uiso   1.00
N938   N     0.16667   0.38264   0.75000   0.00000  Uiso   1.00
C939   C     0.06985   0.42810   0.94909   0.00000  Uiso   1.00
H940   H     0.05642   0.44330   0.91917   0.00000  Uiso   1.00
O941   O     0.05675   0.39078   0.96131   0.00000  Uiso   1.00
C942   C     0.26347   0.57193   0.55091   0.00000  Uiso   1.00
H943   H     0.27691   0.55674   0.58083   0.00000  Uiso   1.00
O944   O     0.27655   0.60926   0.53870   0.00000  Uiso   1.00
N945   N     0.07209   0.42896   0.54434   0.00000  Uiso   1.00
O946   O     0.03491   0.44576   0.54277   0.00000  Uiso   1.00
O947   O     0.07932   0.39011   0.56476   0.00000  Uiso   1.00
N948   N     0.26124   0.57104   0.95566   0.00000  Uiso   1.00
O949   O     0.25401   0.60988   0.93521   0.00000  Uiso   1.00
O950   O     0.29843   0.55428   0.95729   0.00000  Uiso   1.00
N951   N     0.12373   0.38103   0.68260   0.00000  Uiso   1.00
O952   O     0.13869   0.37965   0.64284   0.00000  Uiso   1.00
O953   O     0.08513   0.39145   0.68706   0.00000  Uiso   1.00
N954   N     0.20960   0.61897   0.81740   0.00000  Uiso   1.00
O955   O     0.19464   0.62035   0.85716   0.00000  Uiso   1.00
O956   O     0.24820   0.60855   0.81294   0.00000  Uiso   1.00
N957   N     0.21188   0.38236   0.81577   0.00000  Uiso   1.00
O958   O     0.25075   0.38975   0.80955   0.00000  Uiso   1.00
O959   O     0.19829   0.38462   0.85612   0.00000  Uiso   1.00
N960   N     0.12145   0.61764   0.68423   0.00000  Uiso   1.00
O961   O     0.08258   0.61025   0.69046   0.00000  Uiso   1.00
O962   O     0.13504   0.61538   0.64388   0.00000  Uiso   1.00
O963   O     0.43988   0.53958   0.75000   0.00000  Uiso   1.00
O964   O     0.56012   0.46042   0.75001   0.00000  Uiso   1.00
O965   O     0.56012   0.53958   0.75001   0.00000  Uiso   1.00
O966   O     0.43988   0.46042   0.75000   0.00000  Uiso   1.00
C967   C     0.42079   0.50001   0.75021   0.00000  Uiso   1.00
C968   C     0.57921   0.49998   0.74979   0.00000  Uiso   1.00
O969   O     0.49999   0.53960   0.68513   0.00000  Uiso   1.00
O970   O     0.50001   0.46040   0.81487   0.00000  Uiso   1.00
O971   O     0.50001   0.53960   0.81487   0.00000  Uiso   1.00
O972   O     0.49999   0.46040   0.68513   0.00000  Uiso   1.00
C973   C     0.49975   0.49985   0.66456   0.00000  Uiso   1.00
C974   C     0.50025   0.50015   0.83544   0.00000  Uiso   1.00
Cu975  Cu    0.50000   0.54689   0.75000   0.00000  Uiso   1.00
Cu976  Cu    0.50000   0.45311   0.75000   0.00000  Uiso   1.00
C977   C     0.53035   0.52445   0.90769   0.00000  Uiso   1.00
C978   C     0.46965   0.47555   0.59232   0.00000  Uiso   1.00
C979   C     0.50004   0.50036   0.88366   0.00000  Uiso   1.00
C980   C     0.49996   0.49964   0.61634   0.00000  Uiso   1.00
C981   C     0.46980   0.47582   0.90530   0.00000  Uiso   1.00
C982   C     0.53020   0.52418   0.59471   0.00000  Uiso   1.00
C983   C     0.46838   0.47618   0.95198   0.00000  Uiso   1.00
C984   C     0.53162   0.52382   0.54802   0.00000  Uiso   1.00
C985   C     0.49971   0.50035   0.97662   0.00000  Uiso   1.00
C986   C     0.50029   0.49965   0.52338   0.00000  Uiso   1.00
C987   C     0.53076   0.52485   0.95430   0.00000  Uiso   1.00
C988   C     0.46924   0.47515   0.54570   0.00000  Uiso   1.00
C989   C     0.43707   0.45222   0.97438   0.00000  Uiso   1.00
C990   C     0.56293   0.54779   0.52562   0.00000  Uiso   1.00
C991   C     0.43778   0.45172   0.52134   0.00000  Uiso   1.00
C992   C     0.56222   0.54828   0.97866   0.00000  Uiso   1.00
H993   H     0.55422   0.54161   0.88953   0.00000  Uiso   1.00
H994   H     0.44579   0.45839   0.61048   0.00000  Uiso   1.00
H995   H     0.44762   0.45668   0.88495   0.00000  Uiso   1.00
H996   H     0.55238   0.54332   0.61505   0.00000  Uiso   1.00
C997   C     0.35464   0.45792   0.74927   0.00000  Uiso   1.00
C998   C     0.64536   0.54208   0.75073   0.00000  Uiso   1.00
C999   C     0.64540   0.45792   0.74852   0.00000  Uiso   1.00
C1000  C     0.35460   0.54208   0.75148   0.00000  Uiso   1.00
H1001  H     0.37057   0.42497   0.74897   0.00000  Uiso   1.00
H1002  H     0.62943   0.57503   0.75103   0.00000  Uiso   1.00
H1003  H     0.62950   0.42499   0.74701   0.00000  Uiso   1.00
H1004  H     0.37050   0.57501   0.75299   0.00000  Uiso   1.00
C1005  C     0.62387   0.49999   0.74957   0.00000  Uiso   1.00
C1006  C     0.37613   0.50001   0.75043   0.00000  Uiso   1.00
C1007  C     0.47867   0.35770   0.71779   0.00000  Uiso   1.00
C1008  C     0.52133   0.64230   0.78221   0.00000  Uiso   1.00
C1009  C     0.52151   0.35833   0.78210   0.00000  Uiso   1.00
C1010  C     0.47849   0.64167   0.71790   0.00000  Uiso   1.00
N1011  N     0.50000   0.61736   0.75000   0.00000  Uiso   1.00
N1012  N     0.50000   0.38264   0.75000   0.00000  Uiso   1.00
C1013  C     0.40318   0.42810   0.94909   0.00000  Uiso   1.00
H1014  H     0.38975   0.44330   0.91917   0.00000  Uiso   1.00
O1015  O     0.39008   0.39078   0.96131   0.00000  Uiso   1.00
C1016  C     0.59680   0.57193   0.55091   0.00000  Uiso   1.00
H1017  H     0.61024   0.55674   0.58083   0.00000  Uiso   1.00
O1018  O     0.60988   0.60926   0.53870   0.00000  Uiso   1.00
N1019  N     0.40543   0.42896   0.54434   0.00000  Uiso   1.00
O1020  O     0.36825   0.44576   0.54277   0.00000  Uiso   1.00
O1021  O     0.41265   0.39011   0.56476   0.00000  Uiso   1.00
N1022  N     0.59458   0.57104   0.95566   0.00000  Uiso   1.00
O1023  O     0.58734   0.60988   0.93521   0.00000  Uiso   1.00
O1024  O     0.63177   0.55428   0.95729   0.00000  Uiso   1.00
N1025  N     0.45706   0.38103   0.68260   0.00000  Uiso   1.00
O1026  O     0.47202   0.37965   0.64284   0.00000  Uiso   1.00
O1027  O     0.41846   0.39145   0.68706   0.00000  Uiso   1.00
N1028  N     0.54293   0.61897   0.81740   0.00000  Uiso   1.00
O1029  O     0.52798   0.62035   0.85716   0.00000  Uiso   1.00
O1030  O     0.58154   0.60855   0.81294   0.00000  Uiso   1.00
N1031  N     0.54522   0.38236   0.81577   0.00000  Uiso   1.00
O1032  O     0.58408   0.38975   0.80955   0.00000  Uiso   1.00
O1033  O     0.53162   0.38462   0.85612   0.00000  Uiso   1.00
N1034  N     0.45478   0.61764   0.68423   0.00000  Uiso   1.00
O1035  O     0.41591   0.61025   0.69046   0.00000  Uiso   1.00
O1036  O     0.46837   0.61538   0.64388   0.00000  Uiso   1.00
O1037  O     0.77321   0.53958   0.75000   0.00000  Uiso   1.00
O1038  O     0.89345   0.46042   0.75001   0.00000  Uiso   1.00
O1039  O     0.89345   0.53958   0.75001   0.00000  Uiso   1.00
O1040  O     0.77321   0.46042   0.75000   0.00000  Uiso   1.00
C1041  C     0.75412   0.50001   0.75021   0.00000  Uiso   1.00
C1042  C     0.91254   0.49998   0.74979   0.00000  Uiso   1.00
O1043  O     0.83332   0.53960   0.68513   0.00000  Uiso   1.00
O1044  O     0.83334   0.46040   0.81487   0.00000  Uiso   1.00
O1045  O     0.83334   0.53960   0.81487   0.00000  Uiso   1.00
O1046  O     0.83332   0.46040   0.68513   0.00000  Uiso   1.00
C1047  C     0.83308   0.49985   0.66456   0.00000  Uiso   1.00
C1048  C     0.83358   0.50015   0.83544   0.00000  Uiso   1.00
Cu1049 Cu    0.83333   0.54689   0.75000   0.00000  Uiso   1.00
Cu1050 Cu    0.83333   0.45311   0.75000   0.00000  Uiso   1.00
C1051  C     0.86369   0.52445   0.90769   0.00000  Uiso   1.00
C1052  C     0.80298   0.47555   0.59232   0.00000  Uiso   1.00
C1053  C     0.83338   0.50036   0.88366   0.00000  Uiso   1.00
C1054  C     0.83329   0.49964   0.61634   0.00000  Uiso   1.00
C1055  C     0.80313   0.47582   0.90530   0.00000  Uiso   1.00
C1056  C     0.86354   0.52418   0.59471   0.00000  Uiso   1.00
C1057  C     0.80171   0.47618   0.95198   0.00000  Uiso   1.00
C1058  C     0.86496   0.52382   0.54802   0.00000  Uiso   1.00
C1059  C     0.83305   0.50035   0.97662   0.00000  Uiso   1.00
C1060  C     0.83362   0.49965   0.52338   0.00000  Uiso   1.00
C1061  C     0.86409   0.52485   0.95430   0.00000  Uiso   1.00
C1062  C     0.80258   0.47515   0.54570   0.00000  Uiso   1.00
C1063  C     0.77040   0.45222   0.97438   0.00000  Uiso   1.00
C1064  C     0.89626   0.54779   0.52562   0.00000  Uiso   1.00
C1065  C     0.77111   0.45172   0.52134   0.00000  Uiso   1.00
C1066  C     0.89556   0.54828   0.97866   0.00000  Uiso   1.00
H1067  H     0.88755   0.54161   0.88953   0.00000  Uiso   1.00
H1068  H     0.77912   0.45839   0.61048   0.00000  Uiso   1.00
H1069  H     0.78095   0.45668   0.88495   0.00000  Uiso   1.00
H1070  H     0.88571   0.54332   0.61505   0.00000  Uiso   1.00
C1071  C     0.68797   0.45792   0.74927   0.00000  Uiso   1.00
C1072  C     0.97869   0.54208   0.75073   0.00000  Uiso   1.00
C1073  C     0.97873   0.45792   0.74852   0.00000  Uiso   1.00
C1074  C     0.68793   0.54208   0.75148   0.00000  Uiso   1.00
H1075  H     0.70391   0.42497   0.74897   0.00000  Uiso   1.00
H1076  H     0.96276   0.57503   0.75103   0.00000  Uiso   1.00
H1077  H     0.96283   0.42499   0.74701   0.00000  Uiso   1.00
H1078  H     0.70384   0.57501   0.75299   0.00000  Uiso   1.00
C1079  C     0.95721   0.49999   0.74957   0.00000  Uiso   1.00
C1080  C     0.70946   0.50001   0.75043   0.00000  Uiso   1.00
C1081  C     0.81200   0.35770   0.71779   0.00000  Uiso   1.00
C1082  C     0.85466   0.64230   0.78221   0.00000  Uiso   1.00
C1083  C     0.85484   0.35833   0.78210   0.00000  Uiso   1.00
C1084  C     0.81182   0.64167   0.71790   0.00000  Uiso   1.00
N1085  N     0.83333   0.61736   0.75000   0.00000  Uiso   1.00
N1086  N     0.83333   0.38264   0.75000   0.00000  Uiso   1.00
C1087  C     0.73652   0.42810   0.94909   0.00000  Uiso   1.00
H1088  H     0.72309   0.44330   0.91917   0.00000  Uiso   1.00
O1089  O     0.72342   0.39078   0.96131   0.00000  Uiso   1.00
C1090  C     0.93013   0.57193   0.55091   0.00000  Uiso   1.00
H1091  H     0.94357   0.55674   0.58083   0.00000  Uiso   1.00
O1092  O     0.94321   0.60926   0.53870   0.00000  Uiso   1.00
N1093  N     0.73876   0.42896   0.54434   0.00000  Uiso   1.00
O1094  O     0.70158   0.44576   0.54277   0.00000  Uiso   1.00
O1095  O     0.74598   0.39011   0.56476   0.00000  Uiso   1.00
N1096  N     0.92791   0.57104   0.95566   0.00000  Uiso   1.00
O1097  O     0.92067   0.60988   0.93521   0.00000  Uiso   1.00
O1098  O     0.96510   0.55428   0.95729   0.00000  Uiso   1.00
N1099  N     0.79040   0.38103   0.68260   0.00000  Uiso   1.00
O1100  O     0.80535   0.37965   0.64284   0.00000  Uiso   1.00
O1101  O     0.75180   0.39145   0.68706   0.00000  Uiso   1.00
N1102  N     0.87627   0.61897   0.81740   0.00000  Uiso   1.00
O1103  O     0.86131   0.62035   0.85716   0.00000  Uiso   1.00
O1104  O     0.91487   0.60855   0.81294   0.00000  Uiso   1.00
N1105  N     0.87855   0.38236   0.81577   0.00000  Uiso   1.00
O1106  O     0.91742   0.38975   0.80955   0.00000  Uiso   1.00
O1107  O     0.86496   0.38462   0.85612   0.00000  Uiso   1.00
N1108  N     0.78812   0.61764   0.68423   0.00000  Uiso   1.00
O1109  O     0.74925   0.61025   0.69046   0.00000  Uiso   1.00
O1110  O     0.80171   0.61538   0.64388   0.00000  Uiso   1.00
O1111  O     0.10655   0.87291   0.75000   0.00000  Uiso   1.00
O1112  O     0.22679   0.79375   0.75001   0.00000  Uiso   1.00
O1113  O     0.22679   0.87291   0.75001   0.00000  Uiso   1.00
O1114  O     0.10655   0.79375   0.75000   0.00000  Uiso   1.00
C1115  C     0.08746   0.83335   0.75021   0.00000  Uiso   1.00
C1116  C     0.24588   0.83332   0.74979   0.00000  Uiso   1.00
O1117  O     0.16666   0.87293   0.68513   0.00000  Uiso   1.00
O1118  O     0.16668   0.79373   0.81487   0.00000  Uiso   1.00
O1119  O     0.16668   0.87293   0.81487   0.00000  Uiso   1.00
O1120  O     0.16666   0.79373   0.68513   0.00000  Uiso   1.00
C1121  C     0.16642   0.83319   0.66456   0.00000  Uiso   1.00
C1122  C     0.16692   0.83348   0.83544   0.00000  Uiso   1.00
Cu1123 Cu    0.16667   0.88022   0.75000   0.00000  Uiso   1.00
Cu1124 Cu    0.16667   0.78645   0.75000   0.00000  Uiso   1.00
C1125  C     0.19702   0.85778   0.90769   0.00000  Uiso   1.00
C1126  C     0.13632   0.80888   0.59232   0.00000  Uiso   1.00
C1127  C     0.16671   0.83369   0.88366   0.00000  Uiso   1.00
C1128  C     0.16662   0.83298   0.61634   0.00000  Uiso   1.00
C1129  C     0.13646   0.80916   0.90530   0.00000  Uiso   1.00
C1130  C     0.19687   0.85752   0.59471   0.00000  Uiso   1.00
C1131  C     0.13504   0.80952   0.95198   0.00000  Uiso   1.00
C1132  C     0.19829   0.85716   0.54802   0.00000  Uiso   1.00
C1133  C     0.16638   0.83369   0.97662   0.00000  Uiso   1.00
C1134  C     0.16696   0.83298   0.52338   0.00000  Uiso   1.00
C1135  C     0.19742   0.85818   0.95430   0.00000  Uiso   1.00
C1136  C     0.13591   0.80849   0.54570   0.00000  Uiso   1.00
C1137  C     0.10373   0.78555   0.97438   0.00000  Uiso   1.00
C1138  C     0.22960   0.88112   0.52562   0.00000  Uiso   1.00
C1139  C     0.10444   0.78506   0.52134   0.00000  Uiso   1.00
C1140  C     0.22889   0.88162   0.97866   0.00000  Uiso   1.00
H1141  H     0.22088   0.87494   0.88953   0.00000  Uiso   1.00
H1142  H     0.11245   0.79172   0.61048   0.00000  Uiso   1.00
H1143  H     0.11428   0.79002   0.88495   0.00000  Uiso   1.00
H1144  H     0.21905   0.87666   0.61505   0.00000  Uiso   1.00
C1145  C     0.02131   0.79125   0.74927   0.00000  Uiso   1.00
C1146  C     0.31202   0.87541   0.75073   0.00000  Uiso   1.00
C1147  C     0.31207   0.79125   0.74852   0.00000  Uiso   1.00
C1148  C     0.02127   0.87542   0.75148   0.00000  Uiso   1.00
H1149  H     0.03724   0.75830   0.74897   0.00000  Uiso   1.00
H1150  H     0.29609   0.90837   0.75103   0.00000  Uiso   1.00
H1151  H     0.29616   0.75832   0.74701   0.00000  Uiso   1.00
H1152  H     0.03717   0.90835   0.75299   0.00000  Uiso   1.00
C1153  C     0.29054   0.83332   0.74957   0.00000  Uiso   1.00
C1154  C     0.04279   0.83334   0.75043   0.00000  Uiso   1.00
C1155  C     0.14534   0.69103   0.71779   0.00000  Uiso   1.00
C1156  C     0.18800   0.97564   0.78221   0.00000  Uiso   1.00
C1157  C     0.18818   0.69166   0.78210   0.00000  Uiso   1.00
C1158  C     0.14515   0.97501   0.71790   0.00000  Uiso   1.00
N1159  N     0.16667   0.95069   0.75000   0.00000  Uiso   1.00
N1160  N     0.16667   0.71598   0.75000   0.00000  Uiso   1.00
C1161  C     0.06985   0.76143   0.94909   0.00000  Uiso   1.00
H1162  H     0.05642   0.77663   0.91917   0.00000  Uiso   1.00
O1163  O     0.05675   0.72411   0.96131   0.00000  Uiso   1.00
C1164  C     0.26347   0.90526   0.55091   0.00000  Uiso   1.00
H1165  H     0.27691   0.89007   0.58083   0.00000  Uiso   1.00
O1166  O     0.27655   0.94259   0.53870   0.00000  Uiso   1.00
N1167  N     0.07209   0.76230   0.54434   0.00000  Uiso   1.00
O1168  O     0.03491   0.77910   0.54277   0.00000  Uiso   1.00
O1169  O     0.07932   0.72344   0.56476   0.00000  Uiso   1.00
N1170  N     0.26124   0.90438   0.95566   0.00000  Uiso   1.00
O1171  O     0.25401   0.94321   0.93521   0.00000  Uiso   1.00
O1172  O     0.29843   0.88761   0.95729   0.00000  Uiso   1.00
N1173  N     0.12373   0.71436   0.68260   0.00000  Uiso   1.00
O1174  O     0.13869   0.71298   0.64284   0.00000  Uiso   1.00
O1175  O     0.08513   0.72478   0.68706   0.00000  Uiso   1.00
N1176  N     0.20960   0.95231   0.81740   0.00000  Uiso   1.00
O1177  O     0.19464   0.95369   0.85716   0.00000  Uiso   1.00
O1178  O     0.24820   0.94189   0.81294   0.00000  Uiso   1.00
N1179  N     0.21188   0.71569   0.81577   0.00000  Uiso   1.00
O1180  O     0.25075   0.72308   0.80955   0.00000  Uiso   1.00
O1181  O     0.19829   0.71795   0.85612   0.00000  Uiso   1.00
N1182  N     0.12145   0.95098   0.68423   0.00000  Uiso   1.00
O1183  O     0.08258   0.94359   0.69046   0.00000  Uiso   1.00
O1184  O     0.13504   0.94871   0.64388   0.00000  Uiso   1.00
O1185  O     0.43988   0.87291   0.75000   0.00000  Uiso   1.00
O1186  O     0.56012   0.79375   0.75001   0.00000  Uiso   1.00
O1187  O     0.56012   0.87291   0.75001   0.00000  Uiso   1.00
O1188  O     0.43988   0.79375   0.75000   0.00000  Uiso   1.00
C1189  C     0.42079   0.83335   0.75021   0.00000  Uiso   1.00
C1190  C     0.57921   0.83332   0.74979   0.00000  Uiso   1.00
O1191  O     0.49999   0.87293   0.68513   0.00000  Uiso   1.00
O1192  O     0.50001   0.79373   0.81487   0.00000  Uiso   1.00
O1193  O     0.50001   0.87293   0.81487   0.00000  Uiso   1.00
O1194  O     0.49999   0.79373   0.68513   0.00000  Uiso   1.00
C1195  C     0.49975   0.83319   0.66456   0.00000  Uiso   1.00
C1196  C     0.50025   0.83348   0.83544   0.00000  Uiso   1.00
Cu1197 Cu    0.50000   0.88022   0.75000   0.00000  Uiso   1.00
Cu1198 Cu    0.50000   0.78645   0.75000   0.00000  Uiso   1.00
C1199  C     0.53035   0.85778   0.90769   0.00000  Uiso   1.00
C1200  C     0.46965   0.80888   0.59232   0.00000  Uiso   1.00
C1201  C     0.50004   0.83369   0.88366   0.00000  Uiso   1.00
C1202  C     0.49996   0.83298   0.61634   0.00000  Uiso   1.00
C1203  C     0.46980   0.80916   0.90530   0.00000  Uiso   1.00
C1204  C     0.53020   0.85752   0.59471   0.00000  Uiso   1.00
C1205  C     0.46838   0.80952   0.95198   0.00000  Uiso   1.00
C1206  C     0.53162   0.85716   0.54802   0.00000  Uiso   1.00
C1207  C     0.49971   0.83369   0.97662   0.00000  Uiso   1.00
C1208  C     0.50029   0.83298   0.52338   0.00000  Uiso   1.00
C1209  C     0.53076   0.85818   0.95430   0.00000  Uiso   1.00
C1210  C     0.46924   0.80849   0.54570   0.00000  Uiso   1.00
C1211  C     0.43707   0.78555   0.97438   0.00000  Uiso   1.00
C1212  C     0.56293   0.88112   0.52562   0.00000  Uiso   1.00
C1213  C     0.43778   0.78506   0.52134   0.00000  Uiso   1.00
C1214  C     0.56222   0.88162   0.97866   0.00000  Uiso   1.00
H1215  H     0.55422   0.87494   0.88953   0.00000  Uiso   1.00
H1216  H     0.44579   0.79172   0.61048   0.00000  Uiso   1.00
H1217  H     0.44762   0.79002   0.88495   0.00000  Uiso   1.00
H1218  H     0.55238   0.87666   0.61505   0.00000  Uiso   1.00
C1219  C     0.35464   0.79125   0.74927   0.00000  Uiso   1.00
C1220  C     0.64536   0.87541   0.75073   0.00000  Uiso   1.00
C1221  C     0.64540   0.79125   0.74852   0.00000  Uiso   1.00
C1222  C     0.35460   0.87542   0.75148   0.00000  Uiso   1.00
H1223  H     0.37057   0.75830   0.74897   0.00000  Uiso   1.00
H1224  H     0.62943   0.90837   0.75103   0.00000  Uiso   1.00
H1225  H     0.62950   0.75832   0.74701   0.00000  Uiso   1.00
H1226  H     0.37050   0.90835   0.75299   0.00000  Uiso   1.00
C1227  C     0.62387   0.83332   0.74957   0.00000  Uiso   1.00
C1228  C     0.37613   0.83334   0.75043   0.00000  Uiso   1.00
C1229  C     0.47867   0.69103   0.71779   0.00000  Uiso   1.00
C1230  C     0.52133   0.97564   0.78221   0.00000  Uiso   1.00
C1231  C     0.52151   0.69166   0.78210   0.00000  Uiso   1.00
C1232  C     0.47849   0.97501   0.71790   0.00000  Uiso   1.00
N1233  N     0.50000   0.95069   0.75000   0.00000  Uiso   1.00
N1234  N     0.50000   0.71598   0.75000   0.00000  Uiso   1.00
C1235  C     0.40318   0.76143   0.94909   0.00000  Uiso   1.00
H1236  H     0.38975   0.77663   0.91917   0.00000  Uiso   1.00
O1237  O     0.39008   0.72411   0.96131   0.00000  Uiso   1.00
C1238  C     0.59680   0.90526   0.55091   0.00000  Uiso   1.00
H1239  H     0.61024   0.89007   0.58083   0.00000  Uiso   1.00
O1240  O     0.60988   0.94259   0.53870   0.00000  Uiso   1.00
N1241  N     0.40543   0.76230   0.54434   0.00000  Uiso   1.00
O1242  O     0.36825   0.77910   0.54277   0.00000  Uiso   1.00
O1243  O     0.41265   0.72344   0.56476   0.00000  Uiso   1.00
N1244  N     0.59458   0.90438   0.95566   0.00000  Uiso   1.00
O1245  O     0.58734   0.94321   0.93521   0.00000  Uiso   1.00
O1246  O     0.63177   0.88761   0.95729   0.00000  Uiso   1.00
N1247  N     0.45706   0.71436   0.68260   0.00000  Uiso   1.00
O1248  O     0.47202   0.71298   0.64284   0.00000  Uiso   1.00
O1249  O     0.41846   0.72478   0.68706   0.00000  Uiso   1.00
N1250  N     0.54293   0.95231   0.81740   0.00000  Uiso   1.00
O1251  O     0.52798   0.95369   0.85716   0.00000  Uiso   1.00
O1252  O     0.58154   0.94189   0.81294   0.00000  Uiso   1.00
N1253  N     0.54522   0.71569   0.81577   0.00000  Uiso   1.00
O1254  O     0.58408   0.72308   0.80955   0.00000  Uiso   1.00
O1255  O     0.53162   0.71795   0.85612   0.00000  Uiso   1.00
N1256  N     0.45478   0.95098   0.68423   0.00000  Uiso   1.00
O1257  O     0.41591   0.94359   0.69046   0.00000  Uiso   1.00
O1258  O     0.46837   0.94871   0.64388   0.00000  Uiso   1.00
O1259  O     0.77321   0.87291   0.75000   0.00000  Uiso   1.00
O1260  O     0.89345   0.79375   0.75001   0.00000  Uiso   1.00
O1261  O     0.89345   0.87291   0.75001   0.00000  Uiso   1.00
O1262  O     0.77321   0.79375   0.75000   0.00000  Uiso   1.00
C1263  C     0.75412   0.83335   0.75021   0.00000  Uiso   1.00
C1264  C     0.91254   0.83332   0.74979   0.00000  Uiso   1.00
O1265  O     0.83332   0.87293   0.68513   0.00000  Uiso   1.00
O1266  O     0.83334   0.79373   0.81487   0.00000  Uiso   1.00
O1267  O     0.83334   0.87293   0.81487   0.00000  Uiso   1.00
O1268  O     0.83332   0.79373   0.68513   0.00000  Uiso   1.00
C1269  C     0.83308   0.83319   0.66456   0.00000  Uiso   1.00
C1270  C     0.83358   0.83348   0.83544   0.00000  Uiso   1.00
Cu1271 Cu    0.83333   0.88022   0.75000   0.00000  Uiso   1.00
Cu1272 Cu    0.83333   0.78645   0.75000   0.00000  Uiso   1.00
C1273  C     0.86369   0.85778   0.90769   0.00000  Uiso   1.00
C1274  C     0.80298   0.80888   0.59232   0.00000  Uiso   1.00
C1275  C     0.83338   0.83369   0.88366   0.00000  Uiso   1.00
C1276  C     0.83329   0.83298   0.61634   0.00000  Uiso   1.00
C1277  C     0.80313   0.80916   0.90530   0.00000  Uiso   1.00
C1278  C     0.86354   0.85752   0.59471   0.00000  Uiso   1.00
C1279  C     0.80171   0.80952   0.95198   0.00000  Uiso   1.00
C1280  C     0.86496   0.85716   0.54802   0.00000  Uiso   1.00
C1281  C     0.83305   0.83369   0.97662   0.00000  Uiso   1.00
C1282  C     0.83362   0.83298   0.52338   0.00000  Uiso   1.00
C1283  C     0.86409   0.85818   0.95430   0.00000  Uiso   1.00
C1284  C     0.80258   0.80849   0.54570   0.00000  Uiso   1.00
C1285  C     0.77040   0.78555   0.97438   0.00000  Uiso   1.00
C1286  C     0.89626   0.88112   0.52562   0.00000  Uiso   1.00
C1287  C     0.77111   0.78506   0.52134   0.00000  Uiso   1.00
C1288  C     0.89556   0.88162   0.97866   0.00000  Uiso   1.00
H1289  H     0.88755   0.87494   0.88953   0.00000  Uiso   1.00
H1290  H     0.77912   0.79172   0.61048   0.00000  Uiso   1.00
H1291  H     0.78095   0.79002   0.88495   0.00000  Uiso   1.00
H1292  H     0.88571   0.87666   0.61505   0.00000  Uiso   1.00
C1293  C     0.68797   0.79125   0.74927   0.00000  Uiso   1.00
C1294  C     0.97869   0.87541   0.75073   0.00000  Uiso   1.00
C1295  C     0.97873   0.79125   0.74852   0.00000  Uiso   1.00
C1296  C     0.68793   0.87542   0.75148   0.00000  Uiso   1.00
H1297  H     0.70391   0.75830   0.74897   0.00000  Uiso   1.00
H1298  H     0.96276   0.90837   0.75103   0.00000  Uiso   1.00
H1299  H     0.96283   0.75832   0.74701   0.00000  Uiso   1.00
H1300  H     0.70384   0.90835   0.75299   0.00000  Uiso   1.00
C1301  C     0.95721   0.83332   0.74957   0.00000  Uiso   1.00
C1302  C     0.70946   0.83334   0.75043   0.00000  Uiso   1.00
C1303  C     0.81200   0.69103   0.71779   0.00000  Uiso   1.00
C1304  C     0.85466   0.97564   0.78221   0.00000  Uiso   1.00
C1305  C     0.85484   0.69166   0.78210   0.00000  Uiso   1.00
C1306  C     0.81182   0.97501   0.71790   0.00000  Uiso   1.00
N1307  N     0.83333   0.95069   0.75000   0.00000  Uiso   1.00
N1308  N     0.83333   0.71598   0.75000   0.00000  Uiso   1.00
C1309  C     0.73652   0.76143   0.94909   0.00000  Uiso   1.00
H1310  H     0.72309   0.77663   0.91917   0.00000  Uiso   1.00
O1311  O     0.72342   0.72411   0.96131   0.00000  Uiso   1.00
C1312  C     0.93013   0.90526   0.55091   0.00000  Uiso   1.00
H1313  H     0.94357   0.89007   0.58083   0.00000  Uiso   1.00
O1314  O     0.94321   0.94259   0.53870   0.00000  Uiso   1.00
N1315  N     0.73876   0.76230   0.54434   0.00000  Uiso   1.00
O1316  O     0.70158   0.77910   0.54277   0.00000  Uiso   1.00
O1317  O     0.74598   0.72344   0.56476   0.00000  Uiso   1.00
N1318  N     0.92791   0.90438   0.95566   0.00000  Uiso   1.00
O1319  O     0.92067   0.94321   0.93521   0.00000  Uiso   1.00
O1320  O     0.96510   0.88761   0.95729   0.00000  Uiso   1.00
N1321  N     0.79040   0.71436   0.68260   0.00000  Uiso   1.00
O1322  O     0.80535   0.71298   0.64284   0.00000  Uiso   1.00
O1323  O     0.75180   0.72478   0.68706   0.00000  Uiso   1.00
N1324  N     0.87627   0.95231   0.81740   0.00000  Uiso   1.00
O1325  O     0.86131   0.95369   0.85716   0.00000  Uiso   1.00
O1326  O     0.91487   0.94189   0.81294   0.00000  Uiso   1.00
N1327  N     0.87855   0.71569   0.81577   0.00000  Uiso   1.00
O1328  O     0.91742   0.72308   0.80955   0.00000  Uiso   1.00
O1329  O     0.86496   0.71795   0.85612   0.00000  Uiso   1.00
N1330  N     0.78812   0.95098   0.68423   0.00000  Uiso   1.00
O1331  O     0.74925   0.94359   0.69046   0.00000  Uiso   1.00
O1332  O     0.80171   0.94871   0.64388   0.00000  Uiso   1.00
loop_
_geom_bond_atom_site_label_1
_geom_bond_atom_site_label_2
_geom_bond_distance
_geom_bond_site_symmetry_2
_ccdc_geom_bond_type
O1     C5      1.300   .     A
O1     Cu13    1.965   .     S
O2     C6      1.300   .     A
O2     Cu14    1.965   .     S
O3     C6      1.299   .     A
O3     Cu13    1.965   .     S
O4     C5      1.299   .     A
O4     Cu14    1.965   .     S
C5     C44     1.451   .     S
C6     C43     1.451   .     S
O7     C11     1.297   .     A
O7     Cu13    1.957   .     S
O8     C12     1.297   .     A
O8     Cu14    1.957   .     S
O9     Cu13    1.961   .     S
O9     C12     1.300   .     A
O10    Cu14    1.961   .     S
O10    C11     1.300   .     A
C11    C18     1.448   .     S
C12    C17     1.448   .     S
Cu13   Cu14    2.705   .     S
Cu13   N49     2.033   .     S
Cu14   N50     2.033   .     S
C15    C25     1.399   .     A
C15    H31     1.082   .     S
C15    C17     1.389   .     A
C16    C26     1.399   .     A
C16    H32     1.082   .     S
C16    C18     1.389   .     A
C17    C19     1.390   .     A
C18    C20     1.390   .     A
C19    C21     1.403   .     A
C19    H33     1.081   .     S
C20    H34     1.081   .     S
C20    C22     1.403   .     A
C21    C27     1.418   .     A
C21    C23     1.422   .     A
C22    C28     1.418   .     A
C22    C24     1.422   .     A
C23    C25     1.418   .     A
C23    C690    1.404   .     S
C24    C26     1.418   .     A
C24    C689    1.404   1_554 S
C25    C30     1.411   .     A
C26    C29     1.411   .     A
C27    C51     1.490   .     S
C27    C695    1.409   .     S
C28    C54     1.490   .     S
C28    C696    1.409   1_554 S
C29    N57     1.435   .     S
C29    C693    1.409   1_554 S
C30    N60     1.436   .     S
C30    C694    1.409   .     S
C35    H39     1.082   .     S
C35    C44     1.401   .     A
C35    C185    1.383   1_455 S
C36    H40     1.082   .     S
C36    C43     1.401   .     A
C36    C112    1.383   .     S
C37    H41     1.082   .     S
C37    C43     1.401   .     A
C37    C109    1.383   .     S
C38    C44     1.401   .     A
C38    H42     1.082   .     S
C38    C184    1.383   1_455 S
C45    N63     1.427   .     S
C45    N50     1.373   .     A
C45    C492    1.424   1_545 S
C46    N49     1.373   .     A
C46    N66     1.427   .     S
C46    C269    1.424   .     S
C47    N69     1.429   .     S
C47    N50     1.373   .     A
C47    C490    1.424   1_545 S
C48    N72     1.429   .     S
C48    N49     1.373   .     A
C48    C267    1.424   .     S
C51    H52     1.084   .     S
C51    O53     1.221   .     D
C54    O56     1.221   .     D
C54    H55     1.084   .     S
N57    O58     1.301   .     A
N57    O59     1.301   .     A
N60    O62     1.301   .     A
N60    O61     1.301   .     A
N63    O65     1.300   .     A
N63    O64     1.300   .     A
N66    O68     1.300   .     A
N66    O67     1.301   .     A
N69    O71     1.301   .     A
N69    O70     1.300   .     A
N72    O74     1.301   .     A
N72    O73     1.300   .     A
O75    C79     1.300   .     A
O75    Cu87    1.965   .     S
O76    C80     1.300   .     A
O76    Cu88    1.965   .     S
O77    C80     1.299   .     A
O77    Cu87    1.965   .     S
O78    C79     1.299   .     A
O78    Cu88    1.965   .     S
C79    C118    1.451   .     S
C80    C117    1.451   .     S
O81    C85     1.297   .     A
O81    Cu87    1.957   .     S
O82    C86     1.297   .     A
O82    Cu88    1.957   .     S
O83    Cu87    1.961   .     S
O83    C86     1.300   .     A
O84    Cu88    1.961   .     S
O84    C85     1.300   .     A
C85    C92     1.448   .     S
C86    C91     1.448   .     S
Cu87   Cu88    2.705   .     S
Cu87   N123    2.033   .     S
Cu88   N124    2.033   .     S
C89    C99     1.399   .     A
C89    H105    1.082   .     S
C89    C91     1.389   .     A
C90    C100    1.399   .     A
C90    H106    1.082   .     S
C90    C92     1.389   .     A
C91    C93     1.390   .     A
C92    C94     1.390   .     A
C93    C95     1.403   .     A
C93    H107    1.081   .     S
C94    H108    1.081   .     S
C94    C96     1.403   .     A
C95    C101    1.418   .     A
C95    C97     1.422   .     A
C96    C102    1.418   .     A
C96    C98     1.422   .     A
C97    C99     1.418   .     A
C97    C764    1.404   .     S
C98    C100    1.418   .     A
C98    C763    1.404   1_554 S
C99    C104    1.411   .     A
C100   C103    1.411   .     A
C101   C125    1.490   .     S
C101   C769    1.409   .     S
C102   C128    1.490   .     S
C102   C770    1.409   1_554 S
C103   N131    1.435   .     S
C103   C767    1.409   1_554 S
C104   N134    1.436   .     S
C104   C768    1.409   .     S
C109   H113    1.082   .     S
C109   C118    1.401   .     A
C110   H114    1.082   .     S
C110   C117    1.401   .     A
C110   C186    1.383   .     S
C111   H115    1.082   .     S
C111   C117    1.401   .     A
C111   C183    1.383   .     S
C112   C118    1.401   .     A
C112   H116    1.082   .     S
C119   N137    1.427   .     S
C119   N124    1.373   .     A
C119   C566    1.424   1_545 S
C120   N123    1.373   .     A
C120   N140    1.427   .     S
C120   C343    1.424   .     S
C121   N143    1.429   .     S
C121   N124    1.373   .     A
C121   C564    1.424   1_545 S
C122   N146    1.429   .     S
C122   N123    1.373   .     A
C122   C341    1.424   .     S
C125   H126    1.084   .     S
C125   O127    1.221   .     D
C128   O130    1.221   .     D
C128   H129    1.084   .     S
N131   O132    1.301   .     A
N131   O133    1.301   .     A
N134   O136    1.301   .     A
N134   O135    1.301   .     A
N137   O139    1.300   .     A
N137   O138    1.300   .     A
N140   O142    1.300   .     A
N140   O141    1.301   .     A
N143   O145    1.301   .     A
N143   O144    1.300   .     A
N146   O148    1.301   .     A
N146   O147    1.300   .     A
O149   C153    1.300   .     A
O149   Cu161   1.965   .     S
O150   C154    1.300   .     A
O150   Cu162   1.965   .     S
O151   C154    1.299   .     A
O151   Cu161   1.965   .     S
O152   C153    1.299   .     A
O152   Cu162   1.965   .     S
C153   C192    1.451   .     S
C154   C191    1.451   .     S
O155   C159    1.297   .     A
O155   Cu161   1.957   .     S
O156   C160    1.297   .     A
O156   Cu162   1.957   .     S
O157   Cu161   1.961   .     S
O157   C160    1.300   .     A
O158   Cu162   1.961   .     S
O158   C159    1.300   .     A
C159   C166    1.448   .     S
C160   C165    1.448   .     S
Cu161  Cu162   2.705   .     S
Cu161  N197    2.033   .     S
Cu162  N198    2.033   .     S
C163   C173    1.399   .     A
C163   H179    1.082   .     S
C163   C165    1.389   .     A
C164   C174    1.399   .     A
C164   H180    1.082   .     S
C164   C166    1.389   .     A
C165   C167    1.390   .     A
C166   C168    1.390   .     A
C167   C169    1.403   .     A
C167   H181    1.081   .     S
C168   H182    1.081   .     S
C168   C170    1.403   .     A
C169   C175    1.418   .     A
C169   C171    1.422   .     A
C170   C176    1.418   .     A
C170   C172    1.422   .     A
C171   C173    1.418   .     A
C171   C838    1.404   .     S
C172   C174    1.418   .     A
C172   C837    1.404   1_554 S
C173   C178    1.411   .     A
C174   C177    1.411   .     A
C175   C199    1.490   .     S
C175   C843    1.409   .     S
C176   C202    1.490   .     S
C176   C844    1.409   1_554 S
C177   N205    1.435   .     S
C177   C841    1.409   1_554 S
C178   N208    1.436   .     S
C178   C842    1.409   .     S
C183   H187    1.082   .     S
C183   C192    1.401   .     A
C184   H188    1.082   .     S
C184   C191    1.401   .     A
C184   C38     1.383   1_655 S
C185   H189    1.082   .     S
C185   C191    1.401   .     A
C185   C35     1.383   1_655 S
C186   C192    1.401   .     A
C186   H190    1.082   .     S
C193   N211    1.427   .     S
C193   N198    1.373   .     A
C193   C640    1.424   1_545 S
C194   N197    1.373   .     A
C194   N214    1.427   .     S
C194   C417    1.424   .     S
C195   N217    1.429   .     S
C195   N198    1.373   .     A
C195   C638    1.424   1_545 S
C196   N220    1.429   .     S
C196   N197    1.373   .     A
C196   C415    1.424   .     S
C199   H200    1.084   .     S
C199   O201    1.221   .     D
C202   O204    1.221   .     D
C202   H203    1.084   .     S
N205   O206    1.301   .     A
N205   O207    1.301   .     A
N208   O210    1.301   .     A
N208   O209    1.301   .     A
N211   O213    1.300   .     A
N211   O212    1.300   .     A
N214   O216    1.300   .     A
N214   O215    1.301   .     A
N217   O219    1.301   .     A
N217   O218    1.300   .     A
N220   O222    1.301   .     A
N220   O221    1.300   .     A
O223   C227    1.300   .     A
O223   Cu235   1.965   .     S
O224   C228    1.300   .     A
O224   Cu236   1.965   .     S
O225   C228    1.299   .     A
O225   Cu235   1.965   .     S
O226   C227    1.299   .     A
O226   Cu236   1.965   .     S
C227   C266    1.451   .     S
C228   C265    1.451   .     S
O229   C233    1.297   .     A
O229   Cu235   1.957   .     S
O230   C234    1.297   .     A
O230   Cu236   1.957   .     S
O231   Cu235   1.961   .     S
O231   C234    1.300   .     A
O232   Cu236   1.961   .     S
O232   C233    1.300   .     A
C233   C240    1.448   .     S
C234   C239    1.448   .     S
Cu235  Cu236   2.705   .     S
Cu235  N271    2.033   .     S
Cu236  N272    2.033   .     S
C237   C247    1.399   .     A
C237   H253    1.082   .     S
C237   C239    1.389   .     A
C238   C248    1.399   .     A
C238   H254    1.082   .     S
C238   C240    1.389   .     A
C239   C241    1.390   .     A
C240   C242    1.390   .     A
C241   C243    1.403   .     A
C241   H255    1.081   .     S
C242   H256    1.081   .     S
C242   C244    1.403   .     A
C243   C249    1.418   .     A
C243   C245    1.422   .     A
C244   C250    1.418   .     A
C244   C246    1.422   .     A
C245   C247    1.418   .     A
C245   C912    1.404   .     S
C246   C248    1.418   .     A
C246   C911    1.404   1_554 S
C247   C252    1.411   .     A
C248   C251    1.411   .     A
C249   C273    1.490   .     S
C249   C917    1.409   .     S
C250   C276    1.490   .     S
C250   C918    1.409   1_554 S
C251   N279    1.435   .     S
C251   C915    1.409   1_554 S
C252   N282    1.436   .     S
C252   C916    1.409   .     S
C257   H261    1.082   .     S
C257   C266    1.401   .     A
C257   C407    1.383   1_455 S
C258   H262    1.082   .     S
C258   C265    1.401   .     A
C258   C334    1.383   .     S
C259   H263    1.082   .     S
C259   C265    1.401   .     A
C259   C331    1.383   .     S
C260   C266    1.401   .     A
C260   H264    1.082   .     S
C260   C406    1.383   1_455 S
C267   N285    1.427   .     S
C267   N272    1.373   .     A
C268   N271    1.373   .     A
C268   N288    1.427   .     S
C268   C491    1.424   .     S
C269   N291    1.429   .     S
C269   N272    1.373   .     A
C270   N294    1.429   .     S
C270   N271    1.373   .     A
C270   C489    1.424   .     S
C273   H274    1.084   .     S
C273   O275    1.221   .     D
C276   O278    1.221   .     D
C276   H277    1.084   .     S
N279   O280    1.301   .     A
N279   O281    1.301   .     A
N282   O284    1.301   .     A
N282   O283    1.301   .     A
N285   O287    1.300   .     A
N285   O286    1.300   .     A
N288   O290    1.300   .     A
N288   O289    1.301   .     A
N291   O293    1.301   .     A
N291   O292    1.300   .     A
N294   O296    1.301   .     A
N294   O295    1.300   .     A
O297   C301    1.300   .     A
O297   Cu309   1.965   .     S
O298   C302    1.300   .     A
O298   Cu310   1.965   .     S
O299   C302    1.299   .     A
O299   Cu309   1.965   .     S
O300   C301    1.299   .     A
O300   Cu310   1.965   .     S
C301   C340    1.451   .     S
C302   C339    1.451   .     S
O303   C307    1.297   .     A
O303   Cu309   1.957   .     S
O304   C308    1.297   .     A
O304   Cu310   1.957   .     S
O305   Cu309   1.961   .     S
O305   C308    1.300   .     A
O306   Cu310   1.961   .     S
O306   C307    1.300   .     A
C307   C314    1.448   .     S
C308   C313    1.448   .     S
Cu309  Cu310   2.705   .     S
Cu309  N345    2.033   .     S
Cu310  N346    2.033   .     S
C311   C321    1.399   .     A
C311   H327    1.082   .     S
C311   C313    1.389   .     A
C312   C322    1.399   .     A
C312   H328    1.082   .     S
C312   C314    1.389   .     A
C313   C315    1.390   .     A
C314   C316    1.390   .     A
C315   C317    1.403   .     A
C315   H329    1.081   .     S
C316   H330    1.081   .     S
C316   C318    1.403   .     A
C317   C323    1.418   .     A
C317   C319    1.422   .     A
C318   C324    1.418   .     A
C318   C320    1.422   .     A
C319   C321    1.418   .     A
C319   C986    1.404   .     S
C320   C322    1.418   .     A
C320   C985    1.404   1_554 S
C321   C326    1.411   .     A
C322   C325    1.411   .     A
C323   C347    1.490   .     S
C323   C991    1.409   .     S
C324   C350    1.490   .     S
C324   C992    1.409   1_554 S
C325   N353    1.435   .     S
C325   C989    1.409   1_554 S
C326   N356    1.436   .     S
C326   C990    1.409   .     S
C331   H335    1.082   .     S
C331   C340    1.401   .     A
C332   H336    1.082   .     S
C332   C339    1.401   .     A
C332   C408    1.383   .     S
C333   H337    1.082   .     S
C333   C339    1.401   .     A
C333   C405    1.383   .     S
C334   C340    1.401   .     A
C334   H338    1.082   .     S
C341   N359    1.427   .     S
C341   N346    1.373   .     A
C342   N345    1.373   .     A
C342   N362    1.427   .     S
C342   C565    1.424   .     S
C343   N365    1.429   .     S
C343   N346    1.373   .     A
C344   N368    1.429   .     S
C344   N345    1.373   .     A
C344   C563    1.424   .     S
C347   H348    1.084   .     S
C347   O349    1.221   .     D
C350   O352    1.221   .     D
C350   H351    1.084   .     S
N353   O354    1.301   .     A
N353   O355    1.301   .     A
N356   O358    1.301   .     A
N356   O357    1.301   .     A
N359   O361    1.300   .     A
N359   O360    1.300   .     A
N362   O364    1.300   .     A
N362   O363    1.301   .     A
N365   O367    1.301   .     A
N365   O366    1.300   .     A
N368   O370    1.301   .     A
N368   O369    1.300   .     A
O371   C375    1.300   .     A
O371   Cu383   1.965   .     S
O372   C376    1.300   .     A
O372   Cu384   1.965   .     S
O373   C376    1.299   .     A
O373   Cu383   1.965   .     S
O374   C375    1.299   .     A
O374   Cu384   1.965   .     S
C375   C414    1.451   .     S
C376   C413    1.451   .     S
O377   C381    1.297   .     A
O377   Cu383   1.957   .     S
O378   C382    1.297   .     A
O378   Cu384   1.957   .     S
O379   Cu383   1.961   .     S
O379   C382    1.300   .     A
O380   Cu384   1.961   .     S
O380   C381    1.300   .     A
C381   C388    1.448   .     S
C382   C387    1.448   .     S
Cu383  Cu384   2.705   .     S
Cu383  N419    2.033   .     S
Cu384  N420    2.033   .     S
C385   C395    1.399   .     A
C385   H401    1.082   .     S
C385   C387    1.389   .     A
C386   C396    1.399   .     A
C386   H402    1.082   .     S
C386   C388    1.389   .     A
C387   C389    1.390   .     A
C388   C390    1.390   .     A
C389   C391    1.403   .     A
C389   H403    1.081   .     S
C390   H404    1.081   .     S
C390   C392    1.403   .     A
C391   C397    1.418   .     A
C391   C393    1.422   .     A
C392   C398    1.418   .     A
C392   C394    1.422   .     A
C393   C395    1.418   .     A
C393   C1060   1.404   .     S
C394   C396    1.418   .     A
C394   C1059   1.404   1_554 S
C395   C400    1.411   .     A
C396   C399    1.411   .     A
C397   C421    1.490   .     S
C397   C1065   1.409   .     S
C398   C424    1.490   .     S
C398   C1066   1.409   1_554 S
C399   N427    1.435   .     S
C399   C1063   1.409   1_554 S
C400   N430    1.436   .     S
C400   C1064   1.409   .     S
C405   H409    1.082   .     S
C405   C414    1.401   .     A
C406   H410    1.082   .     S
C406   C413    1.401   .     A
C406   C260    1.383   1_655 S
C407   H411    1.082   .     S
C407   C413    1.401   .     A
C407   C257    1.383   1_655 S
C408   C414    1.401   .     A
C408   H412    1.082   .     S
C415   N433    1.427   .     S
C415   N420    1.373   .     A
C416   N419    1.373   .     A
C416   N436    1.427   .     S
C416   C639    1.424   .     S
C417   N439    1.429   .     S
C417   N420    1.373   .     A
C418   N442    1.429   .     S
C418   N419    1.373   .     A
C418   C637    1.424   .     S
C421   H422    1.084   .     S
C421   O423    1.221   .     D
C424   O426    1.221   .     D
C424   H425    1.084   .     S
N427   O428    1.301   .     A
N427   O429    1.301   .     A
N430   O432    1.301   .     A
N430   O431    1.301   .     A
N433   O435    1.300   .     A
N433   O434    1.300   .     A
N436   O438    1.300   .     A
N436   O437    1.301   .     A
N439   O441    1.301   .     A
N439   O440    1.300   .     A
N442   O444    1.301   .     A
N442   O443    1.300   .     A
O445   C449    1.300   .     A
O445   Cu457   1.965   .     S
O446   C450    1.300   .     A
O446   Cu458   1.965   .     S
O447   C450    1.299   .     A
O447   Cu457   1.965   .     S
O448   C449    1.299   .     A
O448   Cu458   1.965   .     S
C449   C488    1.451   .     S
C450   C487    1.451   .     S
O451   C455    1.297   .     A
O451   Cu457   1.957   .     S
O452   C456    1.297   .     A
O452   Cu458   1.957   .     S
O453   Cu457   1.961   .     S
O453   C456    1.300   .     A
O454   Cu458   1.961   .     S
O454   C455    1.300   .     A
C455   C462    1.448   .     S
C456   C461    1.448   .     S
Cu457  Cu458   2.705   .     S
Cu457  N493    2.033   .     S
Cu458  N494    2.033   .     S
C459   C469    1.399   .     A
C459   H475    1.082   .     S
C459   C461    1.389   .     A
C460   C470    1.399   .     A
C460   H476    1.082   .     S
C460   C462    1.389   .     A
C461   C463    1.390   .     A
C462   C464    1.390   .     A
C463   C465    1.403   .     A
C463   H477    1.081   .     S
C464   H478    1.081   .     S
C464   C466    1.403   .     A
C465   C471    1.418   .     A
C465   C467    1.422   .     A
C466   C472    1.418   .     A
C466   C468    1.422   .     A
C467   C469    1.418   .     A
C467   C1134   1.404   .     S
C468   C470    1.418   .     A
C468   C1133   1.404   1_554 S
C469   C474    1.411   .     A
C470   C473    1.411   .     A
C471   C495    1.490   .     S
C471   C1139   1.409   .     S
C472   C498    1.490   .     S
C472   C1140   1.409   1_554 S
C473   N501    1.435   .     S
C473   C1137   1.409   1_554 S
C474   N504    1.436   .     S
C474   C1138   1.409   .     S
C479   H483    1.082   .     S
C479   C488    1.401   .     A
C479   C629    1.383   1_455 S
C480   H484    1.082   .     S
C480   C487    1.401   .     A
C480   C556    1.383   .     S
C481   H485    1.082   .     S
C481   C487    1.401   .     A
C481   C553    1.383   .     S
C482   C488    1.401   .     A
C482   H486    1.082   .     S
C482   C628    1.383   1_455 S
C489   N507    1.427   .     S
C489   N494    1.373   .     A
C490   N493    1.373   .     A
C490   N510    1.427   .     S
C490   C47     1.424   1_565 S
C491   N513    1.429   .     S
C491   N494    1.373   .     A
C492   N516    1.429   .     S
C492   N493    1.373   .     A
C492   C45     1.424   1_565 S
C495   H496    1.084   .     S
C495   O497    1.221   .     D
C498   O500    1.221   .     D
C498   H499    1.084   .     S
N501   O502    1.301   .     A
N501   O503    1.301   .     A
N504   O506    1.301   .     A
N504   O505    1.301   .     A
N507   O509    1.300   .     A
N507   O508    1.300   .     A
N510   O512    1.300   .     A
N510   O511    1.301   .     A
N513   O515    1.301   .     A
N513   O514    1.300   .     A
N516   O518    1.301   .     A
N516   O517    1.300   .     A
O519   C523    1.300   .     A
O519   Cu531   1.965   .     S
O520   C524    1.300   .     A
O520   Cu532   1.965   .     S
O521   C524    1.299   .     A
O521   Cu531   1.965   .     S
O522   C523    1.299   .     A
O522   Cu532   1.965   .     S
C523   C562    1.451   .     S
C524   C561    1.451   .     S
O525   C529    1.297   .     A
O525   Cu531   1.957   .     S
O526   C530    1.297   .     A
O526   Cu532   1.957   .     S
O527   Cu531   1.961   .     S
O527   C530    1.300   .     A
O528   Cu532   1.961   .     S
O528   C529    1.300   .     A
C529   C536    1.448   .     S
C530   C535    1.448   .     S
Cu531  Cu532   2.705   .     S
Cu531  N567    2.033   .     S
Cu532  N568    2.033   .     S
C533   C543    1.399   .     A
C533   H549    1.082   .     S
C533   C535    1.389   .     A
C534   C544    1.399   .     A
C534   H550    1.082   .     S
C534   C536    1.389   .     A
C535   C537    1.390   .     A
C536   C538    1.390   .     A
C537   C539    1.403   .     A
C537   H551    1.081   .     S
C538   H552    1.081   .     S
C538   C540    1.403   .     A
C539   C545    1.418   .     A
C539   C541    1.422   .     A
C540   C546    1.418   .     A
C540   C542    1.422   .     A
C541   C543    1.418   .     A
C541   C1208   1.404   .     S
C542   C544    1.418   .     A
C542   C1207   1.404   1_554 S
C543   C548    1.411   .     A
C544   C547    1.411   .     A
C545   C569    1.490   .     S
C545   C1213   1.409   .     S
C546   C572    1.490   .     S
C546   C1214   1.409   1_554 S
C547   N575    1.435   .     S
C547   C1211   1.409   1_554 S
C548   N578    1.436   .     S
C548   C1212   1.409   .     S
C553   H557    1.082   .     S
C553   C562    1.401   .     A
C554   H558    1.082   .     S
C554   C561    1.401   .     A
C554   C630    1.383   .     S
C555   H559    1.082   .     S
C555   C561    1.401   .     A
C555   C627    1.383   .     S
C556   C562    1.401   .     A
C556   H560    1.082   .     S
C563   N581    1.427   .     S
C563   N568    1.373   .     A
C564   N567    1.373   .     A
C564   N584    1.427   .     S
C564   C121    1.424   1_565 S
C565   N587    1.429   .     S
C565   N568    1.373   .     A
C566   N590    1.429   .     S
C566   N567    1.373   .     A
C566   C119    1.424   1_565 S
C569   H570    1.084   .     S
C569   O571    1.221   .     D
C572   O574    1.221   .     D
C572   H573    1.084   .     S
N575   O576    1.301   .     A
N575   O577    1.301   .     A
N578   O580    1.301   .     A
N578   O579    1.301   .     A
N581   O583    1.300   .     A
N581   O582    1.300   .     A
N584   O586    1.300   .     A
N584   O585    1.301   .     A
N587   O589    1.301   .     A
N587   O588    1.300   .     A
N590   O592    1.301   .     A
N590   O591    1.300   .     A
O593   C597    1.300   .     A
O593   Cu605   1.965   .     S
O594   C598    1.300   .     A
O594   Cu606   1.965   .     S
O595   C598    1.299   .     A
O595   Cu605   1.965   .     S
O596   C597    1.299   .     A
O596   Cu606   1.965   .     S
C597   C636    1.451   .     S
C598   C635    1.451   .     S
O599   C603    1.297   .     A
O599   Cu605   1.957   .     S
O600   C604    1.297   .     A
O600   Cu606   1.957   .     S
O601   Cu605   1.961   .     S
O601   C604    1.300   .     A
O602   Cu606   1.961   .     S
O602   C603    1.300   .     A
C603   C610    1.448   .     S
C604   C609    1.448   .     S
Cu605  Cu606   2.705   .     S
Cu605  N641    2.033   .     S
Cu606  N642    2.033   .     S
C607   C617    1.399   .     A
C607   H623    1.082   .     S
C607   C609    1.389   .     A
C608   C618    1.399   .     A
C608   H624    1.082   .     S
C608   C610    1.389   .     A
C609   C611    1.390   .     A
C610   C612    1.390   .     A
C611   C613    1.403   .     A
C611   H625    1.081   .     S
C612   H626    1.081   .     S
C612   C614    1.403   .     A
C613   C619    1.418   .     A
C613   C615    1.422   .     A
C614   C620    1.418   .     A
C614   C616    1.422   .     A
C615   C617    1.418   .     A
C615   C1282   1.404   .     S
C616   C618    1.418   .     A
C616   C1281   1.404   1_554 S
C617   C622    1.411   .     A
C618   C621    1.411   .     A
C619   C643    1.490   .     S
C619   C1287   1.409   .     S
C620   C646    1.490   .     S
C620   C1288   1.409   1_554 S
C621   N649    1.435   .     S
C621   C1285   1.409   1_554 S
C622   N652    1.436   .     S
C622   C1286   1.409   .     S
C627   H631    1.082   .     S
C627   C636    1.401   .     A
C628   H632    1.082   .     S
C628   C635    1.401   .     A
C628   C482    1.383   1_655 S
C629   H633    1.082   .     S
C629   C635    1.401   .     A
C629   C479    1.383   1_655 S
C630   C636    1.401   .     A
C630   H634    1.082   .     S
C637   N655    1.427   .     S
C637   N642    1.373   .     A
C638   N641    1.373   .     A
C638   N658    1.427   .     S
C638   C195    1.424   1_565 S
C639   N661    1.429   .     S
C639   N642    1.373   .     A
C640   N664    1.429   .     S
C640   N641    1.373   .     A
C640   C193    1.424   1_565 S
C643   H644    1.084   .     S
C643   O645    1.221   .     D
C646   O648    1.221   .     D
C646   H647    1.084   .     S
N649   O650    1.301   .     A
N649   O651    1.301   .     A
N652   O654    1.301   .     A
N652   O653    1.301   .     A
N655   O657    1.300   .     A
N655   O656    1.300   .     A
N658   O660    1.300   .     A
N658   O659    1.301   .     A
N661   O663    1.301   .     A
N661   O662    1.300   .     A
N664   O666    1.301   .     A
N664   O665    1.300   .     A
O667   C671    1.300   .     A
O667   Cu679   1.965   .     S
O668   C672    1.300   .     A
O668   Cu680   1.965   .     S
O669   C672    1.299   .     A
O669   Cu679   1.965   .     S
O670   C671    1.299   .     A
O670   Cu680   1.965   .     S
C671   C710    1.451   .     S
C672   C709    1.451   .     S
O673   C677    1.297   .     A
O673   Cu679   1.957   .     S
O674   C678    1.297   .     A
O674   Cu680   1.957   .     S
O675   Cu679   1.961   .     S
O675   C678    1.300   .     A
O676   Cu680   1.961   .     S
O676   C677    1.300   .     A
C677   C684    1.448   .     S
C678   C683    1.448   .     S
Cu679  Cu680   2.705   .     S
Cu679  N715    2.033   .     S
Cu680  N716    2.033   .     S
C681   C691    1.399   .     A
C681   H697    1.082   .     S
C681   C683    1.389   .     A
C682   C692    1.399   .     A
C682   H698    1.082   .     S
C682   C684    1.389   .     A
C683   C685    1.390   .     A
C684   C686    1.390   .     A
C685   C687    1.403   .     A
C685   H699    1.081   .     S
C686   H700    1.081   .     S
C686   C688    1.403   .     A
C687   C693    1.418   .     A
C687   C689    1.422   .     A
C688   C694    1.418   .     A
C688   C690    1.422   .     A
C689   C691    1.418   .     A
C689   C24     1.404   1_556 S
C690   C692    1.418   .     A
C691   C696    1.411   .     A
C692   C695    1.411   .     A
C693   C717    1.490   .     S
C693   C29     1.409   1_556 S
C694   C720    1.490   .     S
C695   N723    1.435   .     S
C696   N726    1.436   .     S
C696   C28     1.409   1_556 S
C701   H705    1.082   .     S
C701   C710    1.401   .     A
C701   C851    1.383   1_455 S
C702   H706    1.082   .     S
C702   C709    1.401   .     A
C702   C778    1.383   .     S
C703   H707    1.082   .     S
C703   C709    1.401   .     A
C703   C775    1.383   .     S
C704   C710    1.401   .     A
C704   H708    1.082   .     S
C704   C850    1.383   1_455 S
C711   N729    1.427   .     S
C711   N716    1.373   .     A
C711   C1158   1.424   1_545 S
C712   N715    1.373   .     A
C712   N732    1.427   .     S
C712   C935    1.424   .     S
C713   N735    1.429   .     S
C713   N716    1.373   .     A
C713   C1156   1.424   1_545 S
C714   N738    1.429   .     S
C714   N715    1.373   .     A
C714   C933    1.424   .     S
C717   H718    1.084   .     S
C717   O719    1.221   .     D
C720   O722    1.221   .     D
C720   H721    1.084   .     S
N723   O724    1.301   .     A
N723   O725    1.301   .     A
N726   O728    1.301   .     A
N726   O727    1.301   .     A
N729   O731    1.300   .     A
N729   O730    1.300   .     A
N732   O734    1.300   .     A
N732   O733    1.301   .     A
N735   O737    1.301   .     A
N735   O736    1.300   .     A
N738   O740    1.301   .     A
N738   O739    1.300   .     A
O741   C745    1.300   .     A
O741   Cu753   1.965   .     S
O742   C746    1.300   .     A
O742   Cu754   1.965   .     S
O743   C746    1.299   .     A
O743   Cu753   1.965   .     S
O744   C745    1.299   .     A
O744   Cu754   1.965   .     S
C745   C784    1.451   .     S
C746   C783    1.451   .     S
O747   C751    1.297   .     A
O747   Cu753   1.957   .     S
O748   C752    1.297   .     A
O748   Cu754   1.957   .     S
O749   Cu753   1.961   .     S
O749   C752    1.300   .     A
O750   Cu754   1.961   .     S
O750   C751    1.300   .     A
C751   C758    1.448   .     S
C752   C757    1.448   .     S
Cu753  Cu754   2.705   .     S
Cu753  N789    2.033   .     S
Cu754  N790    2.033   .     S
C755   C765    1.399   .     A
C755   H771    1.082   .     S
C755   C757    1.389   .     A
C756   C766    1.399   .     A
C756   H772    1.082   .     S
C756   C758    1.389   .     A
C757   C759    1.390   .     A
C758   C760    1.390   .     A
C759   C761    1.403   .     A
C759   H773    1.081   .     S
C760   H774    1.081   .     S
C760   C762    1.403   .     A
C761   C767    1.418   .     A
C761   C763    1.422   .     A
C762   C768    1.418   .     A
C762   C764    1.422   .     A
C763   C765    1.418   .     A
C763   C98     1.404   1_556 S
C764   C766    1.418   .     A
C765   C770    1.411   .     A
C766   C769    1.411   .     A
C767   C791    1.490   .     S
C767   C103    1.409   1_556 S
C768   C794    1.490   .     S
C769   N797    1.435   .     S
C770   N800    1.436   .     S
C770   C102    1.409   1_556 S
C775   H779    1.082   .     S
C775   C784    1.401   .     A
C776   H780    1.082   .     S
C776   C783    1.401   .     A
C776   C852    1.383   .     S
C777   H781    1.082   .     S
C777   C783    1.401   .     A
C777   C849    1.383   .     S
C778   C784    1.401   .     A
C778   H782    1.082   .     S
C785   N803    1.427   .     S
C785   N790    1.373   .     A
C785   C1232   1.424   1_545 S
C786   N789    1.373   .     A
C786   N806    1.427   .     S
C786   C1009   1.424   .     S
C787   N809    1.429   .     S
C787   N790    1.373   .     A
C787   C1230   1.424   1_545 S
C788   N812    1.429   .     S
C788   N789    1.373   .     A
C788   C1007   1.424   .     S
C791   H792    1.084   .     S
C791   O793    1.221   .     D
C794   O796    1.221   .     D
C794   H795    1.084   .     S
N797   O798    1.301   .     A
N797   O799    1.301   .     A
N800   O802    1.301   .     A
N800   O801    1.301   .     A
N803   O805    1.300   .     A
N803   O804    1.300   .     A
N806   O808    1.300   .     A
N806   O807    1.301   .     A
N809   O811    1.301   .     A
N809   O810    1.300   .     A
N812   O814    1.301   .     A
N812   O813    1.300   .     A
O815   C819    1.300   .     A
O815   Cu827   1.965   .     S
O816   C820    1.300   .     A
O816   Cu828   1.965   .     S
O817   C820    1.299   .     A
O817   Cu827   1.965   .     S
O818   C819    1.299   .     A
O818   Cu828   1.965   .     S
C819   C858    1.451   .     S
C820   C857    1.451   .     S
O821   C825    1.297   .     A
O821   Cu827   1.957   .     S
O822   C826    1.297   .     A
O822   Cu828   1.957   .     S
O823   Cu827   1.961   .     S
O823   C826    1.300   .     A
O824   Cu828   1.961   .     S
O824   C825    1.300   .     A
C825   C832    1.448   .     S
C826   C831    1.448   .     S
Cu827  Cu828   2.705   .     S
Cu827  N863    2.033   .     S
Cu828  N864    2.033   .     S
C829   C839    1.399   .     A
C829   H845    1.082   .     S
C829   C831    1.389   .     A
C830   C840    1.399   .     A
C830   H846    1.082   .     S
C830   C832    1.389   .     A
C831   C833    1.390   .     A
C832   C834    1.390   .     A
C833   C835    1.403   .     A
C833   H847    1.081   .     S
C834   H848    1.081   .     S
C834   C836    1.403   .     A
C835   C841    1.418   .     A
C835   C837    1.422   .     A
C836   C842    1.418   .     A
C836   C838    1.422   .     A
C837   C839    1.418   .     A
C837   C172    1.404   1_556 S
C838   C840    1.418   .     A
C839   C844    1.411   .     A
C840   C843    1.411   .     A
C841   C865    1.490   .     S
C841   C177    1.409   1_556 S
C842   C868    1.490   .     S
C843   N871    1.435   .     S
C844   N874    1.436   .     S
C844   C176    1.409   1_556 S
C849   H853    1.082   .     S
C849   C858    1.401   .     A
C850   H854    1.082   .     S
C850   C857    1.401   .     A
C850   C704    1.383   1_655 S
C851   H855    1.082   .     S
C851   C857    1.401   .     A
C851   C701    1.383   1_655 S
C852   C858    1.401   .     A
C852   H856    1.082   .     S
C859   N877    1.427   .     S
C859   N864    1.373   .     A
C859   C1306   1.424   1_545 S
C860   N863    1.373   .     A
C860   N880    1.427   .     S
C860   C1083   1.424   .     S
C861   N883    1.429   .     S
C861   N864    1.373   .     A
C861   C1304   1.424   1_545 S
C862   N886    1.429   .     S
C862   N863    1.373   .     A
C862   C1081   1.424   .     S
C865   H866    1.084   .     S
C865   O867    1.221   .     D
C868   O870    1.221   .     D
C868   H869    1.084   .     S
N871   O872    1.301   .     A
N871   O873    1.301   .     A
N874   O876    1.301   .     A
N874   O875    1.301   .     A
N877   O879    1.300   .     A
N877   O878    1.300   .     A
N880   O882    1.300   .     A
N880   O881    1.301   .     A
N883   O885    1.301   .     A
N883   O884    1.300   .     A
N886   O888    1.301   .     A
N886   O887    1.300   .     A
O889   C893    1.300   .     A
O889   Cu901   1.965   .     S
O890   C894    1.300   .     A
O890   Cu902   1.965   .     S
O891   C894    1.299   .     A
O891   Cu901   1.965   .     S
O892   C893    1.299   .     A
O892   Cu902   1.965   .     S
C893   C932    1.451   .     S
C894   C931    1.451   .     S
O895   C899    1.297   .     A
O895   Cu901   1.957   .     S
O896   C900    1.297   .     A
O896   Cu902   1.957   .     S
O897   Cu901   1.961   .     S
O897   C900    1.300   .     A
O898   Cu902   1.961   .     S
O898   C899    1.300   .     A
C899   C906    1.448   .     S
C900   C905    1.448   .     S
Cu901  Cu902   2.705   .     S
Cu901  N937    2.033   .     S
Cu902  N938    2.033   .     S
C903   C913    1.399   .     A
C903   H919    1.082   .     S
C903   C905    1.389   .     A
C904   C914    1.399   .     A
C904   H920    1.082   .     S
C904   C906    1.389   .     A
C905   C907    1.390   .     A
C906   C908    1.390   .     A
C907   C909    1.403   .     A
C907   H921    1.081   .     S
C908   H922    1.081   .     S
C908   C910    1.403   .     A
C909   C915    1.418   .     A
C909   C911    1.422   .     A
C910   C916    1.418   .     A
C910   C912    1.422   .     A
C911   C913    1.418   .     A
C911   C246    1.404   1_556 S
C912   C914    1.418   .     A
C913   C918    1.411   .     A
C914   C917    1.411   .     A
C915   C939    1.490   .     S
C915   C251    1.409   1_556 S
C916   C942    1.490   .     S
C917   N945    1.435   .     S
C918   N948    1.436   .     S
C918   C250    1.409   1_556 S
C923   H927    1.082   .     S
C923   C932    1.401   .     A
C923   C1073   1.383   1_455 S
C924   H928    1.082   .     S
C924   C931    1.401   .     A
C924   C1000   1.383   .     S
C925   H929    1.082   .     S
C925   C931    1.401   .     A
C925   C997    1.383   .     S
C926   C932    1.401   .     A
C926   H930    1.082   .     S
C926   C1072   1.383   1_455 S
C933   N951    1.427   .     S
C933   N938    1.373   .     A
C934   N937    1.373   .     A
C934   N954    1.427   .     S
C934   C1157   1.424   .     S
C935   N957    1.429   .     S
C935   N938    1.373   .     A
C936   N960    1.429   .     S
C936   N937    1.373   .     A
C936   C1155   1.424   .     S
C939   H940    1.084   .     S
C939   O941    1.221   .     D
C942   O944    1.221   .     D
C942   H943    1.084   .     S
N945   O946    1.301   .     A
N945   O947    1.301   .     A
N948   O950    1.301   .     A
N948   O949    1.301   .     A
N951   O953    1.300   .     A
N951   O952    1.300   .     A
N954   O956    1.300   .     A
N954   O955    1.301   .     A
N957   O959    1.301   .     A
N957   O958    1.300   .     A
N960   O962    1.301   .     A
N960   O961    1.300   .     A
O963   C967    1.300   .     A
O963   Cu975   1.965   .     S
O964   C968    1.300   .     A
O964   Cu976   1.965   .     S
O965   C968    1.299   .     A
O965   Cu975   1.965   .     S
O966   C967    1.299   .     A
O966   Cu976   1.965   .     S
C967   C1006   1.451   .     S
C968   C1005   1.451   .     S
O969   C973    1.297   .     A
O969   Cu975   1.957   .     S
O970   C974    1.297   .     A
O970   Cu976   1.957   .     S
O971   Cu975   1.961   .     S
O971   C974    1.300   .     A
O972   Cu976   1.961   .     S
O972   C973    1.300   .     A
C973   C980    1.448   .     S
C974   C979    1.448   .     S
Cu975  Cu976   2.705   .     S
Cu975  N1011   2.033   .     S
Cu976  N1012   2.033   .     S
C977   C987    1.399   .     A
C977   H993    1.082   .     S
C977   C979    1.389   .     A
C978   C988    1.399   .     A
C978   H994    1.082   .     S
C978   C980    1.389   .     A
C979   C981    1.390   .     A
C980   C982    1.390   .     A
C981   C983    1.403   .     A
C981   H995    1.081   .     S
C982   H996    1.081   .     S
C982   C984    1.403   .     A
C983   C989    1.418   .     A
C983   C985    1.422   .     A
C984   C990    1.418   .     A
C984   C986    1.422   .     A
C985   C987    1.418   .     A
C985   C320    1.404   1_556 S
C986   C988    1.418   .     A
C987   C992    1.411   .     A
C988   C991    1.411   .     A
C989   C1013   1.490   .     S
C989   C325    1.409   1_556 S
C990   C1016   1.490   .     S
C991   N1019   1.435   .     S
C992   N1022   1.436   .     S
C992   C324    1.409   1_556 S
C997   H1001   1.082   .     S
C997   C1006   1.401   .     A
C998   H1002   1.082   .     S
C998   C1005   1.401   .     A
C998   C1074   1.383   .     S
C999   H1003   1.082   .     S
C999   C1005   1.401   .     A
C999   C1071   1.383   .     S
C1000  C1006   1.401   .     A
C1000  H1004   1.082   .     S
C1007  N1025   1.427   .     S
C1007  N1012   1.373   .     A
C1008  N1011   1.373   .     A
C1008  N1028   1.427   .     S
C1008  C1231   1.424   .     S
C1009  N1031   1.429   .     S
C1009  N1012   1.373   .     A
C1010  N1034   1.429   .     S
C1010  N1011   1.373   .     A
C1010  C1229   1.424   .     S
C1013  H1014   1.084   .     S
C1013  O1015   1.221   .     D
C1016  O1018   1.221   .     D
C1016  H1017   1.084   .     S
N1019  O1020   1.301   .     A
N1019  O1021   1.301   .     A
N1022  O1024   1.301   .     A
N1022  O1023   1.301   .     A
N1025  O1027   1.300   .     A
N1025  O1026   1.300   .     A
N1028  O1030   1.300   .     A
N1028  O1029   1.301   .     A
N1031  O1033   1.301   .     A
N1031  O1032   1.300   .     A
N1034  O1036   1.301   .     A
N1034  O1035   1.300   .     A
O1037  C1041   1.300   .     A
O1037  Cu1049  1.965   .     S
O1038  C1042   1.300   .     A
O1038  Cu1050  1.965   .     S
O1039  C1042   1.299   .     A
O1039  Cu1049  1.965   .     S
O1040  C1041   1.299   .     A
O1040  Cu1050  1.965   .     S
C1041  C1080   1.451   .     S
C1042  C1079   1.451   .     S
O1043  C1047   1.297   .     A
O1043  Cu1049  1.957   .     S
O1044  C1048   1.297   .     A
O1044  Cu1050  1.957   .     S
O1045  Cu1049  1.961   .     S
O1045  C1048   1.300   .     A
O1046  Cu1050  1.961   .     S
O1046  C1047   1.300   .     A
C1047  C1054   1.448   .     S
C1048  C1053   1.448   .     S
Cu1049 Cu1050  2.705   .     S
Cu1049 N1085   2.033   .     S
Cu1050 N1086   2.033   .     S
C1051  C1061   1.399   .     A
C1051  H1067   1.082   .     S
C1051  C1053   1.389   .     A
C1052  C1062   1.399   .     A
C1052  H1068   1.082   .     S
C1052  C1054   1.389   .     A
C1053  C1055   1.390   .     A
C1054  C1056   1.390   .     A
C1055  C1057   1.403   .     A
C1055  H1069   1.081   .     S
C1056  H1070   1.081   .     S
C1056  C1058   1.403   .     A
C1057  C1063   1.418   .     A
C1057  C1059   1.422   .     A
C1058  C1064   1.418   .     A
C1058  C1060   1.422   .     A
C1059  C1061   1.418   .     A
C1059  C394    1.404   1_556 S
C1060  C1062   1.418   .     A
C1061  C1066   1.411   .     A
C1062  C1065   1.411   .     A
C1063  C1087   1.490   .     S
C1063  C399    1.409   1_556 S
C1064  C1090   1.490   .     S
C1065  N1093   1.435   .     S
C1066  N1096   1.436   .     S
C1066  C398    1.409   1_556 S
C1071  H1075   1.082   .     S
C1071  C1080   1.401   .     A
C1072  H1076   1.082   .     S
C1072  C1079   1.401   .     A
C1072  C926    1.383   1_655 S
C1073  H1077   1.082   .     S
C1073  C1079   1.401   .     A
C1073  C923    1.383   1_655 S
C1074  C1080   1.401   .     A
C1074  H1078   1.082   .     S
C1081  N1099   1.427   .     S
C1081  N1086   1.373   .     A
C1082  N1085   1.373   .     A
C1082  N1102   1.427   .     S
C1082  C1305   1.424   .     S
C1083  N1105   1.429   .     S
C1083  N1086   1.373   .     A
C1084  N1108   1.429   .     S
C1084  N1085   1.373   .     A
C1084  C1303   1.424   .     S
C1087  H1088   1.084   .     S
C1087  O1089   1.221   .     D
C1090  O1092   1.221   .     D
C1090  H1091   1.084   .     S
N1093  O1094   1.301   .     A
N1093  O1095   1.301   .     A
N1096  O1098   1.301   .     A
N1096  O1097   1.301   .     A
N1099  O1101   1.300   .     A
N1099  O1100   1.300   .     A
N1102  O1104   1.300   .     A
N1102  O1103   1.301   .     A
N1105  O1107   1.301   .     A
N1105  O1106   1.300   .     A
N1108  O1110   1.301   .     A
N1108  O1109   1.300   .     A
O1111  C1115   1.300   .     A
O1111  Cu1123  1.965   .     S
O1112  C1116   1.300   .     A
O1112  Cu1124  1.965   .     S
O1113  C1116   1.299   .     A
O1113  Cu1123  1.965   .     S
O1114  C1115   1.299   .     A
O1114  Cu1124  1.965   .     S
C1115  C1154   1.451   .     S
C1116  C1153   1.451   .     S
O1117  C1121   1.297   .     A
O1117  Cu1123  1.957   .     S
O1118  C1122   1.297   .     A
O1118  Cu1124  1.957   .     S
O1119  Cu1123  1.961   .     S
O1119  C1122   1.300   .     A
O1120  Cu1124  1.961   .     S
O1120  C1121   1.300   .     A
C1121  C1128   1.448   .     S
C1122  C1127   1.448   .     S
Cu1123 Cu1124  2.705   .     S
Cu1123 N1159   2.033   .     S
Cu1124 N1160   2.033   .     S
C1125  C1135   1.399   .     A
C1125  H1141   1.082   .     S
C1125  C1127   1.389   .     A
C1126  C1136   1.399   .     A
C1126  H1142   1.082   .     S
C1126  C1128   1.389   .     A
C1127  C1129   1.390   .     A
C1128  C1130   1.390   .     A
C1129  C1131   1.403   .     A
C1129  H1143   1.081   .     S
C1130  H1144   1.081   .     S
C1130  C1132   1.403   .     A
C1131  C1137   1.418   .     A
C1131  C1133   1.422   .     A
C1132  C1138   1.418   .     A
C1132  C1134   1.422   .     A
C1133  C1135   1.418   .     A
C1133  C468    1.404   1_556 S
C1134  C1136   1.418   .     A
C1135  C1140   1.411   .     A
C1136  C1139   1.411   .     A
C1137  C1161   1.490   .     S
C1137  C473    1.409   1_556 S
C1138  C1164   1.490   .     S
C1139  N1167   1.435   .     S
C1140  N1170   1.436   .     S
C1140  C472    1.409   1_556 S
C1145  H1149   1.082   .     S
C1145  C1154   1.401   .     A
C1145  C1295   1.383   1_455 S
C1146  H1150   1.082   .     S
C1146  C1153   1.401   .     A
C1146  C1222   1.383   .     S
C1147  H1151   1.082   .     S
C1147  C1153   1.401   .     A
C1147  C1219   1.383   .     S
C1148  C1154   1.401   .     A
C1148  H1152   1.082   .     S
C1148  C1294   1.383   1_455 S
C1155  N1173   1.427   .     S
C1155  N1160   1.373   .     A
C1156  N1159   1.373   .     A
C1156  N1176   1.427   .     S
C1156  C713    1.424   1_565 S
C1157  N1179   1.429   .     S
C1157  N1160   1.373   .     A
C1158  N1182   1.429   .     S
C1158  N1159   1.373   .     A
C1158  C711    1.424   1_565 S
C1161  H1162   1.084   .     S
C1161  O1163   1.221   .     D
C1164  O1166   1.221   .     D
C1164  H1165   1.084   .     S
N1167  O1168   1.301   .     A
N1167  O1169   1.301   .     A
N1170  O1172   1.301   .     A
N1170  O1171   1.301   .     A
N1173  O1175   1.300   .     A
N1173  O1174   1.300   .     A
N1176  O1178   1.300   .     A
N1176  O1177   1.301   .     A
N1179  O1181   1.301   .     A
N1179  O1180   1.300   .     A
N1182  O1184   1.301   .     A
N1182  O1183   1.300   .     A
O1185  C1189   1.300   .     A
O1185  Cu1197  1.965   .     S
O1186  C1190   1.300   .     A
O1186  Cu1198  1.965   .     S
O1187  C1190   1.299   .     A
O1187  Cu1197  1.965   .     S
O1188  C1189   1.299   .     A
O1188  Cu1198  1.965   .     S
C1189  C1228   1.451   .     S
C1190  C1227   1.451   .     S
O1191  C1195   1.297   .     A
O1191  Cu1197  1.957   .     S
O1192  C1196   1.297   .     A
O1192  Cu1198  1.957   .     S
O1193  Cu1197  1.961   .     S
O1193  C1196   1.300   .     A
O1194  Cu1198  1.961   .     S
O1194  C1195   1.300   .     A
C1195  C1202   1.448   .     S
C1196  C1201   1.448   .     S
Cu1197 Cu1198  2.705   .     S
Cu1197 N1233   2.033   .     S
Cu1198 N1234   2.033   .     S
C1199  C1209   1.399   .     A
C1199  H1215   1.082   .     S
C1199  C1201   1.389   .     A
C1200  C1210   1.399   .     A
C1200  H1216   1.082   .     S
C1200  C1202   1.389   .     A
C1201  C1203   1.390   .     A
C1202  C1204   1.390   .     A
C1203  C1205   1.403   .     A
C1203  H1217   1.081   .     S
C1204  H1218   1.081   .     S
C1204  C1206   1.403   .     A
C1205  C1211   1.418   .     A
C1205  C1207   1.422   .     A
C1206  C1212   1.418   .     A
C1206  C1208   1.422   .     A
C1207  C1209   1.418   .     A
C1207  C542    1.404   1_556 S
C1208  C1210   1.418   .     A
C1209  C1214   1.411   .     A
C1210  C1213   1.411   .     A
C1211  C1235   1.490   .     S
C1211  C547    1.409   1_556 S
C1212  C1238   1.490   .     S
C1213  N1241   1.435   .     S
C1214  N1244   1.436   .     S
C1214  C546    1.409   1_556 S
C1219  H1223   1.082   .     S
C1219  C1228   1.401   .     A
C1220  H1224   1.082   .     S
C1220  C1227   1.401   .     A
C1220  C1296   1.383   .     S
C1221  H1225   1.082   .     S
C1221  C1227   1.401   .     A
C1221  C1293   1.383   .     S
C1222  C1228   1.401   .     A
C1222  H1226   1.082   .     S
C1229  N1247   1.427   .     S
C1229  N1234   1.373   .     A
C1230  N1233   1.373   .     A
C1230  N1250   1.427   .     S
C1230  C787    1.424   1_565 S
C1231  N1253   1.429   .     S
C1231  N1234   1.373   .     A
C1232  N1256   1.429   .     S
C1232  N1233   1.373   .     A
C1232  C785    1.424   1_565 S
C1235  H1236   1.084   .     S
C1235  O1237   1.221   .     D
C1238  O1240   1.221   .     D
C1238  H1239   1.084   .     S
N1241  O1242   1.301   .     A
N1241  O1243   1.301   .     A
N1244  O1246   1.301   .     A
N1244  O1245   1.301   .     A
N1247  O1249   1.300   .     A
N1247  O1248   1.300   .     A
N1250  O1252   1.300   .     A
N1250  O1251   1.301   .     A
N1253  O1255   1.301   .     A
N1253  O1254   1.300   .     A
N1256  O1258   1.301   .     A
N1256  O1257   1.300   .     A
O1259  C1263   1.300   .     A
O1259  Cu1271  1.965   .     S
O1260  C1264   1.300   .     A
O1260  Cu1272  1.965   .     S
O1261  C1264   1.299   .     A
O1261  Cu1271  1.965   .     S
O1262  C1263   1.299   .     A
O1262  Cu1272  1.965   .     S
C1263  C1302   1.451   .     S
C1264  C1301   1.451   .     S
O1265  C1269   1.297   .     A
O1265  Cu1271  1.957   .     S
O1266  C1270   1.297   .     A
O1266  Cu1272  1.957   .     S
O1267  Cu1271  1.961   .     S
O1267  C1270   1.300   .     A
O1268  Cu1272  1.961   .     S
O1268  C1269   1.300   .     A
C1269  C1276   1.448   .     S
C1270  C1275   1.448   .     S
Cu1271 Cu1272  2.705   .     S
Cu1271 N1307   2.033   .     S
Cu1272 N1308   2.033   .     S
C1273  C1283   1.399   .     A
C1273  H1289   1.082   .     S
C1273  C1275   1.389   .     A
C1274  C1284   1.399   .     A
C1274  H1290   1.082   .     S
C1274  C1276   1.389   .     A
C1275  C1277   1.390   .     A
C1276  C1278   1.390   .     A
C1277  C1279   1.403   .     A
C1277  H1291   1.081   .     S
C1278  H1292   1.081   .     S
C1278  C1280   1.403   .     A
C1279  C1285   1.418   .     A
C1279  C1281   1.422   .     A
C1280  C1286   1.418   .     A
C1280  C1282   1.422   .     A
C1281  C1283   1.418   .     A
C1281  C616    1.404   1_556 S
C1282  C1284   1.418   .     A
C1283  C1288   1.411   .     A
C1284  C1287   1.411   .     A
C1285  C1309   1.490   .     S
C1285  C621    1.409   1_556 S
C1286  C1312   1.490   .     S
C1287  N1315   1.435   .     S
C1288  N1318   1.436   .     S
C1288  C620    1.409   1_556 S
C1293  H1297   1.082   .     S
C1293  C1302   1.401   .     A
C1294  H1298   1.082   .     S
C1294  C1301   1.401   .     A
C1294  C1148   1.383   1_655 S
C1295  H1299   1.082   .     S
C1295  C1301   1.401   .     A
C1295  C1145   1.383   1_655 S
C1296  C1302   1.401   .     A
C1296  H1300   1.082   .     S
C1303  N1321   1.427   .     S
C1303  N1308   1.373   .     A
C1304  N1307   1.373   .     A
C1304  N1324   1.427   .     S
C1304  C861    1.424   1_565 S
C1305  N1327   1.429   .     S
C1305  N1308   1.373   .     A
C1306  N1330   1.429   .     S
C1306  N1307   1.373   .     A
C1306  C859    1.424   1_565 S
C1309  H1310   1.084   .     S
C1309  O1311   1.221   .     D
C1312  O1314   1.221   .     D
C1312  H1313   1.084   .     S
N1315  O1316   1.301   .     A
N1315  O1317   1.301   .     A
N1318  O1320   1.301   .     A
N1318  O1319   1.301   .     A
N1321  O1323   1.300   .     A
N1321  O1322   1.300   .     A
N1324  O1326   1.300   .     A
N1324  O1325   1.301   .     A
N1327  O1329   1.301   .     A
N1327  O1328   1.300   .     A
N1330  O1332   1.301   .     A
N1330  O1331   1.300   .     A
