data_str_m1_o10_o18_pcu_sym.12
_audit_creation_date              2020-01-03
_audit_creation_method            'Materials Studio'
_symmetry_space_group_name_H-M    'P1'
_symmetry_Int_Tables_number       1
_symmetry_cell_setting            triclinic
loop_
_symmetry_equiv_pos_as_xyz
  x,y,z
_cell_length_a                    32.5581
_cell_length_b                    32.5353
_cell_length_c                    35.4921
_cell_angle_alpha                 98.2189
_cell_angle_beta                  73.0808
_cell_angle_gamma                 98.5155
loop_
_atom_site_label
_atom_site_type_symbol
_atom_site_fract_x
_atom_site_fract_y
_atom_site_fract_z
_atom_site_U_iso_or_equiv
_atom_site_adp_type
_atom_site_occupancy
C1     C     0.05245   0.15988   0.25880   0.00000  Uiso   1.00
C2     C     0.19059   0.11639   0.45845   0.00000  Uiso   1.00
C3     C     0.21830   0.10579   0.47827   0.00000  Uiso   1.00
C4     C     0.28108   0.17356   0.24122   0.00000  Uiso   1.00
C5     C     0.21169   0.11673   0.01886   0.00000  Uiso   1.00
C6     C     0.17473   0.13609   0.04121   0.00000  Uiso   1.00
C7     C     0.24109   0.10695   0.03745   0.00000  Uiso   1.00
C8     C     0.23467   0.11631   0.07843   0.00000  Uiso   1.00
C9     C     0.16859   0.14534   0.08239   0.00000  Uiso   1.00
C10    C     0.32701   0.17624   0.23766   0.00000  Uiso   1.00
C11    C     0.00709   0.15746   0.26226   0.00000  Uiso   1.00
C12    C     0.09096   0.20725   0.42308   0.00000  Uiso   1.00
C13    C     0.18097   0.32217   0.23818   0.00000  Uiso   1.00
C14    C     0.15153   0.01209   0.26220   0.00000  Uiso   1.00
C15    C     0.15590   0.05608   0.25895   0.00000  Uiso   1.00
C16    C     0.17688   0.27770   0.24137   0.00000  Uiso   1.00
C17    C     0.18824   0.14522   0.14386   0.00000  Uiso   1.00
C18    C     0.14491   0.18756   0.35660   0.00000  Uiso   1.00
C19    C     0.12992   0.19085   0.40065   0.00000  Uiso   1.00
C20    C     0.19784   0.13557   0.10084   0.00000  Uiso   1.00
C21    C     0.07498   0.20165   0.46336   0.00000  Uiso   1.00
C22    C     0.26595   0.10507   0.09749   0.00000  Uiso   1.00
C23    C     0.15266   0.17187   0.42017   0.00000  Uiso   1.00
C24    C     0.06676   0.23187   0.40642   0.00000  Uiso   1.00
C25    C     0.19245   0.09444   0.41834   0.00000  Uiso   1.00
C26    C     0.13553   0.16387   0.46007   0.00000  Uiso   1.00
C27    C     0.09678   0.18068   0.48222   0.00000  Uiso   1.00
C28    C     0.15767   0.14235   0.47926   0.00000  Uiso   1.00
C29    C     0.14630   0.14709   0.02141   0.00000  Uiso   1.00
C30    C     0.10662   0.16224   0.04235   0.00000  Uiso   1.00
C31    C     0.08143   0.17753   0.02313   0.00000  Uiso   1.00
H32    H     0.26908   0.09185   0.01984   0.00000  Uiso   1.00
H33    H     0.09359   0.16159   0.07387   0.00000  Uiso   1.00
H34    H     0.26094   0.11135   0.12925   0.00000  Uiso   1.00
H35    H     0.08353   0.25232   0.38385   0.00000  Uiso   1.00
H36    H     0.16454   0.09112   0.40687   0.00000  Uiso   1.00
H37    H     0.01670   0.19353   0.21490   0.00000  Uiso   1.00
H38    H     0.31807   0.14009   0.28527   0.00000  Uiso   1.00
H39    H     0.20820   0.00278   0.21611   0.00000  Uiso   1.00
H40    H     0.12389   0.33222   0.28429   0.00000  Uiso   1.00
H41    H     0.14206   0.16153   0.10100   0.00000  Uiso   1.00
H42    H     0.24450   0.08750   0.46220   0.00000  Uiso   1.00
H43    H     0.04578   0.21508   0.48013   0.00000  Uiso   1.00
H44    H     0.18458   0.16422   0.40373   0.00000  Uiso   1.00
I45    I     0.02177   0.19770   0.05950   0.00000  Uiso   1.00
O46    O     0.16667   0.16667   0.25000   0.00000  Uiso   1.00
O47    O     0.15693   0.12393   0.16625   0.00000  Uiso   1.00
O48    O     0.12687   0.20646   0.33749   0.00000  Uiso   1.00
O49    O     0.21088   0.17493   0.15877   0.00000  Uiso   1.00
O50    O     0.17198   0.16135   0.33749   0.00000  Uiso   1.00
O51    O     0.29788   0.08853   0.07788   0.00000  Uiso   1.00
O52    O     0.02749   0.23063   0.41885   0.00000  Uiso   1.00
O53    O     0.22488   0.07923   0.39790   0.00000  Uiso   1.00
O54    O     0.17849   0.08101   0.27821   0.00000  Uiso   1.00
O55    O     0.14581   0.26136   0.26767   0.00000  Uiso   1.00
O56    O     0.07452   0.13251   0.23607   0.00000  Uiso   1.00
O57    O     0.26785   0.19179   0.21806   0.00000  Uiso   1.00
O58    O     0.06990   0.18960   0.27820   0.00000  Uiso   1.00
O59    O     0.25440   0.15277   0.26768   0.00000  Uiso   1.00
O60    O     0.13800   0.06903   0.23607   0.00000  Uiso   1.00
O61    O     0.20437   0.25527   0.21806   0.00000  Uiso   1.00
Zn62   Zn    0.19244   0.14090   0.28278   0.00000  Uiso   1.00
Zn63   Zn    0.13459   0.12378   0.22258   0.00000  Uiso   1.00
Zn64   Zn    0.21166   0.19664   0.21188   0.00000  Uiso   1.00
Zn65   Zn    0.12798   0.20535   0.28277   0.00000  Uiso   1.00
C66    C     0.38579   0.15988   0.25880   0.00000  Uiso   1.00
C67    C     0.52392   0.11639   0.45845   0.00000  Uiso   1.00
C68    C     0.55164   0.10579   0.47827   0.00000  Uiso   1.00
C69    C     0.61441   0.17356   0.24122   0.00000  Uiso   1.00
C70    C     0.54502   0.11673   0.01886   0.00000  Uiso   1.00
C71    C     0.50807   0.13609   0.04121   0.00000  Uiso   1.00
C72    C     0.57442   0.10695   0.03745   0.00000  Uiso   1.00
C73    C     0.56801   0.11631   0.07843   0.00000  Uiso   1.00
C74    C     0.50193   0.14534   0.08239   0.00000  Uiso   1.00
C75    C     0.66035   0.17624   0.23766   0.00000  Uiso   1.00
C76    C     0.34042   0.15746   0.26226   0.00000  Uiso   1.00
C77    C     0.42429   0.20725   0.42308   0.00000  Uiso   1.00
C78    C     0.51431   0.32217   0.23818   0.00000  Uiso   1.00
C79    C     0.48487   0.01209   0.26220   0.00000  Uiso   1.00
C80    C     0.48923   0.05608   0.25895   0.00000  Uiso   1.00
C81    C     0.51021   0.27770   0.24137   0.00000  Uiso   1.00
C82    C     0.52157   0.14522   0.14386   0.00000  Uiso   1.00
C83    C     0.47825   0.18756   0.35660   0.00000  Uiso   1.00
C84    C     0.46325   0.19085   0.40065   0.00000  Uiso   1.00
C85    C     0.53117   0.13557   0.10084   0.00000  Uiso   1.00
C86    C     0.40831   0.20165   0.46336   0.00000  Uiso   1.00
C87    C     0.59929   0.10507   0.09749   0.00000  Uiso   1.00
C88    C     0.48599   0.17187   0.42017   0.00000  Uiso   1.00
C89    C     0.40010   0.23187   0.40642   0.00000  Uiso   1.00
C90    C     0.52579   0.09444   0.41834   0.00000  Uiso   1.00
C91    C     0.46886   0.16387   0.46007   0.00000  Uiso   1.00
C92    C     0.43012   0.18068   0.48222   0.00000  Uiso   1.00
C93    C     0.49100   0.14235   0.47926   0.00000  Uiso   1.00
C94    C     0.47964   0.14709   0.02141   0.00000  Uiso   1.00
C95    C     0.43995   0.16224   0.04235   0.00000  Uiso   1.00
C96    C     0.41477   0.17753   0.02313   0.00000  Uiso   1.00
H97    H     0.60241   0.09185   0.01984   0.00000  Uiso   1.00
H98    H     0.42692   0.16159   0.07387   0.00000  Uiso   1.00
H99    H     0.59427   0.11135   0.12925   0.00000  Uiso   1.00
H100   H     0.41686   0.25232   0.38385   0.00000  Uiso   1.00
H101   H     0.49787   0.09112   0.40687   0.00000  Uiso   1.00
H102   H     0.35003   0.19353   0.21490   0.00000  Uiso   1.00
H103   H     0.65140   0.14009   0.28527   0.00000  Uiso   1.00
H104   H     0.54153   0.00278   0.21611   0.00000  Uiso   1.00
H105   H     0.45722   0.33222   0.28429   0.00000  Uiso   1.00
H106   H     0.47540   0.16153   0.10100   0.00000  Uiso   1.00
H107   H     0.57783   0.08750   0.46220   0.00000  Uiso   1.00
H108   H     0.37911   0.21508   0.48013   0.00000  Uiso   1.00
H109   H     0.51791   0.16422   0.40373   0.00000  Uiso   1.00
I110   I     0.35511   0.19770   0.05950   0.00000  Uiso   1.00
O111   O     0.50000   0.16667   0.25000   0.00000  Uiso   1.00
O112   O     0.49027   0.12393   0.16625   0.00000  Uiso   1.00
O113   O     0.46020   0.20646   0.33749   0.00000  Uiso   1.00
O114   O     0.54421   0.17493   0.15877   0.00000  Uiso   1.00
O115   O     0.50532   0.16135   0.33749   0.00000  Uiso   1.00
O116   O     0.63121   0.08853   0.07788   0.00000  Uiso   1.00
O117   O     0.36083   0.23063   0.41885   0.00000  Uiso   1.00
O118   O     0.55821   0.07923   0.39790   0.00000  Uiso   1.00
O119   O     0.51182   0.08101   0.27821   0.00000  Uiso   1.00
O120   O     0.47914   0.26136   0.26767   0.00000  Uiso   1.00
O121   O     0.40785   0.13251   0.23607   0.00000  Uiso   1.00
O122   O     0.60119   0.19179   0.21806   0.00000  Uiso   1.00
O123   O     0.40323   0.18960   0.27820   0.00000  Uiso   1.00
O124   O     0.58773   0.15277   0.26768   0.00000  Uiso   1.00
O125   O     0.47133   0.06903   0.23607   0.00000  Uiso   1.00
O126   O     0.53771   0.25527   0.21806   0.00000  Uiso   1.00
Zn127  Zn    0.52577   0.14090   0.28278   0.00000  Uiso   1.00
Zn128  Zn    0.46792   0.12378   0.22258   0.00000  Uiso   1.00
Zn129  Zn    0.54500   0.19664   0.21188   0.00000  Uiso   1.00
Zn130  Zn    0.46131   0.20535   0.28277   0.00000  Uiso   1.00
C131   C     0.71912   0.15988   0.25880   0.00000  Uiso   1.00
C132   C     0.85725   0.11639   0.45845   0.00000  Uiso   1.00
C133   C     0.88497   0.10579   0.47827   0.00000  Uiso   1.00
C134   C     0.94774   0.17356   0.24122   0.00000  Uiso   1.00
C135   C     0.87835   0.11673   0.01886   0.00000  Uiso   1.00
C136   C     0.84140   0.13609   0.04121   0.00000  Uiso   1.00
C137   C     0.90776   0.10695   0.03745   0.00000  Uiso   1.00
C138   C     0.90134   0.11631   0.07843   0.00000  Uiso   1.00
C139   C     0.83526   0.14534   0.08239   0.00000  Uiso   1.00
C140   C     0.99368   0.17624   0.23766   0.00000  Uiso   1.00
C141   C     0.67376   0.15746   0.26226   0.00000  Uiso   1.00
C142   C     0.75763   0.20725   0.42308   0.00000  Uiso   1.00
C143   C     0.84764   0.32217   0.23818   0.00000  Uiso   1.00
C144   C     0.81820   0.01209   0.26220   0.00000  Uiso   1.00
C145   C     0.82257   0.05608   0.25895   0.00000  Uiso   1.00
C146   C     0.84354   0.27770   0.24137   0.00000  Uiso   1.00
C147   C     0.85491   0.14522   0.14386   0.00000  Uiso   1.00
C148   C     0.81158   0.18756   0.35660   0.00000  Uiso   1.00
C149   C     0.79658   0.19085   0.40065   0.00000  Uiso   1.00
C150   C     0.86450   0.13557   0.10084   0.00000  Uiso   1.00
C151   C     0.74164   0.20165   0.46336   0.00000  Uiso   1.00
C152   C     0.93262   0.10507   0.09749   0.00000  Uiso   1.00
C153   C     0.81932   0.17187   0.42017   0.00000  Uiso   1.00
C154   C     0.73343   0.23187   0.40642   0.00000  Uiso   1.00
C155   C     0.85912   0.09444   0.41834   0.00000  Uiso   1.00
C156   C     0.80219   0.16387   0.46007   0.00000  Uiso   1.00
C157   C     0.76345   0.18068   0.48222   0.00000  Uiso   1.00
C158   C     0.82433   0.14235   0.47926   0.00000  Uiso   1.00
C159   C     0.81297   0.14709   0.02141   0.00000  Uiso   1.00
C160   C     0.77328   0.16224   0.04235   0.00000  Uiso   1.00
C161   C     0.74810   0.17753   0.02313   0.00000  Uiso   1.00
H162   H     0.93575   0.09185   0.01984   0.00000  Uiso   1.00
H163   H     0.76025   0.16159   0.07387   0.00000  Uiso   1.00
H164   H     0.92760   0.11135   0.12925   0.00000  Uiso   1.00
H165   H     0.75019   0.25232   0.38385   0.00000  Uiso   1.00
H166   H     0.83120   0.09112   0.40687   0.00000  Uiso   1.00
H167   H     0.68336   0.19353   0.21490   0.00000  Uiso   1.00
H168   H     0.98474   0.14009   0.28527   0.00000  Uiso   1.00
H169   H     0.87486   0.00278   0.21611   0.00000  Uiso   1.00
H170   H     0.79055   0.33222   0.28429   0.00000  Uiso   1.00
H171   H     0.80873   0.16153   0.10100   0.00000  Uiso   1.00
H172   H     0.91117   0.08750   0.46220   0.00000  Uiso   1.00
H173   H     0.71245   0.21508   0.48013   0.00000  Uiso   1.00
H174   H     0.85124   0.16422   0.40373   0.00000  Uiso   1.00
I175   I     0.68844   0.19770   0.05950   0.00000  Uiso   1.00
O176   O     0.83333   0.16667   0.25000   0.00000  Uiso   1.00
O177   O     0.82360   0.12393   0.16625   0.00000  Uiso   1.00
O178   O     0.79354   0.20646   0.33749   0.00000  Uiso   1.00
O179   O     0.87755   0.17493   0.15877   0.00000  Uiso   1.00
O180   O     0.83865   0.16135   0.33749   0.00000  Uiso   1.00
O181   O     0.96454   0.08853   0.07788   0.00000  Uiso   1.00
O182   O     0.69416   0.23063   0.41885   0.00000  Uiso   1.00
O183   O     0.89154   0.07923   0.39790   0.00000  Uiso   1.00
O184   O     0.84515   0.08101   0.27821   0.00000  Uiso   1.00
O185   O     0.81247   0.26136   0.26767   0.00000  Uiso   1.00
O186   O     0.74119   0.13251   0.23607   0.00000  Uiso   1.00
O187   O     0.93452   0.19179   0.21806   0.00000  Uiso   1.00
O188   O     0.73656   0.18960   0.27820   0.00000  Uiso   1.00
O189   O     0.92106   0.15277   0.26768   0.00000  Uiso   1.00
O190   O     0.80467   0.06903   0.23607   0.00000  Uiso   1.00
O191   O     0.87104   0.25527   0.21806   0.00000  Uiso   1.00
Zn192  Zn    0.85910   0.14090   0.28278   0.00000  Uiso   1.00
Zn193  Zn    0.80125   0.12378   0.22258   0.00000  Uiso   1.00
Zn194  Zn    0.87833   0.19664   0.21188   0.00000  Uiso   1.00
Zn195  Zn    0.79465   0.20535   0.28277   0.00000  Uiso   1.00
C196   C     0.05245   0.49321   0.25880   0.00000  Uiso   1.00
C197   C     0.19059   0.44973   0.45845   0.00000  Uiso   1.00
C198   C     0.21830   0.43912   0.47827   0.00000  Uiso   1.00
C199   C     0.28108   0.50689   0.24122   0.00000  Uiso   1.00
C200   C     0.21169   0.45006   0.01886   0.00000  Uiso   1.00
C201   C     0.17473   0.46942   0.04121   0.00000  Uiso   1.00
C202   C     0.24109   0.44029   0.03745   0.00000  Uiso   1.00
C203   C     0.23467   0.44964   0.07843   0.00000  Uiso   1.00
C204   C     0.16859   0.47868   0.08239   0.00000  Uiso   1.00
C205   C     0.32701   0.50957   0.23766   0.00000  Uiso   1.00
C206   C     0.00709   0.49080   0.26226   0.00000  Uiso   1.00
C207   C     0.09096   0.54058   0.42308   0.00000  Uiso   1.00
C208   C     0.18097   0.65551   0.23818   0.00000  Uiso   1.00
C209   C     0.15153   0.34542   0.26220   0.00000  Uiso   1.00
C210   C     0.15590   0.38942   0.25895   0.00000  Uiso   1.00
C211   C     0.17688   0.61103   0.24137   0.00000  Uiso   1.00
C212   C     0.18824   0.47856   0.14386   0.00000  Uiso   1.00
C213   C     0.14491   0.52089   0.35660   0.00000  Uiso   1.00
C214   C     0.12992   0.52418   0.40065   0.00000  Uiso   1.00
C215   C     0.19784   0.46891   0.10084   0.00000  Uiso   1.00
C216   C     0.07498   0.53498   0.46336   0.00000  Uiso   1.00
C217   C     0.26595   0.43841   0.09749   0.00000  Uiso   1.00
C218   C     0.15266   0.50521   0.42017   0.00000  Uiso   1.00
C219   C     0.06676   0.56521   0.40642   0.00000  Uiso   1.00
C220   C     0.19245   0.42777   0.41834   0.00000  Uiso   1.00
C221   C     0.13553   0.49721   0.46007   0.00000  Uiso   1.00
C222   C     0.09678   0.51401   0.48222   0.00000  Uiso   1.00
C223   C     0.15767   0.47568   0.47926   0.00000  Uiso   1.00
C224   C     0.14630   0.48043   0.02141   0.00000  Uiso   1.00
C225   C     0.10662   0.49557   0.04235   0.00000  Uiso   1.00
C226   C     0.08143   0.51086   0.02313   0.00000  Uiso   1.00
H227   H     0.26908   0.42518   0.01984   0.00000  Uiso   1.00
H228   H     0.09359   0.49492   0.07387   0.00000  Uiso   1.00
H229   H     0.26094   0.44468   0.12925   0.00000  Uiso   1.00
H230   H     0.08353   0.58566   0.38385   0.00000  Uiso   1.00
H231   H     0.16454   0.42445   0.40687   0.00000  Uiso   1.00
H232   H     0.01670   0.52686   0.21490   0.00000  Uiso   1.00
H233   H     0.31807   0.47343   0.28527   0.00000  Uiso   1.00
H234   H     0.20820   0.33612   0.21611   0.00000  Uiso   1.00
H235   H     0.12389   0.66556   0.28429   0.00000  Uiso   1.00
H236   H     0.14206   0.49486   0.10100   0.00000  Uiso   1.00
H237   H     0.24450   0.42084   0.46220   0.00000  Uiso   1.00
H238   H     0.04578   0.54841   0.48013   0.00000  Uiso   1.00
H239   H     0.18458   0.49755   0.40373   0.00000  Uiso   1.00
I240   I     0.02177   0.53103   0.05950   0.00000  Uiso   1.00
O241   O     0.16667   0.50000   0.25000   0.00000  Uiso   1.00
O242   O     0.15693   0.45726   0.16625   0.00000  Uiso   1.00
O243   O     0.12687   0.53979   0.33749   0.00000  Uiso   1.00
O244   O     0.21088   0.50826   0.15877   0.00000  Uiso   1.00
O245   O     0.17198   0.49468   0.33749   0.00000  Uiso   1.00
O246   O     0.29788   0.42186   0.07788   0.00000  Uiso   1.00
O247   O     0.02749   0.56396   0.41885   0.00000  Uiso   1.00
O248   O     0.22488   0.41256   0.39790   0.00000  Uiso   1.00
O249   O     0.17849   0.41434   0.27821   0.00000  Uiso   1.00
O250   O     0.14581   0.59469   0.26767   0.00000  Uiso   1.00
O251   O     0.07452   0.46584   0.23607   0.00000  Uiso   1.00
O252   O     0.26785   0.52512   0.21806   0.00000  Uiso   1.00
O253   O     0.06990   0.52293   0.27820   0.00000  Uiso   1.00
O254   O     0.25440   0.48610   0.26768   0.00000  Uiso   1.00
O255   O     0.13800   0.40236   0.23607   0.00000  Uiso   1.00
O256   O     0.20437   0.58860   0.21806   0.00000  Uiso   1.00
Zn257  Zn    0.19244   0.47423   0.28278   0.00000  Uiso   1.00
Zn258  Zn    0.13459   0.45711   0.22258   0.00000  Uiso   1.00
Zn259  Zn    0.21166   0.52997   0.21188   0.00000  Uiso   1.00
Zn260  Zn    0.12798   0.53868   0.28277   0.00000  Uiso   1.00
C261   C     0.38579   0.49321   0.25880   0.00000  Uiso   1.00
C262   C     0.52392   0.44973   0.45845   0.00000  Uiso   1.00
C263   C     0.55164   0.43912   0.47827   0.00000  Uiso   1.00
C264   C     0.61441   0.50689   0.24122   0.00000  Uiso   1.00
C265   C     0.54502   0.45006   0.01886   0.00000  Uiso   1.00
C266   C     0.50807   0.46942   0.04121   0.00000  Uiso   1.00
C267   C     0.57442   0.44029   0.03745   0.00000  Uiso   1.00
C268   C     0.56801   0.44964   0.07843   0.00000  Uiso   1.00
C269   C     0.50193   0.47868   0.08239   0.00000  Uiso   1.00
C270   C     0.66035   0.50957   0.23766   0.00000  Uiso   1.00
C271   C     0.34042   0.49080   0.26226   0.00000  Uiso   1.00
C272   C     0.42429   0.54058   0.42308   0.00000  Uiso   1.00
C273   C     0.51431   0.65551   0.23818   0.00000  Uiso   1.00
C274   C     0.48487   0.34542   0.26220   0.00000  Uiso   1.00
C275   C     0.48923   0.38942   0.25895   0.00000  Uiso   1.00
C276   C     0.51021   0.61103   0.24137   0.00000  Uiso   1.00
C277   C     0.52157   0.47856   0.14386   0.00000  Uiso   1.00
C278   C     0.47825   0.52089   0.35660   0.00000  Uiso   1.00
C279   C     0.46325   0.52418   0.40065   0.00000  Uiso   1.00
C280   C     0.53117   0.46891   0.10084   0.00000  Uiso   1.00
C281   C     0.40831   0.53498   0.46336   0.00000  Uiso   1.00
C282   C     0.59929   0.43841   0.09749   0.00000  Uiso   1.00
C283   C     0.48599   0.50521   0.42017   0.00000  Uiso   1.00
C284   C     0.40010   0.56521   0.40642   0.00000  Uiso   1.00
C285   C     0.52579   0.42777   0.41834   0.00000  Uiso   1.00
C286   C     0.46886   0.49721   0.46007   0.00000  Uiso   1.00
C287   C     0.43012   0.51401   0.48222   0.00000  Uiso   1.00
C288   C     0.49100   0.47568   0.47926   0.00000  Uiso   1.00
C289   C     0.47964   0.48043   0.02141   0.00000  Uiso   1.00
C290   C     0.43995   0.49557   0.04235   0.00000  Uiso   1.00
C291   C     0.41477   0.51086   0.02313   0.00000  Uiso   1.00
H292   H     0.60241   0.42518   0.01984   0.00000  Uiso   1.00
H293   H     0.42692   0.49492   0.07387   0.00000  Uiso   1.00
H294   H     0.59427   0.44468   0.12925   0.00000  Uiso   1.00
H295   H     0.41686   0.58566   0.38385   0.00000  Uiso   1.00
H296   H     0.49787   0.42445   0.40687   0.00000  Uiso   1.00
H297   H     0.35003   0.52686   0.21490   0.00000  Uiso   1.00
H298   H     0.65140   0.47343   0.28527   0.00000  Uiso   1.00
H299   H     0.54153   0.33612   0.21611   0.00000  Uiso   1.00
H300   H     0.45722   0.66556   0.28429   0.00000  Uiso   1.00
H301   H     0.47540   0.49486   0.10100   0.00000  Uiso   1.00
H302   H     0.57783   0.42084   0.46220   0.00000  Uiso   1.00
H303   H     0.37911   0.54841   0.48013   0.00000  Uiso   1.00
H304   H     0.51791   0.49755   0.40373   0.00000  Uiso   1.00
I305   I     0.35511   0.53103   0.05950   0.00000  Uiso   1.00
O306   O     0.50000   0.50000   0.25000   0.00000  Uiso   1.00
O307   O     0.49027   0.45726   0.16625   0.00000  Uiso   1.00
O308   O     0.46020   0.53979   0.33749   0.00000  Uiso   1.00
O309   O     0.54421   0.50826   0.15877   0.00000  Uiso   1.00
O310   O     0.50532   0.49468   0.33749   0.00000  Uiso   1.00
O311   O     0.63121   0.42186   0.07788   0.00000  Uiso   1.00
O312   O     0.36083   0.56396   0.41885   0.00000  Uiso   1.00
O313   O     0.55821   0.41256   0.39790   0.00000  Uiso   1.00
O314   O     0.51182   0.41434   0.27821   0.00000  Uiso   1.00
O315   O     0.47914   0.59469   0.26767   0.00000  Uiso   1.00
O316   O     0.40785   0.46584   0.23607   0.00000  Uiso   1.00
O317   O     0.60119   0.52512   0.21806   0.00000  Uiso   1.00
O318   O     0.40323   0.52293   0.27820   0.00000  Uiso   1.00
O319   O     0.58773   0.48610   0.26768   0.00000  Uiso   1.00
O320   O     0.47133   0.40236   0.23607   0.00000  Uiso   1.00
O321   O     0.53771   0.58860   0.21806   0.00000  Uiso   1.00
Zn322  Zn    0.52577   0.47423   0.28278   0.00000  Uiso   1.00
Zn323  Zn    0.46792   0.45711   0.22258   0.00000  Uiso   1.00
Zn324  Zn    0.54500   0.52997   0.21188   0.00000  Uiso   1.00
Zn325  Zn    0.46131   0.53868   0.28277   0.00000  Uiso   1.00
C326   C     0.71912   0.49321   0.25880   0.00000  Uiso   1.00
C327   C     0.85725   0.44973   0.45845   0.00000  Uiso   1.00
C328   C     0.88497   0.43912   0.47827   0.00000  Uiso   1.00
C329   C     0.94774   0.50689   0.24122   0.00000  Uiso   1.00
C330   C     0.87835   0.45006   0.01886   0.00000  Uiso   1.00
C331   C     0.84140   0.46942   0.04121   0.00000  Uiso   1.00
C332   C     0.90776   0.44029   0.03745   0.00000  Uiso   1.00
C333   C     0.90134   0.44964   0.07843   0.00000  Uiso   1.00
C334   C     0.83526   0.47868   0.08239   0.00000  Uiso   1.00
C335   C     0.99368   0.50957   0.23766   0.00000  Uiso   1.00
C336   C     0.67376   0.49080   0.26226   0.00000  Uiso   1.00
C337   C     0.75763   0.54058   0.42308   0.00000  Uiso   1.00
C338   C     0.84764   0.65551   0.23818   0.00000  Uiso   1.00
C339   C     0.81820   0.34542   0.26220   0.00000  Uiso   1.00
C340   C     0.82257   0.38942   0.25895   0.00000  Uiso   1.00
C341   C     0.84354   0.61103   0.24137   0.00000  Uiso   1.00
C342   C     0.85491   0.47856   0.14386   0.00000  Uiso   1.00
C343   C     0.81158   0.52089   0.35660   0.00000  Uiso   1.00
C344   C     0.79658   0.52418   0.40065   0.00000  Uiso   1.00
C345   C     0.86450   0.46891   0.10084   0.00000  Uiso   1.00
C346   C     0.74164   0.53498   0.46336   0.00000  Uiso   1.00
C347   C     0.93262   0.43841   0.09749   0.00000  Uiso   1.00
C348   C     0.81932   0.50521   0.42017   0.00000  Uiso   1.00
C349   C     0.73343   0.56521   0.40642   0.00000  Uiso   1.00
C350   C     0.85912   0.42777   0.41834   0.00000  Uiso   1.00
C351   C     0.80219   0.49721   0.46007   0.00000  Uiso   1.00
C352   C     0.76345   0.51401   0.48222   0.00000  Uiso   1.00
C353   C     0.82433   0.47568   0.47926   0.00000  Uiso   1.00
C354   C     0.81297   0.48043   0.02141   0.00000  Uiso   1.00
C355   C     0.77328   0.49557   0.04235   0.00000  Uiso   1.00
C356   C     0.74810   0.51086   0.02313   0.00000  Uiso   1.00
H357   H     0.93575   0.42518   0.01984   0.00000  Uiso   1.00
H358   H     0.76025   0.49492   0.07387   0.00000  Uiso   1.00
H359   H     0.92760   0.44468   0.12925   0.00000  Uiso   1.00
H360   H     0.75019   0.58566   0.38385   0.00000  Uiso   1.00
H361   H     0.83120   0.42445   0.40687   0.00000  Uiso   1.00
H362   H     0.68336   0.52686   0.21490   0.00000  Uiso   1.00
H363   H     0.98474   0.47343   0.28527   0.00000  Uiso   1.00
H364   H     0.87486   0.33612   0.21611   0.00000  Uiso   1.00
H365   H     0.79055   0.66556   0.28429   0.00000  Uiso   1.00
H366   H     0.80873   0.49486   0.10100   0.00000  Uiso   1.00
H367   H     0.91117   0.42084   0.46220   0.00000  Uiso   1.00
H368   H     0.71245   0.54841   0.48013   0.00000  Uiso   1.00
H369   H     0.85124   0.49755   0.40373   0.00000  Uiso   1.00
I370   I     0.68844   0.53103   0.05950   0.00000  Uiso   1.00
O371   O     0.83333   0.50000   0.25000   0.00000  Uiso   1.00
O372   O     0.82360   0.45726   0.16625   0.00000  Uiso   1.00
O373   O     0.79354   0.53979   0.33749   0.00000  Uiso   1.00
O374   O     0.87755   0.50826   0.15877   0.00000  Uiso   1.00
O375   O     0.83865   0.49468   0.33749   0.00000  Uiso   1.00
O376   O     0.96454   0.42186   0.07788   0.00000  Uiso   1.00
O377   O     0.69416   0.56396   0.41885   0.00000  Uiso   1.00
O378   O     0.89154   0.41256   0.39790   0.00000  Uiso   1.00
O379   O     0.84515   0.41434   0.27821   0.00000  Uiso   1.00
O380   O     0.81247   0.59469   0.26767   0.00000  Uiso   1.00
O381   O     0.74119   0.46584   0.23607   0.00000  Uiso   1.00
O382   O     0.93452   0.52512   0.21806   0.00000  Uiso   1.00
O383   O     0.73656   0.52293   0.27820   0.00000  Uiso   1.00
O384   O     0.92106   0.48610   0.26768   0.00000  Uiso   1.00
O385   O     0.80467   0.40236   0.23607   0.00000  Uiso   1.00
O386   O     0.87104   0.58860   0.21806   0.00000  Uiso   1.00
Zn387  Zn    0.85910   0.47423   0.28278   0.00000  Uiso   1.00
Zn388  Zn    0.80125   0.45711   0.22258   0.00000  Uiso   1.00
Zn389  Zn    0.87833   0.52997   0.21188   0.00000  Uiso   1.00
Zn390  Zn    0.79465   0.53868   0.28277   0.00000  Uiso   1.00
C391   C     0.05245   0.82654   0.25880   0.00000  Uiso   1.00
C392   C     0.19059   0.78306   0.45845   0.00000  Uiso   1.00
C393   C     0.21830   0.77245   0.47827   0.00000  Uiso   1.00
C394   C     0.28108   0.84023   0.24122   0.00000  Uiso   1.00
C395   C     0.21169   0.78339   0.01886   0.00000  Uiso   1.00
C396   C     0.17473   0.80275   0.04121   0.00000  Uiso   1.00
C397   C     0.24109   0.77362   0.03745   0.00000  Uiso   1.00
C398   C     0.23467   0.78298   0.07843   0.00000  Uiso   1.00
C399   C     0.16859   0.81201   0.08239   0.00000  Uiso   1.00
C400   C     0.32701   0.84290   0.23766   0.00000  Uiso   1.00
C401   C     0.00709   0.82413   0.26226   0.00000  Uiso   1.00
C402   C     0.09096   0.87391   0.42308   0.00000  Uiso   1.00
C403   C     0.18097   0.98884   0.23818   0.00000  Uiso   1.00
C404   C     0.15153   0.67875   0.26220   0.00000  Uiso   1.00
C405   C     0.15590   0.72275   0.25895   0.00000  Uiso   1.00
C406   C     0.17688   0.94436   0.24137   0.00000  Uiso   1.00
C407   C     0.18824   0.81189   0.14386   0.00000  Uiso   1.00
C408   C     0.14491   0.85423   0.35660   0.00000  Uiso   1.00
C409   C     0.12992   0.85751   0.40065   0.00000  Uiso   1.00
C410   C     0.19784   0.80224   0.10084   0.00000  Uiso   1.00
C411   C     0.07498   0.86832   0.46336   0.00000  Uiso   1.00
C412   C     0.26595   0.77174   0.09749   0.00000  Uiso   1.00
C413   C     0.15266   0.83854   0.42017   0.00000  Uiso   1.00
C414   C     0.06676   0.89854   0.40642   0.00000  Uiso   1.00
C415   C     0.19245   0.76110   0.41834   0.00000  Uiso   1.00
C416   C     0.13553   0.83054   0.46007   0.00000  Uiso   1.00
C417   C     0.09678   0.84734   0.48222   0.00000  Uiso   1.00
C418   C     0.15767   0.80902   0.47926   0.00000  Uiso   1.00
C419   C     0.14630   0.81376   0.02141   0.00000  Uiso   1.00
C420   C     0.10662   0.82890   0.04235   0.00000  Uiso   1.00
C421   C     0.08143   0.84419   0.02313   0.00000  Uiso   1.00
H422   H     0.26908   0.75851   0.01984   0.00000  Uiso   1.00
H423   H     0.09359   0.82825   0.07387   0.00000  Uiso   1.00
H424   H     0.26094   0.77802   0.12925   0.00000  Uiso   1.00
H425   H     0.08353   0.91899   0.38385   0.00000  Uiso   1.00
H426   H     0.16454   0.75779   0.40687   0.00000  Uiso   1.00
H427   H     0.01670   0.86020   0.21490   0.00000  Uiso   1.00
H428   H     0.31807   0.80676   0.28527   0.00000  Uiso   1.00
H429   H     0.20820   0.66945   0.21611   0.00000  Uiso   1.00
H430   H     0.12389   0.99889   0.28429   0.00000  Uiso   1.00
H431   H     0.14206   0.82820   0.10100   0.00000  Uiso   1.00
H432   H     0.24450   0.75417   0.46220   0.00000  Uiso   1.00
H433   H     0.04578   0.88174   0.48013   0.00000  Uiso   1.00
H434   H     0.18458   0.83089   0.40373   0.00000  Uiso   1.00
I435   I     0.02177   0.86437   0.05950   0.00000  Uiso   1.00
O436   O     0.16667   0.83333   0.25000   0.00000  Uiso   1.00
O437   O     0.15693   0.79060   0.16625   0.00000  Uiso   1.00
O438   O     0.12687   0.87313   0.33749   0.00000  Uiso   1.00
O439   O     0.21088   0.84159   0.15877   0.00000  Uiso   1.00
O440   O     0.17198   0.82802   0.33749   0.00000  Uiso   1.00
O441   O     0.29788   0.75520   0.07788   0.00000  Uiso   1.00
O442   O     0.02749   0.89729   0.41885   0.00000  Uiso   1.00
O443   O     0.22488   0.74589   0.39790   0.00000  Uiso   1.00
O444   O     0.17849   0.74768   0.27821   0.00000  Uiso   1.00
O445   O     0.14581   0.92803   0.26767   0.00000  Uiso   1.00
O446   O     0.07452   0.79917   0.23607   0.00000  Uiso   1.00
O447   O     0.26785   0.85845   0.21806   0.00000  Uiso   1.00
O448   O     0.06990   0.85627   0.27820   0.00000  Uiso   1.00
O449   O     0.25440   0.81944   0.26768   0.00000  Uiso   1.00
O450   O     0.13800   0.73570   0.23607   0.00000  Uiso   1.00
O451   O     0.20437   0.92193   0.21806   0.00000  Uiso   1.00
Zn452  Zn    0.19244   0.80756   0.28278   0.00000  Uiso   1.00
Zn453  Zn    0.13459   0.79044   0.22258   0.00000  Uiso   1.00
Zn454  Zn    0.21166   0.86331   0.21188   0.00000  Uiso   1.00
Zn455  Zn    0.12798   0.87202   0.28277   0.00000  Uiso   1.00
C456   C     0.38579   0.82654   0.25880   0.00000  Uiso   1.00
C457   C     0.52392   0.78306   0.45845   0.00000  Uiso   1.00
C458   C     0.55164   0.77245   0.47827   0.00000  Uiso   1.00
C459   C     0.61441   0.84023   0.24122   0.00000  Uiso   1.00
C460   C     0.54502   0.78339   0.01886   0.00000  Uiso   1.00
C461   C     0.50807   0.80275   0.04121   0.00000  Uiso   1.00
C462   C     0.57442   0.77362   0.03745   0.00000  Uiso   1.00
C463   C     0.56801   0.78298   0.07843   0.00000  Uiso   1.00
C464   C     0.50193   0.81201   0.08239   0.00000  Uiso   1.00
C465   C     0.66035   0.84290   0.23766   0.00000  Uiso   1.00
C466   C     0.34042   0.82413   0.26226   0.00000  Uiso   1.00
C467   C     0.42429   0.87391   0.42308   0.00000  Uiso   1.00
C468   C     0.51431   0.98884   0.23818   0.00000  Uiso   1.00
C469   C     0.48487   0.67875   0.26220   0.00000  Uiso   1.00
C470   C     0.48923   0.72275   0.25895   0.00000  Uiso   1.00
C471   C     0.51021   0.94436   0.24137   0.00000  Uiso   1.00
C472   C     0.52157   0.81189   0.14386   0.00000  Uiso   1.00
C473   C     0.47825   0.85423   0.35660   0.00000  Uiso   1.00
C474   C     0.46325   0.85751   0.40065   0.00000  Uiso   1.00
C475   C     0.53117   0.80224   0.10084   0.00000  Uiso   1.00
C476   C     0.40831   0.86832   0.46336   0.00000  Uiso   1.00
C477   C     0.59929   0.77174   0.09749   0.00000  Uiso   1.00
C478   C     0.48599   0.83854   0.42017   0.00000  Uiso   1.00
C479   C     0.40010   0.89854   0.40642   0.00000  Uiso   1.00
C480   C     0.52579   0.76110   0.41834   0.00000  Uiso   1.00
C481   C     0.46886   0.83054   0.46007   0.00000  Uiso   1.00
C482   C     0.43012   0.84734   0.48222   0.00000  Uiso   1.00
C483   C     0.49100   0.80902   0.47926   0.00000  Uiso   1.00
C484   C     0.47964   0.81376   0.02141   0.00000  Uiso   1.00
C485   C     0.43995   0.82890   0.04235   0.00000  Uiso   1.00
C486   C     0.41477   0.84419   0.02313   0.00000  Uiso   1.00
H487   H     0.60241   0.75851   0.01984   0.00000  Uiso   1.00
H488   H     0.42692   0.82825   0.07387   0.00000  Uiso   1.00
H489   H     0.59427   0.77802   0.12925   0.00000  Uiso   1.00
H490   H     0.41686   0.91899   0.38385   0.00000  Uiso   1.00
H491   H     0.49787   0.75779   0.40687   0.00000  Uiso   1.00
H492   H     0.35003   0.86020   0.21490   0.00000  Uiso   1.00
H493   H     0.65140   0.80676   0.28527   0.00000  Uiso   1.00
H494   H     0.54153   0.66945   0.21611   0.00000  Uiso   1.00
H495   H     0.45722   0.99889   0.28429   0.00000  Uiso   1.00
H496   H     0.47540   0.82820   0.10100   0.00000  Uiso   1.00
H497   H     0.57783   0.75417   0.46220   0.00000  Uiso   1.00
H498   H     0.37911   0.88174   0.48013   0.00000  Uiso   1.00
H499   H     0.51791   0.83089   0.40373   0.00000  Uiso   1.00
I500   I     0.35511   0.86437   0.05950   0.00000  Uiso   1.00
O501   O     0.50000   0.83333   0.25000   0.00000  Uiso   1.00
O502   O     0.49027   0.79060   0.16625   0.00000  Uiso   1.00
O503   O     0.46020   0.87313   0.33749   0.00000  Uiso   1.00
O504   O     0.54421   0.84159   0.15877   0.00000  Uiso   1.00
O505   O     0.50532   0.82802   0.33749   0.00000  Uiso   1.00
O506   O     0.63121   0.75520   0.07788   0.00000  Uiso   1.00
O507   O     0.36083   0.89729   0.41885   0.00000  Uiso   1.00
O508   O     0.55821   0.74589   0.39790   0.00000  Uiso   1.00
O509   O     0.51182   0.74768   0.27821   0.00000  Uiso   1.00
O510   O     0.47914   0.92803   0.26767   0.00000  Uiso   1.00
O511   O     0.40785   0.79917   0.23607   0.00000  Uiso   1.00
O512   O     0.60119   0.85845   0.21806   0.00000  Uiso   1.00
O513   O     0.40323   0.85627   0.27820   0.00000  Uiso   1.00
O514   O     0.58773   0.81944   0.26768   0.00000  Uiso   1.00
O515   O     0.47133   0.73570   0.23607   0.00000  Uiso   1.00
O516   O     0.53771   0.92193   0.21806   0.00000  Uiso   1.00
Zn517  Zn    0.52577   0.80756   0.28278   0.00000  Uiso   1.00
Zn518  Zn    0.46792   0.79044   0.22258   0.00000  Uiso   1.00
Zn519  Zn    0.54500   0.86331   0.21188   0.00000  Uiso   1.00
Zn520  Zn    0.46131   0.87202   0.28277   0.00000  Uiso   1.00
C521   C     0.71912   0.82654   0.25880   0.00000  Uiso   1.00
C522   C     0.85725   0.78306   0.45845   0.00000  Uiso   1.00
C523   C     0.88497   0.77245   0.47827   0.00000  Uiso   1.00
C524   C     0.94774   0.84023   0.24122   0.00000  Uiso   1.00
C525   C     0.87835   0.78339   0.01886   0.00000  Uiso   1.00
C526   C     0.84140   0.80275   0.04121   0.00000  Uiso   1.00
C527   C     0.90776   0.77362   0.03745   0.00000  Uiso   1.00
C528   C     0.90134   0.78298   0.07843   0.00000  Uiso   1.00
C529   C     0.83526   0.81201   0.08239   0.00000  Uiso   1.00
C530   C     0.99368   0.84290   0.23766   0.00000  Uiso   1.00
C531   C     0.67376   0.82413   0.26226   0.00000  Uiso   1.00
C532   C     0.75763   0.87391   0.42308   0.00000  Uiso   1.00
C533   C     0.84764   0.98884   0.23818   0.00000  Uiso   1.00
C534   C     0.81820   0.67875   0.26220   0.00000  Uiso   1.00
C535   C     0.82257   0.72275   0.25895   0.00000  Uiso   1.00
C536   C     0.84354   0.94436   0.24137   0.00000  Uiso   1.00
C537   C     0.85491   0.81189   0.14386   0.00000  Uiso   1.00
C538   C     0.81158   0.85423   0.35660   0.00000  Uiso   1.00
C539   C     0.79658   0.85751   0.40065   0.00000  Uiso   1.00
C540   C     0.86450   0.80224   0.10084   0.00000  Uiso   1.00
C541   C     0.74164   0.86832   0.46336   0.00000  Uiso   1.00
C542   C     0.93262   0.77174   0.09749   0.00000  Uiso   1.00
C543   C     0.81932   0.83854   0.42017   0.00000  Uiso   1.00
C544   C     0.73343   0.89854   0.40642   0.00000  Uiso   1.00
C545   C     0.85912   0.76110   0.41834   0.00000  Uiso   1.00
C546   C     0.80219   0.83054   0.46007   0.00000  Uiso   1.00
C547   C     0.76345   0.84734   0.48222   0.00000  Uiso   1.00
C548   C     0.82433   0.80902   0.47926   0.00000  Uiso   1.00
C549   C     0.81297   0.81376   0.02141   0.00000  Uiso   1.00
C550   C     0.77328   0.82890   0.04235   0.00000  Uiso   1.00
C551   C     0.74810   0.84419   0.02313   0.00000  Uiso   1.00
H552   H     0.93575   0.75851   0.01984   0.00000  Uiso   1.00
H553   H     0.76025   0.82825   0.07387   0.00000  Uiso   1.00
H554   H     0.92760   0.77802   0.12925   0.00000  Uiso   1.00
H555   H     0.75019   0.91899   0.38385   0.00000  Uiso   1.00
H556   H     0.83120   0.75779   0.40687   0.00000  Uiso   1.00
H557   H     0.68336   0.86020   0.21490   0.00000  Uiso   1.00
H558   H     0.98474   0.80676   0.28527   0.00000  Uiso   1.00
H559   H     0.87486   0.66945   0.21611   0.00000  Uiso   1.00
H560   H     0.79055   0.99889   0.28429   0.00000  Uiso   1.00
H561   H     0.80873   0.82820   0.10100   0.00000  Uiso   1.00
H562   H     0.91117   0.75417   0.46220   0.00000  Uiso   1.00
H563   H     0.71245   0.88174   0.48013   0.00000  Uiso   1.00
H564   H     0.85124   0.83089   0.40373   0.00000  Uiso   1.00
I565   I     0.68844   0.86437   0.05950   0.00000  Uiso   1.00
O566   O     0.83333   0.83333   0.25000   0.00000  Uiso   1.00
O567   O     0.82360   0.79060   0.16625   0.00000  Uiso   1.00
O568   O     0.79354   0.87313   0.33749   0.00000  Uiso   1.00
O569   O     0.87755   0.84159   0.15877   0.00000  Uiso   1.00
O570   O     0.83865   0.82802   0.33749   0.00000  Uiso   1.00
O571   O     0.96454   0.75520   0.07788   0.00000  Uiso   1.00
O572   O     0.69416   0.89729   0.41885   0.00000  Uiso   1.00
O573   O     0.89154   0.74589   0.39790   0.00000  Uiso   1.00
O574   O     0.84515   0.74768   0.27821   0.00000  Uiso   1.00
O575   O     0.81247   0.92803   0.26767   0.00000  Uiso   1.00
O576   O     0.74119   0.79917   0.23607   0.00000  Uiso   1.00
O577   O     0.93452   0.85845   0.21806   0.00000  Uiso   1.00
O578   O     0.73656   0.85627   0.27820   0.00000  Uiso   1.00
O579   O     0.92106   0.81944   0.26768   0.00000  Uiso   1.00
O580   O     0.80467   0.73570   0.23607   0.00000  Uiso   1.00
O581   O     0.87104   0.92193   0.21806   0.00000  Uiso   1.00
Zn582  Zn    0.85910   0.80756   0.28278   0.00000  Uiso   1.00
Zn583  Zn    0.80125   0.79044   0.22258   0.00000  Uiso   1.00
Zn584  Zn    0.87833   0.86331   0.21188   0.00000  Uiso   1.00
Zn585  Zn    0.79465   0.87202   0.28277   0.00000  Uiso   1.00
C586   C     0.05245   0.15988   0.75880   0.00000  Uiso   1.00
C587   C     0.19059   0.11639   0.95845   0.00000  Uiso   1.00
C588   C     0.21830   0.10579   0.97827   0.00000  Uiso   1.00
C589   C     0.28108   0.17356   0.74122   0.00000  Uiso   1.00
C590   C     0.21169   0.11673   0.51886   0.00000  Uiso   1.00
C591   C     0.17473   0.13609   0.54121   0.00000  Uiso   1.00
C592   C     0.24109   0.10695   0.53745   0.00000  Uiso   1.00
C593   C     0.23467   0.11631   0.57843   0.00000  Uiso   1.00
C594   C     0.16859   0.14534   0.58239   0.00000  Uiso   1.00
C595   C     0.32701   0.17624   0.73766   0.00000  Uiso   1.00
C596   C     0.00709   0.15746   0.76226   0.00000  Uiso   1.00
C597   C     0.09096   0.20725   0.92308   0.00000  Uiso   1.00
C598   C     0.18097   0.32217   0.73818   0.00000  Uiso   1.00
C599   C     0.15153   0.01209   0.76220   0.00000  Uiso   1.00
C600   C     0.15590   0.05608   0.75895   0.00000  Uiso   1.00
C601   C     0.17688   0.27770   0.74137   0.00000  Uiso   1.00
C602   C     0.18824   0.14522   0.64386   0.00000  Uiso   1.00
C603   C     0.14491   0.18756   0.85660   0.00000  Uiso   1.00
C604   C     0.12992   0.19085   0.90065   0.00000  Uiso   1.00
C605   C     0.19784   0.13557   0.60084   0.00000  Uiso   1.00
C606   C     0.07498   0.20165   0.96336   0.00000  Uiso   1.00
C607   C     0.26595   0.10507   0.59749   0.00000  Uiso   1.00
C608   C     0.15266   0.17187   0.92017   0.00000  Uiso   1.00
C609   C     0.06676   0.23187   0.90642   0.00000  Uiso   1.00
C610   C     0.19245   0.09444   0.91834   0.00000  Uiso   1.00
C611   C     0.13553   0.16387   0.96007   0.00000  Uiso   1.00
C612   C     0.09678   0.18068   0.98222   0.00000  Uiso   1.00
C613   C     0.15767   0.14235   0.97926   0.00000  Uiso   1.00
C614   C     0.14630   0.14709   0.52141   0.00000  Uiso   1.00
C615   C     0.10662   0.16224   0.54235   0.00000  Uiso   1.00
C616   C     0.08143   0.17753   0.52313   0.00000  Uiso   1.00
H617   H     0.26908   0.09185   0.51984   0.00000  Uiso   1.00
H618   H     0.09359   0.16159   0.57387   0.00000  Uiso   1.00
H619   H     0.26094   0.11135   0.62925   0.00000  Uiso   1.00
H620   H     0.08353   0.25232   0.88385   0.00000  Uiso   1.00
H621   H     0.16454   0.09112   0.90687   0.00000  Uiso   1.00
H622   H     0.01670   0.19353   0.71490   0.00000  Uiso   1.00
H623   H     0.31807   0.14009   0.78527   0.00000  Uiso   1.00
H624   H     0.20820   0.00278   0.71611   0.00000  Uiso   1.00
H625   H     0.12389   0.33222   0.78429   0.00000  Uiso   1.00
H626   H     0.14206   0.16153   0.60100   0.00000  Uiso   1.00
H627   H     0.24450   0.08750   0.96220   0.00000  Uiso   1.00
H628   H     0.04578   0.21508   0.98013   0.00000  Uiso   1.00
H629   H     0.18458   0.16422   0.90373   0.00000  Uiso   1.00
I630   I     0.02177   0.19770   0.55950   0.00000  Uiso   1.00
O631   O     0.16667   0.16667   0.75000   0.00000  Uiso   1.00
O632   O     0.15693   0.12393   0.66625   0.00000  Uiso   1.00
O633   O     0.12687   0.20646   0.83749   0.00000  Uiso   1.00
O634   O     0.21088   0.17493   0.65877   0.00000  Uiso   1.00
O635   O     0.17198   0.16135   0.83749   0.00000  Uiso   1.00
O636   O     0.29788   0.08853   0.57788   0.00000  Uiso   1.00
O637   O     0.02749   0.23063   0.91885   0.00000  Uiso   1.00
O638   O     0.22488   0.07923   0.89790   0.00000  Uiso   1.00
O639   O     0.17849   0.08101   0.77821   0.00000  Uiso   1.00
O640   O     0.14581   0.26136   0.76767   0.00000  Uiso   1.00
O641   O     0.07452   0.13251   0.73607   0.00000  Uiso   1.00
O642   O     0.26785   0.19179   0.71806   0.00000  Uiso   1.00
O643   O     0.06990   0.18960   0.77820   0.00000  Uiso   1.00
O644   O     0.25440   0.15277   0.76768   0.00000  Uiso   1.00
O645   O     0.13800   0.06903   0.73607   0.00000  Uiso   1.00
O646   O     0.20437   0.25527   0.71806   0.00000  Uiso   1.00
Zn647  Zn    0.19244   0.14090   0.78278   0.00000  Uiso   1.00
Zn648  Zn    0.13459   0.12378   0.72258   0.00000  Uiso   1.00
Zn649  Zn    0.21166   0.19664   0.71188   0.00000  Uiso   1.00
Zn650  Zn    0.12798   0.20535   0.78277   0.00000  Uiso   1.00
C651   C     0.38579   0.15988   0.75880   0.00000  Uiso   1.00
C652   C     0.52392   0.11639   0.95845   0.00000  Uiso   1.00
C653   C     0.55164   0.10579   0.97827   0.00000  Uiso   1.00
C654   C     0.61441   0.17356   0.74122   0.00000  Uiso   1.00
C655   C     0.54502   0.11673   0.51886   0.00000  Uiso   1.00
C656   C     0.50807   0.13609   0.54121   0.00000  Uiso   1.00
C657   C     0.57442   0.10695   0.53745   0.00000  Uiso   1.00
C658   C     0.56801   0.11631   0.57843   0.00000  Uiso   1.00
C659   C     0.50193   0.14534   0.58239   0.00000  Uiso   1.00
C660   C     0.66035   0.17624   0.73766   0.00000  Uiso   1.00
C661   C     0.34042   0.15746   0.76226   0.00000  Uiso   1.00
C662   C     0.42429   0.20725   0.92308   0.00000  Uiso   1.00
C663   C     0.51431   0.32217   0.73818   0.00000  Uiso   1.00
C664   C     0.48487   0.01209   0.76220   0.00000  Uiso   1.00
C665   C     0.48923   0.05608   0.75895   0.00000  Uiso   1.00
C666   C     0.51021   0.27770   0.74137   0.00000  Uiso   1.00
C667   C     0.52157   0.14522   0.64386   0.00000  Uiso   1.00
C668   C     0.47825   0.18756   0.85660   0.00000  Uiso   1.00
C669   C     0.46325   0.19085   0.90065   0.00000  Uiso   1.00
C670   C     0.53117   0.13557   0.60084   0.00000  Uiso   1.00
C671   C     0.40831   0.20165   0.96336   0.00000  Uiso   1.00
C672   C     0.59929   0.10507   0.59749   0.00000  Uiso   1.00
C673   C     0.48599   0.17187   0.92017   0.00000  Uiso   1.00
C674   C     0.40010   0.23187   0.90642   0.00000  Uiso   1.00
C675   C     0.52579   0.09444   0.91834   0.00000  Uiso   1.00
C676   C     0.46886   0.16387   0.96007   0.00000  Uiso   1.00
C677   C     0.43012   0.18068   0.98222   0.00000  Uiso   1.00
C678   C     0.49100   0.14235   0.97926   0.00000  Uiso   1.00
C679   C     0.47964   0.14709   0.52141   0.00000  Uiso   1.00
C680   C     0.43995   0.16224   0.54235   0.00000  Uiso   1.00
C681   C     0.41477   0.17753   0.52313   0.00000  Uiso   1.00
H682   H     0.60241   0.09185   0.51984   0.00000  Uiso   1.00
H683   H     0.42692   0.16159   0.57387   0.00000  Uiso   1.00
H684   H     0.59427   0.11135   0.62925   0.00000  Uiso   1.00
H685   H     0.41686   0.25232   0.88385   0.00000  Uiso   1.00
H686   H     0.49787   0.09112   0.90687   0.00000  Uiso   1.00
H687   H     0.35003   0.19353   0.71490   0.00000  Uiso   1.00
H688   H     0.65140   0.14009   0.78527   0.00000  Uiso   1.00
H689   H     0.54153   0.00278   0.71611   0.00000  Uiso   1.00
H690   H     0.45722   0.33222   0.78429   0.00000  Uiso   1.00
H691   H     0.47540   0.16153   0.60100   0.00000  Uiso   1.00
H692   H     0.57783   0.08750   0.96220   0.00000  Uiso   1.00
H693   H     0.37911   0.21508   0.98013   0.00000  Uiso   1.00
H694   H     0.51791   0.16422   0.90373   0.00000  Uiso   1.00
I695   I     0.35511   0.19770   0.55950   0.00000  Uiso   1.00
O696   O     0.50000   0.16667   0.75000   0.00000  Uiso   1.00
O697   O     0.49027   0.12393   0.66625   0.00000  Uiso   1.00
O698   O     0.46020   0.20646   0.83749   0.00000  Uiso   1.00
O699   O     0.54421   0.17493   0.65877   0.00000  Uiso   1.00
O700   O     0.50532   0.16135   0.83749   0.00000  Uiso   1.00
O701   O     0.63121   0.08853   0.57788   0.00000  Uiso   1.00
O702   O     0.36083   0.23063   0.91885   0.00000  Uiso   1.00
O703   O     0.55821   0.07923   0.89790   0.00000  Uiso   1.00
O704   O     0.51182   0.08101   0.77821   0.00000  Uiso   1.00
O705   O     0.47914   0.26136   0.76767   0.00000  Uiso   1.00
O706   O     0.40785   0.13251   0.73607   0.00000  Uiso   1.00
O707   O     0.60119   0.19179   0.71806   0.00000  Uiso   1.00
O708   O     0.40323   0.18960   0.77820   0.00000  Uiso   1.00
O709   O     0.58773   0.15277   0.76768   0.00000  Uiso   1.00
O710   O     0.47133   0.06903   0.73607   0.00000  Uiso   1.00
O711   O     0.53771   0.25527   0.71806   0.00000  Uiso   1.00
Zn712  Zn    0.52577   0.14090   0.78278   0.00000  Uiso   1.00
Zn713  Zn    0.46792   0.12378   0.72258   0.00000  Uiso   1.00
Zn714  Zn    0.54500   0.19664   0.71188   0.00000  Uiso   1.00
Zn715  Zn    0.46131   0.20535   0.78277   0.00000  Uiso   1.00
C716   C     0.71912   0.15988   0.75880   0.00000  Uiso   1.00
C717   C     0.85725   0.11639   0.95845   0.00000  Uiso   1.00
C718   C     0.88497   0.10579   0.97827   0.00000  Uiso   1.00
C719   C     0.94774   0.17356   0.74122   0.00000  Uiso   1.00
C720   C     0.87835   0.11673   0.51886   0.00000  Uiso   1.00
C721   C     0.84140   0.13609   0.54121   0.00000  Uiso   1.00
C722   C     0.90776   0.10695   0.53745   0.00000  Uiso   1.00
C723   C     0.90134   0.11631   0.57843   0.00000  Uiso   1.00
C724   C     0.83526   0.14534   0.58239   0.00000  Uiso   1.00
C725   C     0.99368   0.17624   0.73766   0.00000  Uiso   1.00
C726   C     0.67376   0.15746   0.76226   0.00000  Uiso   1.00
C727   C     0.75763   0.20725   0.92308   0.00000  Uiso   1.00
C728   C     0.84764   0.32217   0.73818   0.00000  Uiso   1.00
C729   C     0.81820   0.01209   0.76220   0.00000  Uiso   1.00
C730   C     0.82257   0.05608   0.75895   0.00000  Uiso   1.00
C731   C     0.84354   0.27770   0.74137   0.00000  Uiso   1.00
C732   C     0.85491   0.14522   0.64386   0.00000  Uiso   1.00
C733   C     0.81158   0.18756   0.85660   0.00000  Uiso   1.00
C734   C     0.79658   0.19085   0.90065   0.00000  Uiso   1.00
C735   C     0.86450   0.13557   0.60084   0.00000  Uiso   1.00
C736   C     0.74164   0.20165   0.96336   0.00000  Uiso   1.00
C737   C     0.93262   0.10507   0.59749   0.00000  Uiso   1.00
C738   C     0.81932   0.17187   0.92017   0.00000  Uiso   1.00
C739   C     0.73343   0.23187   0.90642   0.00000  Uiso   1.00
C740   C     0.85912   0.09444   0.91834   0.00000  Uiso   1.00
C741   C     0.80219   0.16387   0.96007   0.00000  Uiso   1.00
C742   C     0.76345   0.18068   0.98222   0.00000  Uiso   1.00
C743   C     0.82433   0.14235   0.97926   0.00000  Uiso   1.00
C744   C     0.81297   0.14709   0.52141   0.00000  Uiso   1.00
C745   C     0.77328   0.16224   0.54235   0.00000  Uiso   1.00
C746   C     0.74810   0.17753   0.52313   0.00000  Uiso   1.00
H747   H     0.93575   0.09185   0.51984   0.00000  Uiso   1.00
H748   H     0.76025   0.16159   0.57387   0.00000  Uiso   1.00
H749   H     0.92760   0.11135   0.62925   0.00000  Uiso   1.00
H750   H     0.75019   0.25232   0.88385   0.00000  Uiso   1.00
H751   H     0.83120   0.09112   0.90687   0.00000  Uiso   1.00
H752   H     0.68336   0.19353   0.71490   0.00000  Uiso   1.00
H753   H     0.98474   0.14009   0.78527   0.00000  Uiso   1.00
H754   H     0.87486   0.00278   0.71611   0.00000  Uiso   1.00
H755   H     0.79055   0.33222   0.78429   0.00000  Uiso   1.00
H756   H     0.80873   0.16153   0.60100   0.00000  Uiso   1.00
H757   H     0.91117   0.08750   0.96220   0.00000  Uiso   1.00
H758   H     0.71245   0.21508   0.98013   0.00000  Uiso   1.00
H759   H     0.85124   0.16422   0.90373   0.00000  Uiso   1.00
I760   I     0.68844   0.19770   0.55950   0.00000  Uiso   1.00
O761   O     0.83333   0.16667   0.75000   0.00000  Uiso   1.00
O762   O     0.82360   0.12393   0.66625   0.00000  Uiso   1.00
O763   O     0.79354   0.20646   0.83749   0.00000  Uiso   1.00
O764   O     0.87755   0.17493   0.65877   0.00000  Uiso   1.00
O765   O     0.83865   0.16135   0.83749   0.00000  Uiso   1.00
O766   O     0.96454   0.08853   0.57788   0.00000  Uiso   1.00
O767   O     0.69416   0.23063   0.91885   0.00000  Uiso   1.00
O768   O     0.89154   0.07923   0.89790   0.00000  Uiso   1.00
O769   O     0.84515   0.08101   0.77821   0.00000  Uiso   1.00
O770   O     0.81247   0.26136   0.76767   0.00000  Uiso   1.00
O771   O     0.74119   0.13251   0.73607   0.00000  Uiso   1.00
O772   O     0.93452   0.19179   0.71806   0.00000  Uiso   1.00
O773   O     0.73656   0.18960   0.77820   0.00000  Uiso   1.00
O774   O     0.92106   0.15277   0.76768   0.00000  Uiso   1.00
O775   O     0.80467   0.06903   0.73607   0.00000  Uiso   1.00
O776   O     0.87104   0.25527   0.71806   0.00000  Uiso   1.00
Zn777  Zn    0.85910   0.14090   0.78278   0.00000  Uiso   1.00
Zn778  Zn    0.80125   0.12378   0.72258   0.00000  Uiso   1.00
Zn779  Zn    0.87833   0.19664   0.71188   0.00000  Uiso   1.00
Zn780  Zn    0.79465   0.20535   0.78277   0.00000  Uiso   1.00
C781   C     0.05245   0.49321   0.75880   0.00000  Uiso   1.00
C782   C     0.19059   0.44973   0.95845   0.00000  Uiso   1.00
C783   C     0.21830   0.43912   0.97827   0.00000  Uiso   1.00
C784   C     0.28108   0.50689   0.74122   0.00000  Uiso   1.00
C785   C     0.21169   0.45006   0.51886   0.00000  Uiso   1.00
C786   C     0.17473   0.46942   0.54121   0.00000  Uiso   1.00
C787   C     0.24109   0.44029   0.53745   0.00000  Uiso   1.00
C788   C     0.23467   0.44964   0.57843   0.00000  Uiso   1.00
C789   C     0.16859   0.47868   0.58239   0.00000  Uiso   1.00
C790   C     0.32701   0.50957   0.73766   0.00000  Uiso   1.00
C791   C     0.00709   0.49080   0.76226   0.00000  Uiso   1.00
C792   C     0.09096   0.54058   0.92308   0.00000  Uiso   1.00
C793   C     0.18097   0.65551   0.73818   0.00000  Uiso   1.00
C794   C     0.15153   0.34542   0.76220   0.00000  Uiso   1.00
C795   C     0.15590   0.38942   0.75895   0.00000  Uiso   1.00
C796   C     0.17688   0.61103   0.74137   0.00000  Uiso   1.00
C797   C     0.18824   0.47856   0.64386   0.00000  Uiso   1.00
C798   C     0.14491   0.52089   0.85660   0.00000  Uiso   1.00
C799   C     0.12992   0.52418   0.90065   0.00000  Uiso   1.00
C800   C     0.19784   0.46891   0.60084   0.00000  Uiso   1.00
C801   C     0.07498   0.53498   0.96336   0.00000  Uiso   1.00
C802   C     0.26595   0.43841   0.59749   0.00000  Uiso   1.00
C803   C     0.15266   0.50521   0.92017   0.00000  Uiso   1.00
C804   C     0.06676   0.56521   0.90642   0.00000  Uiso   1.00
C805   C     0.19245   0.42777   0.91834   0.00000  Uiso   1.00
C806   C     0.13553   0.49721   0.96007   0.00000  Uiso   1.00
C807   C     0.09678   0.51401   0.98222   0.00000  Uiso   1.00
C808   C     0.15767   0.47568   0.97926   0.00000  Uiso   1.00
C809   C     0.14630   0.48043   0.52141   0.00000  Uiso   1.00
C810   C     0.10662   0.49557   0.54235   0.00000  Uiso   1.00
C811   C     0.08143   0.51086   0.52313   0.00000  Uiso   1.00
H812   H     0.26908   0.42518   0.51984   0.00000  Uiso   1.00
H813   H     0.09359   0.49492   0.57387   0.00000  Uiso   1.00
H814   H     0.26094   0.44468   0.62925   0.00000  Uiso   1.00
H815   H     0.08353   0.58566   0.88385   0.00000  Uiso   1.00
H816   H     0.16454   0.42445   0.90687   0.00000  Uiso   1.00
H817   H     0.01670   0.52686   0.71490   0.00000  Uiso   1.00
H818   H     0.31807   0.47343   0.78527   0.00000  Uiso   1.00
H819   H     0.20820   0.33612   0.71611   0.00000  Uiso   1.00
H820   H     0.12389   0.66556   0.78429   0.00000  Uiso   1.00
H821   H     0.14206   0.49486   0.60100   0.00000  Uiso   1.00
H822   H     0.24450   0.42084   0.96220   0.00000  Uiso   1.00
H823   H     0.04578   0.54841   0.98013   0.00000  Uiso   1.00
H824   H     0.18458   0.49755   0.90373   0.00000  Uiso   1.00
I825   I     0.02177   0.53103   0.55950   0.00000  Uiso   1.00
O826   O     0.16667   0.50000   0.75000   0.00000  Uiso   1.00
O827   O     0.15693   0.45726   0.66625   0.00000  Uiso   1.00
O828   O     0.12687   0.53979   0.83749   0.00000  Uiso   1.00
O829   O     0.21088   0.50826   0.65877   0.00000  Uiso   1.00
O830   O     0.17198   0.49468   0.83749   0.00000  Uiso   1.00
O831   O     0.29788   0.42186   0.57788   0.00000  Uiso   1.00
O832   O     0.02749   0.56396   0.91885   0.00000  Uiso   1.00
O833   O     0.22488   0.41256   0.89790   0.00000  Uiso   1.00
O834   O     0.17849   0.41434   0.77821   0.00000  Uiso   1.00
O835   O     0.14581   0.59469   0.76767   0.00000  Uiso   1.00
O836   O     0.07452   0.46584   0.73607   0.00000  Uiso   1.00
O837   O     0.26785   0.52512   0.71806   0.00000  Uiso   1.00
O838   O     0.06990   0.52293   0.77820   0.00000  Uiso   1.00
O839   O     0.25440   0.48610   0.76768   0.00000  Uiso   1.00
O840   O     0.13800   0.40236   0.73607   0.00000  Uiso   1.00
O841   O     0.20437   0.58860   0.71806   0.00000  Uiso   1.00
Zn842  Zn    0.19244   0.47423   0.78278   0.00000  Uiso   1.00
Zn843  Zn    0.13459   0.45711   0.72258   0.00000  Uiso   1.00
Zn844  Zn    0.21166   0.52997   0.71188   0.00000  Uiso   1.00
Zn845  Zn    0.12798   0.53868   0.78277   0.00000  Uiso   1.00
C846   C     0.38579   0.49321   0.75880   0.00000  Uiso   1.00
C847   C     0.52392   0.44973   0.95845   0.00000  Uiso   1.00
C848   C     0.55164   0.43912   0.97827   0.00000  Uiso   1.00
C849   C     0.61441   0.50689   0.74122   0.00000  Uiso   1.00
C850   C     0.54502   0.45006   0.51886   0.00000  Uiso   1.00
C851   C     0.50807   0.46942   0.54121   0.00000  Uiso   1.00
C852   C     0.57442   0.44029   0.53745   0.00000  Uiso   1.00
C853   C     0.56801   0.44964   0.57843   0.00000  Uiso   1.00
C854   C     0.50193   0.47868   0.58239   0.00000  Uiso   1.00
C855   C     0.66035   0.50957   0.73766   0.00000  Uiso   1.00
C856   C     0.34042   0.49080   0.76226   0.00000  Uiso   1.00
C857   C     0.42429   0.54058   0.92308   0.00000  Uiso   1.00
C858   C     0.51431   0.65551   0.73818   0.00000  Uiso   1.00
C859   C     0.48487   0.34542   0.76220   0.00000  Uiso   1.00
C860   C     0.48923   0.38942   0.75895   0.00000  Uiso   1.00
C861   C     0.51021   0.61103   0.74137   0.00000  Uiso   1.00
C862   C     0.52157   0.47856   0.64386   0.00000  Uiso   1.00
C863   C     0.47825   0.52089   0.85660   0.00000  Uiso   1.00
C864   C     0.46325   0.52418   0.90065   0.00000  Uiso   1.00
C865   C     0.53117   0.46891   0.60084   0.00000  Uiso   1.00
C866   C     0.40831   0.53498   0.96336   0.00000  Uiso   1.00
C867   C     0.59929   0.43841   0.59749   0.00000  Uiso   1.00
C868   C     0.48599   0.50521   0.92017   0.00000  Uiso   1.00
C869   C     0.40010   0.56521   0.90642   0.00000  Uiso   1.00
C870   C     0.52579   0.42777   0.91834   0.00000  Uiso   1.00
C871   C     0.46886   0.49721   0.96007   0.00000  Uiso   1.00
C872   C     0.43012   0.51401   0.98222   0.00000  Uiso   1.00
C873   C     0.49100   0.47568   0.97926   0.00000  Uiso   1.00
C874   C     0.47964   0.48043   0.52141   0.00000  Uiso   1.00
C875   C     0.43995   0.49557   0.54235   0.00000  Uiso   1.00
C876   C     0.41477   0.51086   0.52313   0.00000  Uiso   1.00
H877   H     0.60241   0.42518   0.51984   0.00000  Uiso   1.00
H878   H     0.42692   0.49492   0.57387   0.00000  Uiso   1.00
H879   H     0.59427   0.44468   0.62925   0.00000  Uiso   1.00
H880   H     0.41686   0.58566   0.88385   0.00000  Uiso   1.00
H881   H     0.49787   0.42445   0.90687   0.00000  Uiso   1.00
H882   H     0.35003   0.52686   0.71490   0.00000  Uiso   1.00
H883   H     0.65140   0.47343   0.78527   0.00000  Uiso   1.00
H884   H     0.54153   0.33612   0.71611   0.00000  Uiso   1.00
H885   H     0.45722   0.66556   0.78429   0.00000  Uiso   1.00
H886   H     0.47540   0.49486   0.60100   0.00000  Uiso   1.00
H887   H     0.57783   0.42084   0.96220   0.00000  Uiso   1.00
H888   H     0.37911   0.54841   0.98013   0.00000  Uiso   1.00
H889   H     0.51791   0.49755   0.90373   0.00000  Uiso   1.00
I890   I     0.35511   0.53103   0.55950   0.00000  Uiso   1.00
O891   O     0.50000   0.50000   0.75000   0.00000  Uiso   1.00
O892   O     0.49027   0.45726   0.66625   0.00000  Uiso   1.00
O893   O     0.46020   0.53979   0.83749   0.00000  Uiso   1.00
O894   O     0.54421   0.50826   0.65877   0.00000  Uiso   1.00
O895   O     0.50532   0.49468   0.83749   0.00000  Uiso   1.00
O896   O     0.63121   0.42186   0.57788   0.00000  Uiso   1.00
O897   O     0.36083   0.56396   0.91885   0.00000  Uiso   1.00
O898   O     0.55821   0.41256   0.89790   0.00000  Uiso   1.00
O899   O     0.51182   0.41434   0.77821   0.00000  Uiso   1.00
O900   O     0.47914   0.59469   0.76767   0.00000  Uiso   1.00
O901   O     0.40785   0.46584   0.73607   0.00000  Uiso   1.00
O902   O     0.60119   0.52512   0.71806   0.00000  Uiso   1.00
O903   O     0.40323   0.52293   0.77820   0.00000  Uiso   1.00
O904   O     0.58773   0.48610   0.76768   0.00000  Uiso   1.00
O905   O     0.47133   0.40236   0.73607   0.00000  Uiso   1.00
O906   O     0.53771   0.58860   0.71806   0.00000  Uiso   1.00
Zn907  Zn    0.52577   0.47423   0.78278   0.00000  Uiso   1.00
Zn908  Zn    0.46792   0.45711   0.72258   0.00000  Uiso   1.00
Zn909  Zn    0.54500   0.52997   0.71188   0.00000  Uiso   1.00
Zn910  Zn    0.46131   0.53868   0.78277   0.00000  Uiso   1.00
C911   C     0.71912   0.49321   0.75880   0.00000  Uiso   1.00
C912   C     0.85725   0.44973   0.95845   0.00000  Uiso   1.00
C913   C     0.88497   0.43912   0.97827   0.00000  Uiso   1.00
C914   C     0.94774   0.50689   0.74122   0.00000  Uiso   1.00
C915   C     0.87835   0.45006   0.51886   0.00000  Uiso   1.00
C916   C     0.84140   0.46942   0.54121   0.00000  Uiso   1.00
C917   C     0.90776   0.44029   0.53745   0.00000  Uiso   1.00
C918   C     0.90134   0.44964   0.57843   0.00000  Uiso   1.00
C919   C     0.83526   0.47868   0.58239   0.00000  Uiso   1.00
C920   C     0.99368   0.50957   0.73766   0.00000  Uiso   1.00
C921   C     0.67376   0.49080   0.76226   0.00000  Uiso   1.00
C922   C     0.75763   0.54058   0.92308   0.00000  Uiso   1.00
C923   C     0.84764   0.65551   0.73818   0.00000  Uiso   1.00
C924   C     0.81820   0.34542   0.76220   0.00000  Uiso   1.00
C925   C     0.82257   0.38942   0.75895   0.00000  Uiso   1.00
C926   C     0.84354   0.61103   0.74137   0.00000  Uiso   1.00
C927   C     0.85491   0.47856   0.64386   0.00000  Uiso   1.00
C928   C     0.81158   0.52089   0.85660   0.00000  Uiso   1.00
C929   C     0.79658   0.52418   0.90065   0.00000  Uiso   1.00
C930   C     0.86450   0.46891   0.60084   0.00000  Uiso   1.00
C931   C     0.74164   0.53498   0.96336   0.00000  Uiso   1.00
C932   C     0.93262   0.43841   0.59749   0.00000  Uiso   1.00
C933   C     0.81932   0.50521   0.92017   0.00000  Uiso   1.00
C934   C     0.73343   0.56521   0.90642   0.00000  Uiso   1.00
C935   C     0.85912   0.42777   0.91834   0.00000  Uiso   1.00
C936   C     0.80219   0.49721   0.96007   0.00000  Uiso   1.00
C937   C     0.76345   0.51401   0.98222   0.00000  Uiso   1.00
C938   C     0.82433   0.47568   0.97926   0.00000  Uiso   1.00
C939   C     0.81297   0.48043   0.52141   0.00000  Uiso   1.00
C940   C     0.77328   0.49557   0.54235   0.00000  Uiso   1.00
C941   C     0.74810   0.51086   0.52313   0.00000  Uiso   1.00
H942   H     0.93575   0.42518   0.51984   0.00000  Uiso   1.00
H943   H     0.76025   0.49492   0.57387   0.00000  Uiso   1.00
H944   H     0.92760   0.44468   0.62925   0.00000  Uiso   1.00
H945   H     0.75019   0.58566   0.88385   0.00000  Uiso   1.00
H946   H     0.83120   0.42445   0.90687   0.00000  Uiso   1.00
H947   H     0.68336   0.52686   0.71490   0.00000  Uiso   1.00
H948   H     0.98474   0.47343   0.78527   0.00000  Uiso   1.00
H949   H     0.87486   0.33612   0.71611   0.00000  Uiso   1.00
H950   H     0.79055   0.66556   0.78429   0.00000  Uiso   1.00
H951   H     0.80873   0.49486   0.60100   0.00000  Uiso   1.00
H952   H     0.91117   0.42084   0.96220   0.00000  Uiso   1.00
H953   H     0.71245   0.54841   0.98013   0.00000  Uiso   1.00
H954   H     0.85124   0.49755   0.90373   0.00000  Uiso   1.00
I955   I     0.68844   0.53103   0.55950   0.00000  Uiso   1.00
O956   O     0.83333   0.50000   0.75000   0.00000  Uiso   1.00
O957   O     0.82360   0.45726   0.66625   0.00000  Uiso   1.00
O958   O     0.79354   0.53979   0.83749   0.00000  Uiso   1.00
O959   O     0.87755   0.50826   0.65877   0.00000  Uiso   1.00
O960   O     0.83865   0.49468   0.83749   0.00000  Uiso   1.00
O961   O     0.96454   0.42186   0.57788   0.00000  Uiso   1.00
O962   O     0.69416   0.56396   0.91885   0.00000  Uiso   1.00
O963   O     0.89154   0.41256   0.89790   0.00000  Uiso   1.00
O964   O     0.84515   0.41434   0.77821   0.00000  Uiso   1.00
O965   O     0.81247   0.59469   0.76767   0.00000  Uiso   1.00
O966   O     0.74119   0.46584   0.73607   0.00000  Uiso   1.00
O967   O     0.93452   0.52512   0.71806   0.00000  Uiso   1.00
O968   O     0.73656   0.52293   0.77820   0.00000  Uiso   1.00
O969   O     0.92106   0.48610   0.76768   0.00000  Uiso   1.00
O970   O     0.80467   0.40236   0.73607   0.00000  Uiso   1.00
O971   O     0.87104   0.58860   0.71806   0.00000  Uiso   1.00
Zn972  Zn    0.85910   0.47423   0.78278   0.00000  Uiso   1.00
Zn973  Zn    0.80125   0.45711   0.72258   0.00000  Uiso   1.00
Zn974  Zn    0.87833   0.52997   0.71188   0.00000  Uiso   1.00
Zn975  Zn    0.79465   0.53868   0.78277   0.00000  Uiso   1.00
C976   C     0.05245   0.82654   0.75880   0.00000  Uiso   1.00
C977   C     0.19059   0.78306   0.95845   0.00000  Uiso   1.00
C978   C     0.21830   0.77245   0.97827   0.00000  Uiso   1.00
C979   C     0.28108   0.84023   0.74122   0.00000  Uiso   1.00
C980   C     0.21169   0.78339   0.51886   0.00000  Uiso   1.00
C981   C     0.17473   0.80275   0.54121   0.00000  Uiso   1.00
C982   C     0.24109   0.77362   0.53745   0.00000  Uiso   1.00
C983   C     0.23467   0.78298   0.57843   0.00000  Uiso   1.00
C984   C     0.16859   0.81201   0.58239   0.00000  Uiso   1.00
C985   C     0.32701   0.84290   0.73766   0.00000  Uiso   1.00
C986   C     0.00709   0.82413   0.76226   0.00000  Uiso   1.00
C987   C     0.09096   0.87391   0.92308   0.00000  Uiso   1.00
C988   C     0.18097   0.98884   0.73818   0.00000  Uiso   1.00
C989   C     0.15153   0.67875   0.76220   0.00000  Uiso   1.00
C990   C     0.15590   0.72275   0.75895   0.00000  Uiso   1.00
C991   C     0.17688   0.94436   0.74137   0.00000  Uiso   1.00
C992   C     0.18824   0.81189   0.64386   0.00000  Uiso   1.00
C993   C     0.14491   0.85423   0.85660   0.00000  Uiso   1.00
C994   C     0.12992   0.85751   0.90065   0.00000  Uiso   1.00
C995   C     0.19784   0.80224   0.60084   0.00000  Uiso   1.00
C996   C     0.07498   0.86832   0.96336   0.00000  Uiso   1.00
C997   C     0.26595   0.77174   0.59749   0.00000  Uiso   1.00
C998   C     0.15266   0.83854   0.92017   0.00000  Uiso   1.00
C999   C     0.06676   0.89854   0.90642   0.00000  Uiso   1.00
C1000  C     0.19245   0.76110   0.91834   0.00000  Uiso   1.00
C1001  C     0.13553   0.83054   0.96007   0.00000  Uiso   1.00
C1002  C     0.09678   0.84734   0.98222   0.00000  Uiso   1.00
C1003  C     0.15767   0.80902   0.97926   0.00000  Uiso   1.00
C1004  C     0.14630   0.81376   0.52141   0.00000  Uiso   1.00
C1005  C     0.10662   0.82890   0.54235   0.00000  Uiso   1.00
C1006  C     0.08143   0.84419   0.52313   0.00000  Uiso   1.00
H1007  H     0.26908   0.75851   0.51984   0.00000  Uiso   1.00
H1008  H     0.09359   0.82825   0.57387   0.00000  Uiso   1.00
H1009  H     0.26094   0.77802   0.62925   0.00000  Uiso   1.00
H1010  H     0.08353   0.91899   0.88385   0.00000  Uiso   1.00
H1011  H     0.16454   0.75779   0.90687   0.00000  Uiso   1.00
H1012  H     0.01670   0.86020   0.71490   0.00000  Uiso   1.00
H1013  H     0.31807   0.80676   0.78527   0.00000  Uiso   1.00
H1014  H     0.20820   0.66945   0.71611   0.00000  Uiso   1.00
H1015  H     0.12389   0.99889   0.78429   0.00000  Uiso   1.00
H1016  H     0.14206   0.82820   0.60100   0.00000  Uiso   1.00
H1017  H     0.24450   0.75417   0.96220   0.00000  Uiso   1.00
H1018  H     0.04578   0.88174   0.98013   0.00000  Uiso   1.00
H1019  H     0.18458   0.83089   0.90373   0.00000  Uiso   1.00
I1020  I     0.02177   0.86437   0.55950   0.00000  Uiso   1.00
O1021  O     0.16667   0.83333   0.75000   0.00000  Uiso   1.00
O1022  O     0.15693   0.79060   0.66625   0.00000  Uiso   1.00
O1023  O     0.12687   0.87313   0.83749   0.00000  Uiso   1.00
O1024  O     0.21088   0.84159   0.65877   0.00000  Uiso   1.00
O1025  O     0.17198   0.82802   0.83749   0.00000  Uiso   1.00
O1026  O     0.29788   0.75520   0.57788   0.00000  Uiso   1.00
O1027  O     0.02749   0.89729   0.91885   0.00000  Uiso   1.00
O1028  O     0.22488   0.74589   0.89790   0.00000  Uiso   1.00
O1029  O     0.17849   0.74768   0.77821   0.00000  Uiso   1.00
O1030  O     0.14581   0.92803   0.76767   0.00000  Uiso   1.00
O1031  O     0.07452   0.79917   0.73607   0.00000  Uiso   1.00
O1032  O     0.26785   0.85845   0.71806   0.00000  Uiso   1.00
O1033  O     0.06990   0.85627   0.77820   0.00000  Uiso   1.00
O1034  O     0.25440   0.81944   0.76768   0.00000  Uiso   1.00
O1035  O     0.13800   0.73570   0.73607   0.00000  Uiso   1.00
O1036  O     0.20437   0.92193   0.71806   0.00000  Uiso   1.00
Zn1037 Zn    0.19244   0.80756   0.78278   0.00000  Uiso   1.00
Zn1038 Zn    0.13459   0.79044   0.72258   0.00000  Uiso   1.00
Zn1039 Zn    0.21166   0.86331   0.71188   0.00000  Uiso   1.00
Zn1040 Zn    0.12798   0.87202   0.78277   0.00000  Uiso   1.00
C1041  C     0.38579   0.82654   0.75880   0.00000  Uiso   1.00
C1042  C     0.52392   0.78306   0.95845   0.00000  Uiso   1.00
C1043  C     0.55164   0.77245   0.97827   0.00000  Uiso   1.00
C1044  C     0.61441   0.84023   0.74122   0.00000  Uiso   1.00
C1045  C     0.54502   0.78339   0.51886   0.00000  Uiso   1.00
C1046  C     0.50807   0.80275   0.54121   0.00000  Uiso   1.00
C1047  C     0.57442   0.77362   0.53745   0.00000  Uiso   1.00
C1048  C     0.56801   0.78298   0.57843   0.00000  Uiso   1.00
C1049  C     0.50193   0.81201   0.58239   0.00000  Uiso   1.00
C1050  C     0.66035   0.84290   0.73766   0.00000  Uiso   1.00
C1051  C     0.34042   0.82413   0.76226   0.00000  Uiso   1.00
C1052  C     0.42429   0.87391   0.92308   0.00000  Uiso   1.00
C1053  C     0.51431   0.98884   0.73818   0.00000  Uiso   1.00
C1054  C     0.48487   0.67875   0.76220   0.00000  Uiso   1.00
C1055  C     0.48923   0.72275   0.75895   0.00000  Uiso   1.00
C1056  C     0.51021   0.94436   0.74137   0.00000  Uiso   1.00
C1057  C     0.52157   0.81189   0.64386   0.00000  Uiso   1.00
C1058  C     0.47825   0.85423   0.85660   0.00000  Uiso   1.00
C1059  C     0.46325   0.85751   0.90065   0.00000  Uiso   1.00
C1060  C     0.53117   0.80224   0.60084   0.00000  Uiso   1.00
C1061  C     0.40831   0.86832   0.96336   0.00000  Uiso   1.00
C1062  C     0.59929   0.77174   0.59749   0.00000  Uiso   1.00
C1063  C     0.48599   0.83854   0.92017   0.00000  Uiso   1.00
C1064  C     0.40010   0.89854   0.90642   0.00000  Uiso   1.00
C1065  C     0.52579   0.76110   0.91834   0.00000  Uiso   1.00
C1066  C     0.46886   0.83054   0.96007   0.00000  Uiso   1.00
C1067  C     0.43012   0.84734   0.98222   0.00000  Uiso   1.00
C1068  C     0.49100   0.80902   0.97926   0.00000  Uiso   1.00
C1069  C     0.47964   0.81376   0.52141   0.00000  Uiso   1.00
C1070  C     0.43995   0.82890   0.54235   0.00000  Uiso   1.00
C1071  C     0.41477   0.84419   0.52313   0.00000  Uiso   1.00
H1072  H     0.60241   0.75851   0.51984   0.00000  Uiso   1.00
H1073  H     0.42692   0.82825   0.57387   0.00000  Uiso   1.00
H1074  H     0.59427   0.77802   0.62925   0.00000  Uiso   1.00
H1075  H     0.41686   0.91899   0.88385   0.00000  Uiso   1.00
H1076  H     0.49787   0.75779   0.90687   0.00000  Uiso   1.00
H1077  H     0.35003   0.86020   0.71490   0.00000  Uiso   1.00
H1078  H     0.65140   0.80676   0.78527   0.00000  Uiso   1.00
H1079  H     0.54153   0.66945   0.71611   0.00000  Uiso   1.00
H1080  H     0.45722   0.99889   0.78429   0.00000  Uiso   1.00
H1081  H     0.47540   0.82820   0.60100   0.00000  Uiso   1.00
H1082  H     0.57783   0.75417   0.96220   0.00000  Uiso   1.00
H1083  H     0.37911   0.88174   0.98013   0.00000  Uiso   1.00
H1084  H     0.51791   0.83089   0.90373   0.00000  Uiso   1.00
I1085  I     0.35511   0.86437   0.55950   0.00000  Uiso   1.00
O1086  O     0.50000   0.83333   0.75000   0.00000  Uiso   1.00
O1087  O     0.49027   0.79060   0.66625   0.00000  Uiso   1.00
O1088  O     0.46020   0.87313   0.83749   0.00000  Uiso   1.00
O1089  O     0.54421   0.84159   0.65877   0.00000  Uiso   1.00
O1090  O     0.50532   0.82802   0.83749   0.00000  Uiso   1.00
O1091  O     0.63121   0.75520   0.57788   0.00000  Uiso   1.00
O1092  O     0.36083   0.89729   0.91885   0.00000  Uiso   1.00
O1093  O     0.55821   0.74589   0.89790   0.00000  Uiso   1.00
O1094  O     0.51182   0.74768   0.77821   0.00000  Uiso   1.00
O1095  O     0.47914   0.92803   0.76767   0.00000  Uiso   1.00
O1096  O     0.40785   0.79917   0.73607   0.00000  Uiso   1.00
O1097  O     0.60119   0.85845   0.71806   0.00000  Uiso   1.00
O1098  O     0.40323   0.85627   0.77820   0.00000  Uiso   1.00
O1099  O     0.58773   0.81944   0.76768   0.00000  Uiso   1.00
O1100  O     0.47133   0.73570   0.73607   0.00000  Uiso   1.00
O1101  O     0.53771   0.92193   0.71806   0.00000  Uiso   1.00
Zn1102 Zn    0.52577   0.80756   0.78278   0.00000  Uiso   1.00
Zn1103 Zn    0.46792   0.79044   0.72258   0.00000  Uiso   1.00
Zn1104 Zn    0.54500   0.86331   0.71188   0.00000  Uiso   1.00
Zn1105 Zn    0.46131   0.87202   0.78277   0.00000  Uiso   1.00
C1106  C     0.71912   0.82654   0.75880   0.00000  Uiso   1.00
C1107  C     0.85725   0.78306   0.95845   0.00000  Uiso   1.00
C1108  C     0.88497   0.77245   0.97827   0.00000  Uiso   1.00
C1109  C     0.94774   0.84023   0.74122   0.00000  Uiso   1.00
C1110  C     0.87835   0.78339   0.51886   0.00000  Uiso   1.00
C1111  C     0.84140   0.80275   0.54121   0.00000  Uiso   1.00
C1112  C     0.90776   0.77362   0.53745   0.00000  Uiso   1.00
C1113  C     0.90134   0.78298   0.57843   0.00000  Uiso   1.00
C1114  C     0.83526   0.81201   0.58239   0.00000  Uiso   1.00
C1115  C     0.99368   0.84290   0.73766   0.00000  Uiso   1.00
C1116  C     0.67376   0.82413   0.76226   0.00000  Uiso   1.00
C1117  C     0.75763   0.87391   0.92308   0.00000  Uiso   1.00
C1118  C     0.84764   0.98884   0.73818   0.00000  Uiso   1.00
C1119  C     0.81820   0.67875   0.76220   0.00000  Uiso   1.00
C1120  C     0.82257   0.72275   0.75895   0.00000  Uiso   1.00
C1121  C     0.84354   0.94436   0.74137   0.00000  Uiso   1.00
C1122  C     0.85491   0.81189   0.64386   0.00000  Uiso   1.00
C1123  C     0.81158   0.85423   0.85660   0.00000  Uiso   1.00
C1124  C     0.79658   0.85751   0.90065   0.00000  Uiso   1.00
C1125  C     0.86450   0.80224   0.60084   0.00000  Uiso   1.00
C1126  C     0.74164   0.86832   0.96336   0.00000  Uiso   1.00
C1127  C     0.93262   0.77174   0.59749   0.00000  Uiso   1.00
C1128  C     0.81932   0.83854   0.92017   0.00000  Uiso   1.00
C1129  C     0.73343   0.89854   0.90642   0.00000  Uiso   1.00
C1130  C     0.85912   0.76110   0.91834   0.00000  Uiso   1.00
C1131  C     0.80219   0.83054   0.96007   0.00000  Uiso   1.00
C1132  C     0.76345   0.84734   0.98222   0.00000  Uiso   1.00
C1133  C     0.82433   0.80902   0.97926   0.00000  Uiso   1.00
C1134  C     0.81297   0.81376   0.52141   0.00000  Uiso   1.00
C1135  C     0.77328   0.82890   0.54235   0.00000  Uiso   1.00
C1136  C     0.74810   0.84419   0.52313   0.00000  Uiso   1.00
H1137  H     0.93575   0.75851   0.51984   0.00000  Uiso   1.00
H1138  H     0.76025   0.82825   0.57387   0.00000  Uiso   1.00
H1139  H     0.92760   0.77802   0.62925   0.00000  Uiso   1.00
H1140  H     0.75019   0.91899   0.88385   0.00000  Uiso   1.00
H1141  H     0.83120   0.75779   0.90687   0.00000  Uiso   1.00
H1142  H     0.68336   0.86020   0.71490   0.00000  Uiso   1.00
H1143  H     0.98474   0.80676   0.78527   0.00000  Uiso   1.00
H1144  H     0.87486   0.66945   0.71611   0.00000  Uiso   1.00
H1145  H     0.79055   0.99889   0.78429   0.00000  Uiso   1.00
H1146  H     0.80873   0.82820   0.60100   0.00000  Uiso   1.00
H1147  H     0.91117   0.75417   0.96220   0.00000  Uiso   1.00
H1148  H     0.71245   0.88174   0.98013   0.00000  Uiso   1.00
H1149  H     0.85124   0.83089   0.90373   0.00000  Uiso   1.00
I1150  I     0.68844   0.86437   0.55950   0.00000  Uiso   1.00
O1151  O     0.83333   0.83333   0.75000   0.00000  Uiso   1.00
O1152  O     0.82360   0.79060   0.66625   0.00000  Uiso   1.00
O1153  O     0.79354   0.87313   0.83749   0.00000  Uiso   1.00
O1154  O     0.87755   0.84159   0.65877   0.00000  Uiso   1.00
O1155  O     0.83865   0.82802   0.83749   0.00000  Uiso   1.00
O1156  O     0.96454   0.75520   0.57788   0.00000  Uiso   1.00
O1157  O     0.69416   0.89729   0.91885   0.00000  Uiso   1.00
O1158  O     0.89154   0.74589   0.89790   0.00000  Uiso   1.00
O1159  O     0.84515   0.74768   0.77821   0.00000  Uiso   1.00
O1160  O     0.81247   0.92803   0.76767   0.00000  Uiso   1.00
O1161  O     0.74119   0.79917   0.73607   0.00000  Uiso   1.00
O1162  O     0.93452   0.85845   0.71806   0.00000  Uiso   1.00
O1163  O     0.73656   0.85627   0.77820   0.00000  Uiso   1.00
O1164  O     0.92106   0.81944   0.76768   0.00000  Uiso   1.00
O1165  O     0.80467   0.73570   0.73607   0.00000  Uiso   1.00
O1166  O     0.87104   0.92193   0.71806   0.00000  Uiso   1.00
Zn1167 Zn    0.85910   0.80756   0.78278   0.00000  Uiso   1.00
Zn1168 Zn    0.80125   0.79044   0.72258   0.00000  Uiso   1.00
Zn1169 Zn    0.87833   0.86331   0.71188   0.00000  Uiso   1.00
Zn1170 Zn    0.79465   0.87202   0.78277   0.00000  Uiso   1.00
loop_
_geom_bond_atom_site_label_1
_geom_bond_atom_site_label_2
_geom_bond_distance
_geom_bond_site_symmetry_2
_ccdc_geom_bond_type
C1     C11     1.437   .     S
C1     O56     1.268   .     A
C1     O58     1.267   .     A
C2     C3      1.400   .     A
C2     C25     1.487   .     S
C2     C28     1.427   .     A
C3     H42     1.085   .     S
C3     C590    1.394   .     S
C4     O57     1.278   .     A
C4     O59     1.275   .     A
C4     C10     1.454   .     S
C5     C6      1.414   .     A
C5     C7      1.404   .     A
C5     C588    1.394   1_554 S
C6     C9      1.410   .     A
C6     C29     1.424   .     A
C7     C8      1.403   .     A
C7     H32     1.084   .     S
C8     C22     1.487   .     S
C8     C20     1.410   .     A
C9     H41     1.078   .     S
C9     C20     1.396   .     A
C10    C76     1.334   .     S
C10    H102    1.088   .     S
C11    C140    1.334   1_455 S
C11    H168    1.086   1_455 S
C12    C24     1.485   .     S
C12    C19     1.421   .     A
C12    C21     1.401   .     A
C13    C16     1.451   .     S
C13    C209    1.331   .     S
C13    H234    1.088   .     S
C14    C15     1.435   .     S
C14    C403    1.331   1_545 S
C14    H430    1.086   1_545 S
C15    O60     1.274   .     A
C15    O54     1.274   .     A
C16    O55     1.269   .     A
C16    O61     1.268   .     A
C17    C20     1.463   .     S
C17    O49     1.276   .     A
C17    O47     1.276   .     A
C18    O50     1.294   .     A
C18    C19     1.489   .     S
C18    O48     1.281   .     A
C19    C23     1.402   .     A
C21    C27     1.403   .     A
C21    H43     1.081   .     S
C22    H34     1.084   .     S
C22    O51     1.221   .     D
C23    C26     1.410   .     A
C23    H44     1.079   .     S
C24    O52     1.222   .     D
C24    H35     1.083   .     S
C25    O53     1.221   .     D
C25    H36     1.085   .     S
C26    C28     1.430   .     A
C26    C27     1.418   .     A
C27    C616    1.405   .     S
C28    C614    1.424   .     S
C29    C30     1.411   .     A
C29    C613    1.424   1_554 S
C30    C31     1.389   .     A
C30    H33     1.077   .     S
C31    I45     2.132   .     S
C31    C612    1.405   1_554 S
H37    C140    1.088   1_455 S
H38    C76     1.086   .     S
H39    C403    1.088   1_545 S
H40    C209    1.086   .     S
O46    Zn63    1.938   .     S
O46    Zn62    1.953   .     S
O46    Zn65    1.929   .     S
O46    Zn64    1.931   .     S
O47    Zn63    1.919   .     S
O48    Zn65    1.927   .     S
O49    Zn64    1.922   .     S
O50    Zn62    1.915   .     S
O54    Zn62    1.929   .     S
O55    Zn65    1.931   .     S
O56    Zn63    1.927   .     S
O57    Zn64    1.936   .     S
O58    Zn65    1.932   .     S
O59    Zn62    1.925   .     S
O60    Zn63    1.936   .     S
O61    Zn64    1.931   .     S
C66    C76     1.437   .     S
C66    O121    1.268   .     A
C66    O123    1.267   .     A
C67    C68     1.400   .     A
C67    C90     1.487   .     S
C67    C93     1.427   .     A
C68    H107    1.085   .     S
C68    C655    1.394   .     S
C69    O122    1.278   .     A
C69    O124    1.275   .     A
C69    C75     1.454   .     S
C70    C71     1.414   .     A
C70    C72     1.404   .     A
C70    C653    1.394   1_554 S
C71    C74     1.410   .     A
C71    C94     1.424   .     A
C72    C73     1.403   .     A
C72    H97     1.084   .     S
C73    C87     1.487   .     S
C73    C85     1.410   .     A
C74    H106    1.078   .     S
C74    C85     1.396   .     A
C75    C141    1.334   .     S
C75    H167    1.088   .     S
C77    C89     1.485   .     S
C77    C84     1.421   .     A
C77    C86     1.401   .     A
C78    C81     1.451   .     S
C78    C274    1.331   .     S
C78    H299    1.088   .     S
C79    C80     1.435   .     S
C79    C468    1.331   1_545 S
C79    H495    1.086   1_545 S
C80    O125    1.274   .     A
C80    O119    1.274   .     A
C81    O120    1.269   .     A
C81    O126    1.268   .     A
C82    C85     1.463   .     S
C82    O114    1.276   .     A
C82    O112    1.276   .     A
C83    O115    1.294   .     A
C83    C84     1.489   .     S
C83    O113    1.281   .     A
C84    C88     1.402   .     A
C86    C92     1.403   .     A
C86    H108    1.081   .     S
C87    H99     1.084   .     S
C87    O116    1.221   .     D
C88    C91     1.410   .     A
C88    H109    1.079   .     S
C89    O117    1.222   .     D
C89    H100    1.083   .     S
C90    O118    1.221   .     D
C90    H101    1.085   .     S
C91    C93     1.430   .     A
C91    C92     1.418   .     A
C92    C681    1.405   .     S
C93    C679    1.424   .     S
C94    C95     1.411   .     A
C94    C678    1.424   1_554 S
C95    C96     1.389   .     A
C95    H98     1.077   .     S
C96    I110    2.132   .     S
C96    C677    1.405   1_554 S
H103   C141    1.086   .     S
H104   C468    1.088   1_545 S
H105   C274    1.086   .     S
O111   Zn128   1.938   .     S
O111   Zn127   1.953   .     S
O111   Zn130   1.929   .     S
O111   Zn129   1.931   .     S
O112   Zn128   1.919   .     S
O113   Zn130   1.927   .     S
O114   Zn129   1.922   .     S
O115   Zn127   1.915   .     S
O119   Zn127   1.929   .     S
O120   Zn130   1.931   .     S
O121   Zn128   1.927   .     S
O122   Zn129   1.936   .     S
O123   Zn130   1.932   .     S
O124   Zn127   1.925   .     S
O125   Zn128   1.936   .     S
O126   Zn129   1.931   .     S
C131   C141    1.437   .     S
C131   O186    1.268   .     A
C131   O188    1.267   .     A
C132   C133    1.400   .     A
C132   C155    1.487   .     S
C132   C158    1.427   .     A
C133   H172    1.085   .     S
C133   C720    1.394   .     S
C134   O187    1.278   .     A
C134   O189    1.275   .     A
C134   C140    1.454   .     S
C135   C136    1.414   .     A
C135   C137    1.404   .     A
C135   C718    1.394   1_554 S
C136   C139    1.410   .     A
C136   C159    1.424   .     A
C137   C138    1.403   .     A
C137   H162    1.084   .     S
C138   C152    1.487   .     S
C138   C150    1.410   .     A
C139   H171    1.078   .     S
C139   C150    1.396   .     A
C140   C11     1.334   1_655 S
C140   H37     1.088   1_655 S
C142   C154    1.485   .     S
C142   C149    1.421   .     A
C142   C151    1.401   .     A
C143   C146    1.451   .     S
C143   C339    1.331   .     S
C143   H364    1.088   .     S
C144   C145    1.435   .     S
C144   C533    1.331   1_545 S
C144   H560    1.086   1_545 S
C145   O190    1.274   .     A
C145   O184    1.274   .     A
C146   O185    1.269   .     A
C146   O191    1.268   .     A
C147   C150    1.463   .     S
C147   O179    1.276   .     A
C147   O177    1.276   .     A
C148   O180    1.294   .     A
C148   C149    1.489   .     S
C148   O178    1.281   .     A
C149   C153    1.402   .     A
C151   C157    1.403   .     A
C151   H173    1.081   .     S
C152   H164    1.084   .     S
C152   O181    1.221   .     D
C153   C156    1.410   .     A
C153   H174    1.079   .     S
C154   O182    1.222   .     D
C154   H165    1.083   .     S
C155   O183    1.221   .     D
C155   H166    1.085   .     S
C156   C158    1.430   .     A
C156   C157    1.418   .     A
C157   C746    1.405   .     S
C158   C744    1.424   .     S
C159   C160    1.411   .     A
C159   C743    1.424   1_554 S
C160   C161    1.389   .     A
C160   H163    1.077   .     S
C161   I175    2.132   .     S
C161   C742    1.405   1_554 S
H168   C11     1.086   1_655 S
H169   C533    1.088   1_545 S
H170   C339    1.086   .     S
O176   Zn193   1.938   .     S
O176   Zn192   1.953   .     S
O176   Zn195   1.929   .     S
O176   Zn194   1.931   .     S
O177   Zn193   1.919   .     S
O178   Zn195   1.927   .     S
O179   Zn194   1.922   .     S
O180   Zn192   1.915   .     S
O184   Zn192   1.929   .     S
O185   Zn195   1.931   .     S
O186   Zn193   1.927   .     S
O187   Zn194   1.936   .     S
O188   Zn195   1.932   .     S
O189   Zn192   1.925   .     S
O190   Zn193   1.936   .     S
O191   Zn194   1.931   .     S
C196   C206    1.437   .     S
C196   O251    1.268   .     A
C196   O253    1.267   .     A
C197   C198    1.400   .     A
C197   C220    1.487   .     S
C197   C223    1.427   .     A
C198   H237    1.085   .     S
C198   C785    1.394   .     S
C199   O252    1.278   .     A
C199   O254    1.275   .     A
C199   C205    1.454   .     S
C200   C201    1.414   .     A
C200   C202    1.404   .     A
C200   C783    1.394   1_554 S
C201   C204    1.410   .     A
C201   C224    1.424   .     A
C202   C203    1.403   .     A
C202   H227    1.084   .     S
C203   C217    1.487   .     S
C203   C215    1.410   .     A
C204   H236    1.078   .     S
C204   C215    1.396   .     A
C205   C271    1.334   .     S
C205   H297    1.088   .     S
C206   C335    1.334   1_455 S
C206   H363    1.086   1_455 S
C207   C219    1.485   .     S
C207   C214    1.421   .     A
C207   C216    1.401   .     A
C208   C211    1.451   .     S
C208   C404    1.331   .     S
C208   H429    1.088   .     S
C209   C210    1.435   .     S
C210   O255    1.274   .     A
C210   O249    1.274   .     A
C211   O250    1.269   .     A
C211   O256    1.268   .     A
C212   C215    1.463   .     S
C212   O244    1.276   .     A
C212   O242    1.276   .     A
C213   O245    1.294   .     A
C213   C214    1.489   .     S
C213   O243    1.281   .     A
C214   C218    1.402   .     A
C216   C222    1.403   .     A
C216   H238    1.081   .     S
C217   H229    1.084   .     S
C217   O246    1.221   .     D
C218   C221    1.410   .     A
C218   H239    1.079   .     S
C219   O247    1.222   .     D
C219   H230    1.083   .     S
C220   O248    1.221   .     D
C220   H231    1.085   .     S
C221   C223    1.430   .     A
C221   C222    1.418   .     A
C222   C811    1.405   .     S
C223   C809    1.424   .     S
C224   C225    1.411   .     A
C224   C808    1.424   1_554 S
C225   C226    1.389   .     A
C225   H228    1.077   .     S
C226   I240    2.132   .     S
C226   C807    1.405   1_554 S
H232   C335    1.088   1_455 S
H233   C271    1.086   .     S
H235   C404    1.086   .     S
O241   Zn258   1.938   .     S
O241   Zn257   1.953   .     S
O241   Zn260   1.929   .     S
O241   Zn259   1.931   .     S
O242   Zn258   1.919   .     S
O243   Zn260   1.927   .     S
O244   Zn259   1.922   .     S
O245   Zn257   1.915   .     S
O249   Zn257   1.929   .     S
O250   Zn260   1.931   .     S
O251   Zn258   1.927   .     S
O252   Zn259   1.936   .     S
O253   Zn260   1.932   .     S
O254   Zn257   1.925   .     S
O255   Zn258   1.936   .     S
O256   Zn259   1.931   .     S
C261   C271    1.437   .     S
C261   O316    1.268   .     A
C261   O318    1.267   .     A
C262   C263    1.400   .     A
C262   C285    1.487   .     S
C262   C288    1.427   .     A
C263   H302    1.085   .     S
C263   C850    1.394   .     S
C264   O317    1.278   .     A
C264   O319    1.275   .     A
C264   C270    1.454   .     S
C265   C266    1.414   .     A
C265   C267    1.404   .     A
C265   C848    1.394   1_554 S
C266   C269    1.410   .     A
C266   C289    1.424   .     A
C267   C268    1.403   .     A
C267   H292    1.084   .     S
C268   C282    1.487   .     S
C268   C280    1.410   .     A
C269   H301    1.078   .     S
C269   C280    1.396   .     A
C270   C336    1.334   .     S
C270   H362    1.088   .     S
C272   C284    1.485   .     S
C272   C279    1.421   .     A
C272   C281    1.401   .     A
C273   C276    1.451   .     S
C273   C469    1.331   .     S
C273   H494    1.088   .     S
C274   C275    1.435   .     S
C275   O320    1.274   .     A
C275   O314    1.274   .     A
C276   O315    1.269   .     A
C276   O321    1.268   .     A
C277   C280    1.463   .     S
C277   O309    1.276   .     A
C277   O307    1.276   .     A
C278   O310    1.294   .     A
C278   C279    1.489   .     S
C278   O308    1.281   .     A
C279   C283    1.402   .     A
C281   C287    1.403   .     A
C281   H303    1.081   .     S
C282   H294    1.084   .     S
C282   O311    1.221   .     D
C283   C286    1.410   .     A
C283   H304    1.079   .     S
C284   O312    1.222   .     D
C284   H295    1.083   .     S
C285   O313    1.221   .     D
C285   H296    1.085   .     S
C286   C288    1.430   .     A
C286   C287    1.418   .     A
C287   C876    1.405   .     S
C288   C874    1.424   .     S
C289   C290    1.411   .     A
C289   C873    1.424   1_554 S
C290   C291    1.389   .     A
C290   H293    1.077   .     S
C291   I305    2.132   .     S
C291   C872    1.405   1_554 S
H298   C336    1.086   .     S
H300   C469    1.086   .     S
O306   Zn323   1.938   .     S
O306   Zn322   1.953   .     S
O306   Zn325   1.929   .     S
O306   Zn324   1.931   .     S
O307   Zn323   1.919   .     S
O308   Zn325   1.927   .     S
O309   Zn324   1.922   .     S
O310   Zn322   1.915   .     S
O314   Zn322   1.929   .     S
O315   Zn325   1.931   .     S
O316   Zn323   1.927   .     S
O317   Zn324   1.936   .     S
O318   Zn325   1.932   .     S
O319   Zn322   1.925   .     S
O320   Zn323   1.936   .     S
O321   Zn324   1.931   .     S
C326   C336    1.437   .     S
C326   O381    1.268   .     A
C326   O383    1.267   .     A
C327   C328    1.400   .     A
C327   C350    1.487   .     S
C327   C353    1.427   .     A
C328   H367    1.085   .     S
C328   C915    1.394   .     S
C329   O382    1.278   .     A
C329   O384    1.275   .     A
C329   C335    1.454   .     S
C330   C331    1.414   .     A
C330   C332    1.404   .     A
C330   C913    1.394   1_554 S
C331   C334    1.410   .     A
C331   C354    1.424   .     A
C332   C333    1.403   .     A
C332   H357    1.084   .     S
C333   C347    1.487   .     S
C333   C345    1.410   .     A
C334   H366    1.078   .     S
C334   C345    1.396   .     A
C335   C206    1.334   1_655 S
C335   H232    1.088   1_655 S
C337   C349    1.485   .     S
C337   C344    1.421   .     A
C337   C346    1.401   .     A
C338   C341    1.451   .     S
C338   C534    1.331   .     S
C338   H559    1.088   .     S
C339   C340    1.435   .     S
C340   O385    1.274   .     A
C340   O379    1.274   .     A
C341   O380    1.269   .     A
C341   O386    1.268   .     A
C342   C345    1.463   .     S
C342   O374    1.276   .     A
C342   O372    1.276   .     A
C343   O375    1.294   .     A
C343   C344    1.489   .     S
C343   O373    1.281   .     A
C344   C348    1.402   .     A
C346   C352    1.403   .     A
C346   H368    1.081   .     S
C347   H359    1.084   .     S
C347   O376    1.221   .     D
C348   C351    1.410   .     A
C348   H369    1.079   .     S
C349   O377    1.222   .     D
C349   H360    1.083   .     S
C350   O378    1.221   .     D
C350   H361    1.085   .     S
C351   C353    1.430   .     A
C351   C352    1.418   .     A
C352   C941    1.405   .     S
C353   C939    1.424   .     S
C354   C355    1.411   .     A
C354   C938    1.424   1_554 S
C355   C356    1.389   .     A
C355   H358    1.077   .     S
C356   I370    2.132   .     S
C356   C937    1.405   1_554 S
H363   C206    1.086   1_655 S
H365   C534    1.086   .     S
O371   Zn388   1.938   .     S
O371   Zn387   1.953   .     S
O371   Zn390   1.929   .     S
O371   Zn389   1.931   .     S
O372   Zn388   1.919   .     S
O373   Zn390   1.927   .     S
O374   Zn389   1.922   .     S
O375   Zn387   1.915   .     S
O379   Zn387   1.929   .     S
O380   Zn390   1.931   .     S
O381   Zn388   1.927   .     S
O382   Zn389   1.936   .     S
O383   Zn390   1.932   .     S
O384   Zn387   1.925   .     S
O385   Zn388   1.936   .     S
O386   Zn389   1.931   .     S
C391   C401    1.437   .     S
C391   O446    1.268   .     A
C391   O448    1.267   .     A
C392   C393    1.400   .     A
C392   C415    1.487   .     S
C392   C418    1.427   .     A
C393   H432    1.085   .     S
C393   C980    1.394   .     S
C394   O447    1.278   .     A
C394   O449    1.275   .     A
C394   C400    1.454   .     S
C395   C396    1.414   .     A
C395   C397    1.404   .     A
C395   C978    1.394   1_554 S
C396   C399    1.410   .     A
C396   C419    1.424   .     A
C397   C398    1.403   .     A
C397   H422    1.084   .     S
C398   C412    1.487   .     S
C398   C410    1.410   .     A
C399   H431    1.078   .     S
C399   C410    1.396   .     A
C400   C466    1.334   .     S
C400   H492    1.088   .     S
C401   C530    1.334   1_455 S
C401   H558    1.086   1_455 S
C402   C414    1.485   .     S
C402   C409    1.421   .     A
C402   C411    1.401   .     A
C403   C406    1.451   .     S
C403   C14     1.331   1_565 S
C403   H39     1.088   1_565 S
C404   C405    1.435   .     S
C405   O450    1.274   .     A
C405   O444    1.274   .     A
C406   O445    1.269   .     A
C406   O451    1.268   .     A
C407   C410    1.463   .     S
C407   O439    1.276   .     A
C407   O437    1.276   .     A
C408   O440    1.294   .     A
C408   C409    1.489   .     S
C408   O438    1.281   .     A
C409   C413    1.402   .     A
C411   C417    1.403   .     A
C411   H433    1.081   .     S
C412   H424    1.084   .     S
C412   O441    1.221   .     D
C413   C416    1.410   .     A
C413   H434    1.079   .     S
C414   O442    1.222   .     D
C414   H425    1.083   .     S
C415   O443    1.221   .     D
C415   H426    1.085   .     S
C416   C418    1.430   .     A
C416   C417    1.418   .     A
C417   C1006   1.405   .     S
C418   C1004   1.424   .     S
C419   C420    1.411   .     A
C419   C1003   1.424   1_554 S
C420   C421    1.389   .     A
C420   H423    1.077   .     S
C421   I435    2.132   .     S
C421   C1002   1.405   1_554 S
H427   C530    1.088   1_455 S
H428   C466    1.086   .     S
H430   C14     1.086   1_565 S
O436   Zn453   1.938   .     S
O436   Zn452   1.953   .     S
O436   Zn455   1.929   .     S
O436   Zn454   1.931   .     S
O437   Zn453   1.919   .     S
O438   Zn455   1.927   .     S
O439   Zn454   1.922   .     S
O440   Zn452   1.915   .     S
O444   Zn452   1.929   .     S
O445   Zn455   1.931   .     S
O446   Zn453   1.927   .     S
O447   Zn454   1.936   .     S
O448   Zn455   1.932   .     S
O449   Zn452   1.925   .     S
O450   Zn453   1.936   .     S
O451   Zn454   1.931   .     S
C456   C466    1.437   .     S
C456   O511    1.268   .     A
C456   O513    1.267   .     A
C457   C458    1.400   .     A
C457   C480    1.487   .     S
C457   C483    1.427   .     A
C458   H497    1.085   .     S
C458   C1045   1.394   .     S
C459   O512    1.278   .     A
C459   O514    1.275   .     A
C459   C465    1.454   .     S
C460   C461    1.414   .     A
C460   C462    1.404   .     A
C460   C1043   1.394   1_554 S
C461   C464    1.410   .     A
C461   C484    1.424   .     A
C462   C463    1.403   .     A
C462   H487    1.084   .     S
C463   C477    1.487   .     S
C463   C475    1.410   .     A
C464   H496    1.078   .     S
C464   C475    1.396   .     A
C465   C531    1.334   .     S
C465   H557    1.088   .     S
C467   C479    1.485   .     S
C467   C474    1.421   .     A
C467   C476    1.401   .     A
C468   C471    1.451   .     S
C468   C79     1.331   1_565 S
C468   H104    1.088   1_565 S
C469   C470    1.435   .     S
C470   O515    1.274   .     A
C470   O509    1.274   .     A
C471   O510    1.269   .     A
C471   O516    1.268   .     A
C472   C475    1.463   .     S
C472   O504    1.276   .     A
C472   O502    1.276   .     A
C473   O505    1.294   .     A
C473   C474    1.489   .     S
C473   O503    1.281   .     A
C474   C478    1.402   .     A
C476   C482    1.403   .     A
C476   H498    1.081   .     S
C477   H489    1.084   .     S
C477   O506    1.221   .     D
C478   C481    1.410   .     A
C478   H499    1.079   .     S
C479   O507    1.222   .     D
C479   H490    1.083   .     S
C480   O508    1.221   .     D
C480   H491    1.085   .     S
C481   C483    1.430   .     A
C481   C482    1.418   .     A
C482   C1071   1.405   .     S
C483   C1069   1.424   .     S
C484   C485    1.411   .     A
C484   C1068   1.424   1_554 S
C485   C486    1.389   .     A
C485   H488    1.077   .     S
C486   I500    2.132   .     S
C486   C1067   1.405   1_554 S
H493   C531    1.086   .     S
H495   C79     1.086   1_565 S
O501   Zn518   1.938   .     S
O501   Zn517   1.953   .     S
O501   Zn520   1.929   .     S
O501   Zn519   1.931   .     S
O502   Zn518   1.919   .     S
O503   Zn520   1.927   .     S
O504   Zn519   1.922   .     S
O505   Zn517   1.915   .     S
O509   Zn517   1.929   .     S
O510   Zn520   1.931   .     S
O511   Zn518   1.927   .     S
O512   Zn519   1.936   .     S
O513   Zn520   1.932   .     S
O514   Zn517   1.925   .     S
O515   Zn518   1.936   .     S
O516   Zn519   1.931   .     S
C521   C531    1.437   .     S
C521   O576    1.268   .     A
C521   O578    1.267   .     A
C522   C523    1.400   .     A
C522   C545    1.487   .     S
C522   C548    1.427   .     A
C523   H562    1.085   .     S
C523   C1110   1.394   .     S
C524   O577    1.278   .     A
C524   O579    1.275   .     A
C524   C530    1.454   .     S
C525   C526    1.414   .     A
C525   C527    1.404   .     A
C525   C1108   1.394   1_554 S
C526   C529    1.410   .     A
C526   C549    1.424   .     A
C527   C528    1.403   .     A
C527   H552    1.084   .     S
C528   C542    1.487   .     S
C528   C540    1.410   .     A
C529   H561    1.078   .     S
C529   C540    1.396   .     A
C530   C401    1.334   1_655 S
C530   H427    1.088   1_655 S
C532   C544    1.485   .     S
C532   C539    1.421   .     A
C532   C541    1.401   .     A
C533   C536    1.451   .     S
C533   C144    1.331   1_565 S
C533   H169    1.088   1_565 S
C534   C535    1.435   .     S
C535   O580    1.274   .     A
C535   O574    1.274   .     A
C536   O575    1.269   .     A
C536   O581    1.268   .     A
C537   C540    1.463   .     S
C537   O569    1.276   .     A
C537   O567    1.276   .     A
C538   O570    1.294   .     A
C538   C539    1.489   .     S
C538   O568    1.281   .     A
C539   C543    1.402   .     A
C541   C547    1.403   .     A
C541   H563    1.081   .     S
C542   H554    1.084   .     S
C542   O571    1.221   .     D
C543   C546    1.410   .     A
C543   H564    1.079   .     S
C544   O572    1.222   .     D
C544   H555    1.083   .     S
C545   O573    1.221   .     D
C545   H556    1.085   .     S
C546   C548    1.430   .     A
C546   C547    1.418   .     A
C547   C1136   1.405   .     S
C548   C1134   1.424   .     S
C549   C550    1.411   .     A
C549   C1133   1.424   1_554 S
C550   C551    1.389   .     A
C550   H553    1.077   .     S
C551   I565    2.132   .     S
C551   C1132   1.405   1_554 S
H558   C401    1.086   1_655 S
H560   C144    1.086   1_565 S
O566   Zn583   1.938   .     S
O566   Zn582   1.953   .     S
O566   Zn585   1.929   .     S
O566   Zn584   1.931   .     S
O567   Zn583   1.919   .     S
O568   Zn585   1.927   .     S
O569   Zn584   1.922   .     S
O570   Zn582   1.915   .     S
O574   Zn582   1.929   .     S
O575   Zn585   1.931   .     S
O576   Zn583   1.927   .     S
O577   Zn584   1.936   .     S
O578   Zn585   1.932   .     S
O579   Zn582   1.925   .     S
O580   Zn583   1.936   .     S
O581   Zn584   1.931   .     S
C586   C596    1.437   .     S
C586   O641    1.268   .     A
C586   O643    1.267   .     A
C587   C588    1.400   .     A
C587   C610    1.487   .     S
C587   C613    1.427   .     A
C588   H627    1.085   .     S
C588   C5      1.394   1_556 S
C589   O642    1.278   .     A
C589   O644    1.275   .     A
C589   C595    1.454   .     S
C590   C591    1.414   .     A
C590   C592    1.404   .     A
C591   C594    1.410   .     A
C591   C614    1.424   .     A
C592   C593    1.403   .     A
C592   H617    1.084   .     S
C593   C607    1.487   .     S
C593   C605    1.410   .     A
C594   H626    1.078   .     S
C594   C605    1.396   .     A
C595   C661    1.334   .     S
C595   H687    1.088   .     S
C596   C725    1.334   1_455 S
C596   H753    1.086   1_455 S
C597   C609    1.485   .     S
C597   C604    1.421   .     A
C597   C606    1.401   .     A
C598   C601    1.451   .     S
C598   C794    1.331   .     S
C598   H819    1.088   .     S
C599   C600    1.435   .     S
C599   C988    1.331   1_545 S
C599   H1015   1.086   1_545 S
C600   O645    1.274   .     A
C600   O639    1.274   .     A
C601   O640    1.269   .     A
C601   O646    1.268   .     A
C602   C605    1.463   .     S
C602   O634    1.276   .     A
C602   O632    1.276   .     A
C603   O635    1.294   .     A
C603   C604    1.489   .     S
C603   O633    1.281   .     A
C604   C608    1.402   .     A
C606   C612    1.403   .     A
C606   H628    1.081   .     S
C607   H619    1.084   .     S
C607   O636    1.221   .     D
C608   C611    1.410   .     A
C608   H629    1.079   .     S
C609   O637    1.222   .     D
C609   H620    1.083   .     S
C610   O638    1.221   .     D
C610   H621    1.085   .     S
C611   C613    1.430   .     A
C611   C612    1.418   .     A
C612   C31     1.405   1_556 S
C613   C29     1.424   1_556 S
C614   C615    1.411   .     A
C615   C616    1.389   .     A
C615   H618    1.077   .     S
C616   I630    2.132   .     S
H622   C725    1.088   1_455 S
H623   C661    1.086   .     S
H624   C988    1.088   1_545 S
H625   C794    1.086   .     S
O631   Zn648   1.938   .     S
O631   Zn647   1.953   .     S
O631   Zn650   1.929   .     S
O631   Zn649   1.931   .     S
O632   Zn648   1.919   .     S
O633   Zn650   1.927   .     S
O634   Zn649   1.922   .     S
O635   Zn647   1.915   .     S
O639   Zn647   1.929   .     S
O640   Zn650   1.931   .     S
O641   Zn648   1.927   .     S
O642   Zn649   1.936   .     S
O643   Zn650   1.932   .     S
O644   Zn647   1.925   .     S
O645   Zn648   1.936   .     S
O646   Zn649   1.931   .     S
C651   C661    1.437   .     S
C651   O706    1.268   .     A
C651   O708    1.267   .     A
C652   C653    1.400   .     A
C652   C675    1.487   .     S
C652   C678    1.427   .     A
C653   H692    1.085   .     S
C653   C70     1.394   1_556 S
C654   O707    1.278   .     A
C654   O709    1.275   .     A
C654   C660    1.454   .     S
C655   C656    1.414   .     A
C655   C657    1.404   .     A
C656   C659    1.410   .     A
C656   C679    1.424   .     A
C657   C658    1.403   .     A
C657   H682    1.084   .     S
C658   C672    1.487   .     S
C658   C670    1.410   .     A
C659   H691    1.078   .     S
C659   C670    1.396   .     A
C660   C726    1.334   .     S
C660   H752    1.088   .     S
C662   C674    1.485   .     S
C662   C669    1.421   .     A
C662   C671    1.401   .     A
C663   C666    1.451   .     S
C663   C859    1.331   .     S
C663   H884    1.088   .     S
C664   C665    1.435   .     S
C664   C1053   1.331   1_545 S
C664   H1080   1.086   1_545 S
C665   O710    1.274   .     A
C665   O704    1.274   .     A
C666   O705    1.269   .     A
C666   O711    1.268   .     A
C667   C670    1.463   .     S
C667   O699    1.276   .     A
C667   O697    1.276   .     A
C668   O700    1.294   .     A
C668   C669    1.489   .     S
C668   O698    1.281   .     A
C669   C673    1.402   .     A
C671   C677    1.403   .     A
C671   H693    1.081   .     S
C672   H684    1.084   .     S
C672   O701    1.221   .     D
C673   C676    1.410   .     A
C673   H694    1.079   .     S
C674   O702    1.222   .     D
C674   H685    1.083   .     S
C675   O703    1.221   .     D
C675   H686    1.085   .     S
C676   C678    1.430   .     A
C676   C677    1.418   .     A
C677   C96     1.405   1_556 S
C678   C94     1.424   1_556 S
C679   C680    1.411   .     A
C680   C681    1.389   .     A
C680   H683    1.077   .     S
C681   I695    2.132   .     S
H688   C726    1.086   .     S
H689   C1053   1.088   1_545 S
H690   C859    1.086   .     S
O696   Zn713   1.938   .     S
O696   Zn712   1.953   .     S
O696   Zn715   1.929   .     S
O696   Zn714   1.931   .     S
O697   Zn713   1.919   .     S
O698   Zn715   1.927   .     S
O699   Zn714   1.922   .     S
O700   Zn712   1.915   .     S
O704   Zn712   1.929   .     S
O705   Zn715   1.931   .     S
O706   Zn713   1.927   .     S
O707   Zn714   1.936   .     S
O708   Zn715   1.932   .     S
O709   Zn712   1.925   .     S
O710   Zn713   1.936   .     S
O711   Zn714   1.931   .     S
C716   C726    1.437   .     S
C716   O771    1.268   .     A
C716   O773    1.267   .     A
C717   C718    1.400   .     A
C717   C740    1.487   .     S
C717   C743    1.427   .     A
C718   H757    1.085   .     S
C718   C135    1.394   1_556 S
C719   O772    1.278   .     A
C719   O774    1.275   .     A
C719   C725    1.454   .     S
C720   C721    1.414   .     A
C720   C722    1.404   .     A
C721   C724    1.410   .     A
C721   C744    1.424   .     A
C722   C723    1.403   .     A
C722   H747    1.084   .     S
C723   C737    1.487   .     S
C723   C735    1.410   .     A
C724   H756    1.078   .     S
C724   C735    1.396   .     A
C725   C596    1.334   1_655 S
C725   H622    1.088   1_655 S
C727   C739    1.485   .     S
C727   C734    1.421   .     A
C727   C736    1.401   .     A
C728   C731    1.451   .     S
C728   C924    1.331   .     S
C728   H949    1.088   .     S
C729   C730    1.435   .     S
C729   C1118   1.331   1_545 S
C729   H1145   1.086   1_545 S
C730   O775    1.274   .     A
C730   O769    1.274   .     A
C731   O770    1.269   .     A
C731   O776    1.268   .     A
C732   C735    1.463   .     S
C732   O764    1.276   .     A
C732   O762    1.276   .     A
C733   O765    1.294   .     A
C733   C734    1.489   .     S
C733   O763    1.281   .     A
C734   C738    1.402   .     A
C736   C742    1.403   .     A
C736   H758    1.081   .     S
C737   H749    1.084   .     S
C737   O766    1.221   .     D
C738   C741    1.410   .     A
C738   H759    1.079   .     S
C739   O767    1.222   .     D
C739   H750    1.083   .     S
C740   O768    1.221   .     D
C740   H751    1.085   .     S
C741   C743    1.430   .     A
C741   C742    1.418   .     A
C742   C161    1.405   1_556 S
C743   C159    1.424   1_556 S
C744   C745    1.411   .     A
C745   C746    1.389   .     A
C745   H748    1.077   .     S
C746   I760    2.132   .     S
H753   C596    1.086   1_655 S
H754   C1118   1.088   1_545 S
H755   C924    1.086   .     S
O761   Zn778   1.938   .     S
O761   Zn777   1.953   .     S
O761   Zn780   1.929   .     S
O761   Zn779   1.931   .     S
O762   Zn778   1.919   .     S
O763   Zn780   1.927   .     S
O764   Zn779   1.922   .     S
O765   Zn777   1.915   .     S
O769   Zn777   1.929   .     S
O770   Zn780   1.931   .     S
O771   Zn778   1.927   .     S
O772   Zn779   1.936   .     S
O773   Zn780   1.932   .     S
O774   Zn777   1.925   .     S
O775   Zn778   1.936   .     S
O776   Zn779   1.931   .     S
C781   C791    1.437   .     S
C781   O836    1.268   .     A
C781   O838    1.267   .     A
C782   C783    1.400   .     A
C782   C805    1.487   .     S
C782   C808    1.427   .     A
C783   H822    1.085   .     S
C783   C200    1.394   1_556 S
C784   O837    1.278   .     A
C784   O839    1.275   .     A
C784   C790    1.454   .     S
C785   C786    1.414   .     A
C785   C787    1.404   .     A
C786   C789    1.410   .     A
C786   C809    1.424   .     A
C787   C788    1.403   .     A
C787   H812    1.084   .     S
C788   C802    1.487   .     S
C788   C800    1.410   .     A
C789   H821    1.078   .     S
C789   C800    1.396   .     A
C790   C856    1.334   .     S
C790   H882    1.088   .     S
C791   C920    1.334   1_455 S
C791   H948    1.086   1_455 S
C792   C804    1.485   .     S
C792   C799    1.421   .     A
C792   C801    1.401   .     A
C793   C796    1.451   .     S
C793   C989    1.331   .     S
C793   H1014   1.088   .     S
C794   C795    1.435   .     S
C795   O840    1.274   .     A
C795   O834    1.274   .     A
C796   O835    1.269   .     A
C796   O841    1.268   .     A
C797   C800    1.463   .     S
C797   O829    1.276   .     A
C797   O827    1.276   .     A
C798   O830    1.294   .     A
C798   C799    1.489   .     S
C798   O828    1.281   .     A
C799   C803    1.402   .     A
C801   C807    1.403   .     A
C801   H823    1.081   .     S
C802   H814    1.084   .     S
C802   O831    1.221   .     D
C803   C806    1.410   .     A
C803   H824    1.079   .     S
C804   O832    1.222   .     D
C804   H815    1.083   .     S
C805   O833    1.221   .     D
C805   H816    1.085   .     S
C806   C808    1.430   .     A
C806   C807    1.418   .     A
C807   C226    1.405   1_556 S
C808   C224    1.424   1_556 S
C809   C810    1.411   .     A
C810   C811    1.389   .     A
C810   H813    1.077   .     S
C811   I825    2.132   .     S
H817   C920    1.088   1_455 S
H818   C856    1.086   .     S
H820   C989    1.086   .     S
O826   Zn843   1.938   .     S
O826   Zn842   1.953   .     S
O826   Zn845   1.929   .     S
O826   Zn844   1.931   .     S
O827   Zn843   1.919   .     S
O828   Zn845   1.927   .     S
O829   Zn844   1.922   .     S
O830   Zn842   1.915   .     S
O834   Zn842   1.929   .     S
O835   Zn845   1.931   .     S
O836   Zn843   1.927   .     S
O837   Zn844   1.936   .     S
O838   Zn845   1.932   .     S
O839   Zn842   1.925   .     S
O840   Zn843   1.936   .     S
O841   Zn844   1.931   .     S
C846   C856    1.437   .     S
C846   O901    1.268   .     A
C846   O903    1.267   .     A
C847   C848    1.400   .     A
C847   C870    1.487   .     S
C847   C873    1.427   .     A
C848   H887    1.085   .     S
C848   C265    1.394   1_556 S
C849   O902    1.278   .     A
C849   O904    1.275   .     A
C849   C855    1.454   .     S
C850   C851    1.414   .     A
C850   C852    1.404   .     A
C851   C854    1.410   .     A
C851   C874    1.424   .     A
C852   C853    1.403   .     A
C852   H877    1.084   .     S
C853   C867    1.487   .     S
C853   C865    1.410   .     A
C854   H886    1.078   .     S
C854   C865    1.396   .     A
C855   C921    1.334   .     S
C855   H947    1.088   .     S
C857   C869    1.485   .     S
C857   C864    1.421   .     A
C857   C866    1.401   .     A
C858   C861    1.451   .     S
C858   C1054   1.331   .     S
C858   H1079   1.088   .     S
C859   C860    1.435   .     S
C860   O905    1.274   .     A
C860   O899    1.274   .     A
C861   O900    1.269   .     A
C861   O906    1.268   .     A
C862   C865    1.463   .     S
C862   O894    1.276   .     A
C862   O892    1.276   .     A
C863   O895    1.294   .     A
C863   C864    1.489   .     S
C863   O893    1.281   .     A
C864   C868    1.402   .     A
C866   C872    1.403   .     A
C866   H888    1.081   .     S
C867   H879    1.084   .     S
C867   O896    1.221   .     D
C868   C871    1.410   .     A
C868   H889    1.079   .     S
C869   O897    1.222   .     D
C869   H880    1.083   .     S
C870   O898    1.221   .     D
C870   H881    1.085   .     S
C871   C873    1.430   .     A
C871   C872    1.418   .     A
C872   C291    1.405   1_556 S
C873   C289    1.424   1_556 S
C874   C875    1.411   .     A
C875   C876    1.389   .     A
C875   H878    1.077   .     S
C876   I890    2.132   .     S
H883   C921    1.086   .     S
H885   C1054   1.086   .     S
O891   Zn908   1.938   .     S
O891   Zn907   1.953   .     S
O891   Zn910   1.929   .     S
O891   Zn909   1.931   .     S
O892   Zn908   1.919   .     S
O893   Zn910   1.927   .     S
O894   Zn909   1.922   .     S
O895   Zn907   1.915   .     S
O899   Zn907   1.929   .     S
O900   Zn910   1.931   .     S
O901   Zn908   1.927   .     S
O902   Zn909   1.936   .     S
O903   Zn910   1.932   .     S
O904   Zn907   1.925   .     S
O905   Zn908   1.936   .     S
O906   Zn909   1.931   .     S
C911   C921    1.437   .     S
C911   O966    1.268   .     A
C911   O968    1.267   .     A
C912   C913    1.400   .     A
C912   C935    1.487   .     S
C912   C938    1.427   .     A
C913   H952    1.085   .     S
C913   C330    1.394   1_556 S
C914   O967    1.278   .     A
C914   O969    1.275   .     A
C914   C920    1.454   .     S
C915   C916    1.414   .     A
C915   C917    1.404   .     A
C916   C919    1.410   .     A
C916   C939    1.424   .     A
C917   C918    1.403   .     A
C917   H942    1.084   .     S
C918   C932    1.487   .     S
C918   C930    1.410   .     A
C919   H951    1.078   .     S
C919   C930    1.396   .     A
C920   C791    1.334   1_655 S
C920   H817    1.088   1_655 S
C922   C934    1.485   .     S
C922   C929    1.421   .     A
C922   C931    1.401   .     A
C923   C926    1.451   .     S
C923   C1119   1.331   .     S
C923   H1144   1.088   .     S
C924   C925    1.435   .     S
C925   O970    1.274   .     A
C925   O964    1.274   .     A
C926   O965    1.269   .     A
C926   O971    1.268   .     A
C927   C930    1.463   .     S
C927   O959    1.276   .     A
C927   O957    1.276   .     A
C928   O960    1.294   .     A
C928   C929    1.489   .     S
C928   O958    1.281   .     A
C929   C933    1.402   .     A
C931   C937    1.403   .     A
C931   H953    1.081   .     S
C932   H944    1.084   .     S
C932   O961    1.221   .     D
C933   C936    1.410   .     A
C933   H954    1.079   .     S
C934   O962    1.222   .     D
C934   H945    1.083   .     S
C935   O963    1.221   .     D
C935   H946    1.085   .     S
C936   C938    1.430   .     A
C936   C937    1.418   .     A
C937   C356    1.405   1_556 S
C938   C354    1.424   1_556 S
C939   C940    1.411   .     A
C940   C941    1.389   .     A
C940   H943    1.077   .     S
C941   I955    2.132   .     S
H948   C791    1.086   1_655 S
H950   C1119   1.086   .     S
O956   Zn973   1.938   .     S
O956   Zn972   1.953   .     S
O956   Zn975   1.929   .     S
O956   Zn974   1.931   .     S
O957   Zn973   1.919   .     S
O958   Zn975   1.927   .     S
O959   Zn974   1.922   .     S
O960   Zn972   1.915   .     S
O964   Zn972   1.929   .     S
O965   Zn975   1.931   .     S
O966   Zn973   1.927   .     S
O967   Zn974   1.936   .     S
O968   Zn975   1.932   .     S
O969   Zn972   1.925   .     S
O970   Zn973   1.936   .     S
O971   Zn974   1.931   .     S
C976   C986    1.437   .     S
C976   O1031   1.268   .     A
C976   O1033   1.267   .     A
C977   C978    1.400   .     A
C977   C1000   1.487   .     S
C977   C1003   1.427   .     A
C978   H1017   1.085   .     S
C978   C395    1.394   1_556 S
C979   O1032   1.278   .     A
C979   O1034   1.275   .     A
C979   C985    1.454   .     S
C980   C981    1.414   .     A
C980   C982    1.404   .     A
C981   C984    1.410   .     A
C981   C1004   1.424   .     A
C982   C983    1.403   .     A
C982   H1007   1.084   .     S
C983   C997    1.487   .     S
C983   C995    1.410   .     A
C984   H1016   1.078   .     S
C984   C995    1.396   .     A
C985   C1051   1.334   .     S
C985   H1077   1.088   .     S
C986   C1115   1.334   1_455 S
C986   H1143   1.086   1_455 S
C987   C999    1.485   .     S
C987   C994    1.421   .     A
C987   C996    1.401   .     A
C988   C991    1.451   .     S
C988   C599    1.331   1_565 S
C988   H624    1.088   1_565 S
C989   C990    1.435   .     S
C990   O1035   1.274   .     A
C990   O1029   1.274   .     A
C991   O1030   1.269   .     A
C991   O1036   1.268   .     A
C992   C995    1.463   .     S
C992   O1024   1.276   .     A
C992   O1022   1.276   .     A
C993   O1025   1.294   .     A
C993   C994    1.489   .     S
C993   O1023   1.281   .     A
C994   C998    1.402   .     A
C996   C1002   1.403   .     A
C996   H1018   1.081   .     S
C997   H1009   1.084   .     S
C997   O1026   1.221   .     D
C998   C1001   1.410   .     A
C998   H1019   1.079   .     S
C999   O1027   1.222   .     D
C999   H1010   1.083   .     S
C1000  O1028   1.221   .     D
C1000  H1011   1.085   .     S
C1001  C1003   1.430   .     A
C1001  C1002   1.418   .     A
C1002  C421    1.405   1_556 S
C1003  C419    1.424   1_556 S
C1004  C1005   1.411   .     A
C1005  C1006   1.389   .     A
C1005  H1008   1.077   .     S
C1006  I1020   2.132   .     S
H1012  C1115   1.088   1_455 S
H1013  C1051   1.086   .     S
H1015  C599    1.086   1_565 S
O1021  Zn1038  1.938   .     S
O1021  Zn1037  1.953   .     S
O1021  Zn1040  1.929   .     S
O1021  Zn1039  1.931   .     S
O1022  Zn1038  1.919   .     S
O1023  Zn1040  1.927   .     S
O1024  Zn1039  1.922   .     S
O1025  Zn1037  1.915   .     S
O1029  Zn1037  1.929   .     S
O1030  Zn1040  1.931   .     S
O1031  Zn1038  1.927   .     S
O1032  Zn1039  1.936   .     S
O1033  Zn1040  1.932   .     S
O1034  Zn1037  1.925   .     S
O1035  Zn1038  1.936   .     S
O1036  Zn1039  1.931   .     S
C1041  C1051   1.437   .     S
C1041  O1096   1.268   .     A
C1041  O1098   1.267   .     A
C1042  C1043   1.400   .     A
C1042  C1065   1.487   .     S
C1042  C1068   1.427   .     A
C1043  H1082   1.085   .     S
C1043  C460    1.394   1_556 S
C1044  O1097   1.278   .     A
C1044  O1099   1.275   .     A
C1044  C1050   1.454   .     S
C1045  C1046   1.414   .     A
C1045  C1047   1.404   .     A
C1046  C1049   1.410   .     A
C1046  C1069   1.424   .     A
C1047  C1048   1.403   .     A
C1047  H1072   1.084   .     S
C1048  C1062   1.487   .     S
C1048  C1060   1.410   .     A
C1049  H1081   1.078   .     S
C1049  C1060   1.396   .     A
C1050  C1116   1.334   .     S
C1050  H1142   1.088   .     S
C1052  C1064   1.485   .     S
C1052  C1059   1.421   .     A
C1052  C1061   1.401   .     A
C1053  C1056   1.451   .     S
C1053  C664    1.331   1_565 S
C1053  H689    1.088   1_565 S
C1054  C1055   1.435   .     S
C1055  O1100   1.274   .     A
C1055  O1094   1.274   .     A
C1056  O1095   1.269   .     A
C1056  O1101   1.268   .     A
C1057  C1060   1.463   .     S
C1057  O1089   1.276   .     A
C1057  O1087   1.276   .     A
C1058  O1090   1.294   .     A
C1058  C1059   1.489   .     S
C1058  O1088   1.281   .     A
C1059  C1063   1.402   .     A
C1061  C1067   1.403   .     A
C1061  H1083   1.081   .     S
C1062  H1074   1.084   .     S
C1062  O1091   1.221   .     D
C1063  C1066   1.410   .     A
C1063  H1084   1.079   .     S
C1064  O1092   1.222   .     D
C1064  H1075   1.083   .     S
C1065  O1093   1.221   .     D
C1065  H1076   1.085   .     S
C1066  C1068   1.430   .     A
C1066  C1067   1.418   .     A
C1067  C486    1.405   1_556 S
C1068  C484    1.424   1_556 S
C1069  C1070   1.411   .     A
C1070  C1071   1.389   .     A
C1070  H1073   1.077   .     S
C1071  I1085   2.132   .     S
H1078  C1116   1.086   .     S
H1080  C664    1.086   1_565 S
O1086  Zn1103  1.938   .     S
O1086  Zn1102  1.953   .     S
O1086  Zn1105  1.929   .     S
O1086  Zn1104  1.931   .     S
O1087  Zn1103  1.919   .     S
O1088  Zn1105  1.927   .     S
O1089  Zn1104  1.922   .     S
O1090  Zn1102  1.915   .     S
O1094  Zn1102  1.929   .     S
O1095  Zn1105  1.931   .     S
O1096  Zn1103  1.927   .     S
O1097  Zn1104  1.936   .     S
O1098  Zn1105  1.932   .     S
O1099  Zn1102  1.925   .     S
O1100  Zn1103  1.936   .     S
O1101  Zn1104  1.931   .     S
C1106  C1116   1.437   .     S
C1106  O1161   1.268   .     A
C1106  O1163   1.267   .     A
C1107  C1108   1.400   .     A
C1107  C1130   1.487   .     S
C1107  C1133   1.427   .     A
C1108  H1147   1.085   .     S
C1108  C525    1.394   1_556 S
C1109  O1162   1.278   .     A
C1109  O1164   1.275   .     A
C1109  C1115   1.454   .     S
C1110  C1111   1.414   .     A
C1110  C1112   1.404   .     A
C1111  C1114   1.410   .     A
C1111  C1134   1.424   .     A
C1112  C1113   1.403   .     A
C1112  H1137   1.084   .     S
C1113  C1127   1.487   .     S
C1113  C1125   1.410   .     A
C1114  H1146   1.078   .     S
C1114  C1125   1.396   .     A
C1115  C986    1.334   1_655 S
C1115  H1012   1.088   1_655 S
C1117  C1129   1.485   .     S
C1117  C1124   1.421   .     A
C1117  C1126   1.401   .     A
C1118  C1121   1.451   .     S
C1118  C729    1.331   1_565 S
C1118  H754    1.088   1_565 S
C1119  C1120   1.435   .     S
C1120  O1165   1.274   .     A
C1120  O1159   1.274   .     A
C1121  O1160   1.269   .     A
C1121  O1166   1.268   .     A
C1122  C1125   1.463   .     S
C1122  O1154   1.276   .     A
C1122  O1152   1.276   .     A
C1123  O1155   1.294   .     A
C1123  C1124   1.489   .     S
C1123  O1153   1.281   .     A
C1124  C1128   1.402   .     A
C1126  C1132   1.403   .     A
C1126  H1148   1.081   .     S
C1127  H1139   1.084   .     S
C1127  O1156   1.221   .     D
C1128  C1131   1.410   .     A
C1128  H1149   1.079   .     S
C1129  O1157   1.222   .     D
C1129  H1140   1.083   .     S
C1130  O1158   1.221   .     D
C1130  H1141   1.085   .     S
C1131  C1133   1.430   .     A
C1131  C1132   1.418   .     A
C1132  C551    1.405   1_556 S
C1133  C549    1.424   1_556 S
C1134  C1135   1.411   .     A
C1135  C1136   1.389   .     A
C1135  H1138   1.077   .     S
C1136  I1150   2.132   .     S
H1143  C986    1.086   1_655 S
H1145  C729    1.086   1_565 S
O1151  Zn1168  1.938   .     S
O1151  Zn1167  1.953   .     S
O1151  Zn1170  1.929   .     S
O1151  Zn1169  1.931   .     S
O1152  Zn1168  1.919   .     S
O1153  Zn1170  1.927   .     S
O1154  Zn1169  1.922   .     S
O1155  Zn1167  1.915   .     S
O1159  Zn1167  1.929   .     S
O1160  Zn1170  1.931   .     S
O1161  Zn1168  1.927   .     S
O1162  Zn1169  1.936   .     S
O1163  Zn1170  1.932   .     S
O1164  Zn1167  1.925   .     S
O1165  Zn1168  1.936   .     S
O1166  Zn1169  1.931   .     S
