data_str_m2_o2_o5_pcu_sym.128
_audit_creation_date              2020-01-03
_audit_creation_method            'Materials Studio'
_symmetry_space_group_name_H-M    'P1'
_symmetry_Int_Tables_number       1
_symmetry_cell_setting            triclinic
loop_
_symmetry_equiv_pos_as_xyz
  x,y,z
_cell_length_a                    30.1407
_cell_length_b                    27.7544
_cell_length_c                    27.2233
_cell_angle_alpha                 89.8754
_cell_angle_beta                  90.2467
_cell_angle_gamma                 91.0747
loop_
_atom_site_label
_atom_site_type_symbol
_atom_site_fract_x
_atom_site_fract_y
_atom_site_fract_z
_atom_site_U_iso_or_equiv
_atom_site_adp_type
_atom_site_occupancy
C1     C     0.16504   0.24947   0.16622   0.00000  Uiso   1.00
C2     C     0.33496   0.25052   0.16711   0.00000  Uiso   1.00
C3     C     0.28347   0.10526   0.18928   0.00000  Uiso   1.00
C4     C     0.22894   0.39496   0.13003   0.00000  Uiso   1.00
C5     C     0.21643   0.10409   0.14416   0.00000  Uiso   1.00
C6     C     0.27106   0.39566   0.20330   0.00000  Uiso   1.00
C7     C     0.28424   0.05458   0.18937   0.00000  Uiso   1.00
C8     C     0.22877   0.44567   0.12915   0.00000  Uiso   1.00
C9     C     0.21558   0.05335   0.14404   0.00000  Uiso   1.00
C10    C     0.27112   0.44637   0.20422   0.00000  Uiso   1.00
C11    C     0.24995   0.25003   0.07352   0.00000  Uiso   1.00
C12    C     0.25005   0.24997   0.25981   0.00000  Uiso   1.00
C13    C     0.24990   0.02733   0.16670   0.00000  Uiso   1.00
C14    C     0.24991   0.47265   0.16670   0.00000  Uiso   1.00
C15    C     0.24998   0.25005   0.02184   0.00000  Uiso   1.00
C16    C     0.25002   0.24996   0.31149   0.00000  Uiso   1.00
C17    C     0.04840   0.25317   0.21298   0.00000  Uiso   1.00
C18    C     0.45151   0.24640   0.12014   0.00000  Uiso   1.00
C19    C     0.45285   0.28175   0.20038   0.00000  Uiso   1.00
C20    C     0.04725   0.21836   0.13249   0.00000  Uiso   1.00
C21    C     0.09460   0.25906   0.21081   0.00000  Uiso   1.00
C22    C     0.40532   0.24051   0.12248   0.00000  Uiso   1.00
C23    C     0.40669   0.27659   0.20359   0.00000  Uiso   1.00
C24    C     0.09340   0.22370   0.12937   0.00000  Uiso   1.00
C25    C     0.11680   0.24731   0.16735   0.00000  Uiso   1.00
C26    C     0.38320   0.25267   0.16587   0.00000  Uiso   1.00
C27    C     0.02417   0.24355   0.16928   0.00000  Uiso   1.00
C28    C     0.47583   0.25626   0.16371   0.00000  Uiso   1.00
Cu29   Cu    0.25000   0.29821   0.16667   0.00000  Uiso   1.00
Cu30   Cu    0.25000   0.20178   0.16667   0.00000  Uiso   1.00
H31    H     0.30997   0.12528   0.20732   0.00000  Uiso   1.00
H32    H     0.21222   0.37507   0.10104   0.00000  Uiso   1.00
H33    H     0.18991   0.12323   0.12630   0.00000  Uiso   1.00
H34    H     0.28784   0.37634   0.23225   0.00000  Uiso   1.00
H35    H     0.31206   0.03715   0.20666   0.00000  Uiso   1.00
H36    H     0.21259   0.46335   0.09870   0.00000  Uiso   1.00
H37    H     0.18773   0.03490   0.12679   0.00000  Uiso   1.00
H38    H     0.28727   0.46457   0.23469   0.00000  Uiso   1.00
N39    N     0.25000   0.12934   0.16667   0.00000  Uiso   1.00
N40    N     0.25000   0.37065   0.16667   0.00000  Uiso   1.00
O41    O     0.18573   0.29071   0.16667   0.00000  Uiso   1.00
O42    O     0.31427   0.20928   0.16666   0.00000  Uiso   1.00
O43    O     0.31427   0.29071   0.16666   0.00000  Uiso   1.00
O44    O     0.18573   0.20928   0.16667   0.00000  Uiso   1.00
O45    O     0.25000   0.29071   0.09613   0.00000  Uiso   1.00
O46    O     0.25000   0.20929   0.23720   0.00000  Uiso   1.00
O47    O     0.25000   0.29071   0.23720   0.00000  Uiso   1.00
O48    O     0.25000   0.20929   0.09613   0.00000  Uiso   1.00
Cl49   Cl    0.02440   0.24157   0.27122   0.00000  Uiso   1.00
Cl50   Cl    0.47527   0.25800   0.06179   0.00000  Uiso   1.00
Cl51   Cl    0.47833   0.33122   0.23122   0.00000  Uiso   1.00
Cl52   Cl    0.02203   0.16880   0.10155   0.00000  Uiso   1.00
Cl53   Cl    0.12473   0.27668   0.26393   0.00000  Uiso   1.00
Cl54   Cl    0.37509   0.22248   0.06956   0.00000  Uiso   1.00
Cl55   Cl    0.37856   0.30136   0.25429   0.00000  Uiso   1.00
Cl56   Cl    0.12162   0.19952   0.07843   0.00000  Uiso   1.00
C57    C     0.66504   0.24947   0.16622   0.00000  Uiso   1.00
C58    C     0.83496   0.25052   0.16711   0.00000  Uiso   1.00
C59    C     0.78347   0.10526   0.18928   0.00000  Uiso   1.00
C60    C     0.72894   0.39496   0.13003   0.00000  Uiso   1.00
C61    C     0.71643   0.10409   0.14416   0.00000  Uiso   1.00
C62    C     0.77106   0.39566   0.20330   0.00000  Uiso   1.00
C63    C     0.78424   0.05458   0.18937   0.00000  Uiso   1.00
C64    C     0.72877   0.44567   0.12915   0.00000  Uiso   1.00
C65    C     0.71558   0.05335   0.14404   0.00000  Uiso   1.00
C66    C     0.77112   0.44637   0.20422   0.00000  Uiso   1.00
C67    C     0.74995   0.25003   0.07352   0.00000  Uiso   1.00
C68    C     0.75005   0.24997   0.25981   0.00000  Uiso   1.00
C69    C     0.74990   0.02733   0.16670   0.00000  Uiso   1.00
C70    C     0.74991   0.47265   0.16670   0.00000  Uiso   1.00
C71    C     0.74998   0.25005   0.02184   0.00000  Uiso   1.00
C72    C     0.75002   0.24996   0.31149   0.00000  Uiso   1.00
C73    C     0.54840   0.25317   0.21298   0.00000  Uiso   1.00
C74    C     0.95151   0.24640   0.12014   0.00000  Uiso   1.00
C75    C     0.95285   0.28175   0.20038   0.00000  Uiso   1.00
C76    C     0.54725   0.21836   0.13249   0.00000  Uiso   1.00
C77    C     0.59460   0.25906   0.21081   0.00000  Uiso   1.00
C78    C     0.90532   0.24051   0.12248   0.00000  Uiso   1.00
C79    C     0.90669   0.27659   0.20359   0.00000  Uiso   1.00
C80    C     0.59340   0.22370   0.12937   0.00000  Uiso   1.00
C81    C     0.61680   0.24731   0.16735   0.00000  Uiso   1.00
C82    C     0.88320   0.25267   0.16587   0.00000  Uiso   1.00
C83    C     0.52417   0.24355   0.16928   0.00000  Uiso   1.00
C84    C     0.97583   0.25626   0.16371   0.00000  Uiso   1.00
Cu85   Cu    0.75000   0.29821   0.16667   0.00000  Uiso   1.00
Cu86   Cu    0.75000   0.20178   0.16667   0.00000  Uiso   1.00
H87    H     0.80997   0.12528   0.20732   0.00000  Uiso   1.00
H88    H     0.71222   0.37507   0.10104   0.00000  Uiso   1.00
H89    H     0.68991   0.12323   0.12630   0.00000  Uiso   1.00
H90    H     0.78784   0.37634   0.23225   0.00000  Uiso   1.00
H91    H     0.81206   0.03715   0.20666   0.00000  Uiso   1.00
H92    H     0.71259   0.46335   0.09870   0.00000  Uiso   1.00
H93    H     0.68773   0.03490   0.12679   0.00000  Uiso   1.00
H94    H     0.78727   0.46457   0.23469   0.00000  Uiso   1.00
N95    N     0.75000   0.12934   0.16667   0.00000  Uiso   1.00
N96    N     0.75000   0.37065   0.16667   0.00000  Uiso   1.00
O97    O     0.68573   0.29071   0.16667   0.00000  Uiso   1.00
O98    O     0.81427   0.20928   0.16666   0.00000  Uiso   1.00
O99    O     0.81427   0.29071   0.16666   0.00000  Uiso   1.00
O100   O     0.68573   0.20928   0.16667   0.00000  Uiso   1.00
O101   O     0.75000   0.29071   0.09613   0.00000  Uiso   1.00
O102   O     0.75000   0.20929   0.23720   0.00000  Uiso   1.00
O103   O     0.75000   0.29071   0.23720   0.00000  Uiso   1.00
O104   O     0.75000   0.20929   0.09613   0.00000  Uiso   1.00
Cl105  Cl    0.52440   0.24157   0.27122   0.00000  Uiso   1.00
Cl106  Cl    0.97527   0.25800   0.06179   0.00000  Uiso   1.00
Cl107  Cl    0.97833   0.33122   0.23122   0.00000  Uiso   1.00
Cl108  Cl    0.52203   0.16880   0.10155   0.00000  Uiso   1.00
Cl109  Cl    0.62473   0.27668   0.26393   0.00000  Uiso   1.00
Cl110  Cl    0.87509   0.22248   0.06956   0.00000  Uiso   1.00
Cl111  Cl    0.87856   0.30136   0.25429   0.00000  Uiso   1.00
Cl112  Cl    0.62162   0.19952   0.07843   0.00000  Uiso   1.00
C113   C     0.16504   0.74947   0.16622   0.00000  Uiso   1.00
C114   C     0.33496   0.75052   0.16711   0.00000  Uiso   1.00
C115   C     0.28347   0.60526   0.18928   0.00000  Uiso   1.00
C116   C     0.22894   0.89496   0.13003   0.00000  Uiso   1.00
C117   C     0.21643   0.60409   0.14416   0.00000  Uiso   1.00
C118   C     0.27106   0.89566   0.20330   0.00000  Uiso   1.00
C119   C     0.28424   0.55458   0.18937   0.00000  Uiso   1.00
C120   C     0.22877   0.94567   0.12915   0.00000  Uiso   1.00
C121   C     0.21558   0.55335   0.14404   0.00000  Uiso   1.00
C122   C     0.27112   0.94637   0.20422   0.00000  Uiso   1.00
C123   C     0.24995   0.75003   0.07352   0.00000  Uiso   1.00
C124   C     0.25005   0.74997   0.25981   0.00000  Uiso   1.00
C125   C     0.24990   0.52733   0.16670   0.00000  Uiso   1.00
C126   C     0.24991   0.97265   0.16670   0.00000  Uiso   1.00
C127   C     0.24998   0.75005   0.02184   0.00000  Uiso   1.00
C128   C     0.25002   0.74996   0.31149   0.00000  Uiso   1.00
C129   C     0.04840   0.75317   0.21298   0.00000  Uiso   1.00
C130   C     0.45151   0.74640   0.12014   0.00000  Uiso   1.00
C131   C     0.45285   0.78175   0.20038   0.00000  Uiso   1.00
C132   C     0.04725   0.71836   0.13249   0.00000  Uiso   1.00
C133   C     0.09460   0.75906   0.21081   0.00000  Uiso   1.00
C134   C     0.40532   0.74051   0.12248   0.00000  Uiso   1.00
C135   C     0.40669   0.77659   0.20359   0.00000  Uiso   1.00
C136   C     0.09340   0.72370   0.12937   0.00000  Uiso   1.00
C137   C     0.11680   0.74731   0.16735   0.00000  Uiso   1.00
C138   C     0.38320   0.75267   0.16587   0.00000  Uiso   1.00
C139   C     0.02417   0.74355   0.16928   0.00000  Uiso   1.00
C140   C     0.47583   0.75626   0.16371   0.00000  Uiso   1.00
Cu141  Cu    0.25000   0.79821   0.16667   0.00000  Uiso   1.00
Cu142  Cu    0.25000   0.70178   0.16667   0.00000  Uiso   1.00
H143   H     0.30997   0.62528   0.20732   0.00000  Uiso   1.00
H144   H     0.21222   0.87507   0.10104   0.00000  Uiso   1.00
H145   H     0.18991   0.62323   0.12630   0.00000  Uiso   1.00
H146   H     0.28784   0.87634   0.23225   0.00000  Uiso   1.00
H147   H     0.31206   0.53715   0.20666   0.00000  Uiso   1.00
H148   H     0.21259   0.96335   0.09870   0.00000  Uiso   1.00
H149   H     0.18773   0.53490   0.12679   0.00000  Uiso   1.00
H150   H     0.28727   0.96457   0.23469   0.00000  Uiso   1.00
N151   N     0.25000   0.62934   0.16667   0.00000  Uiso   1.00
N152   N     0.25000   0.87065   0.16667   0.00000  Uiso   1.00
O153   O     0.18573   0.79071   0.16667   0.00000  Uiso   1.00
O154   O     0.31427   0.70928   0.16666   0.00000  Uiso   1.00
O155   O     0.31427   0.79071   0.16666   0.00000  Uiso   1.00
O156   O     0.18573   0.70928   0.16667   0.00000  Uiso   1.00
O157   O     0.25000   0.79071   0.09613   0.00000  Uiso   1.00
O158   O     0.25000   0.70929   0.23720   0.00000  Uiso   1.00
O159   O     0.25000   0.79071   0.23720   0.00000  Uiso   1.00
O160   O     0.25000   0.70929   0.09613   0.00000  Uiso   1.00
Cl161  Cl    0.02440   0.74157   0.27122   0.00000  Uiso   1.00
Cl162  Cl    0.47527   0.75800   0.06179   0.00000  Uiso   1.00
Cl163  Cl    0.47833   0.83122   0.23122   0.00000  Uiso   1.00
Cl164  Cl    0.02203   0.66880   0.10155   0.00000  Uiso   1.00
Cl165  Cl    0.12473   0.77668   0.26393   0.00000  Uiso   1.00
Cl166  Cl    0.37509   0.72248   0.06956   0.00000  Uiso   1.00
Cl167  Cl    0.37856   0.80136   0.25429   0.00000  Uiso   1.00
Cl168  Cl    0.12162   0.69952   0.07843   0.00000  Uiso   1.00
C169   C     0.66504   0.74947   0.16622   0.00000  Uiso   1.00
C170   C     0.83496   0.75052   0.16711   0.00000  Uiso   1.00
C171   C     0.78347   0.60526   0.18928   0.00000  Uiso   1.00
C172   C     0.72894   0.89496   0.13003   0.00000  Uiso   1.00
C173   C     0.71643   0.60409   0.14416   0.00000  Uiso   1.00
C174   C     0.77106   0.89566   0.20330   0.00000  Uiso   1.00
C175   C     0.78424   0.55458   0.18937   0.00000  Uiso   1.00
C176   C     0.72877   0.94567   0.12915   0.00000  Uiso   1.00
C177   C     0.71558   0.55335   0.14404   0.00000  Uiso   1.00
C178   C     0.77112   0.94637   0.20422   0.00000  Uiso   1.00
C179   C     0.74995   0.75003   0.07352   0.00000  Uiso   1.00
C180   C     0.75005   0.74997   0.25981   0.00000  Uiso   1.00
C181   C     0.74990   0.52733   0.16670   0.00000  Uiso   1.00
C182   C     0.74991   0.97265   0.16670   0.00000  Uiso   1.00
C183   C     0.74998   0.75005   0.02184   0.00000  Uiso   1.00
C184   C     0.75002   0.74996   0.31149   0.00000  Uiso   1.00
C185   C     0.54840   0.75317   0.21298   0.00000  Uiso   1.00
C186   C     0.95151   0.74640   0.12014   0.00000  Uiso   1.00
C187   C     0.95285   0.78175   0.20038   0.00000  Uiso   1.00
C188   C     0.54725   0.71836   0.13249   0.00000  Uiso   1.00
C189   C     0.59460   0.75906   0.21081   0.00000  Uiso   1.00
C190   C     0.90532   0.74051   0.12248   0.00000  Uiso   1.00
C191   C     0.90669   0.77659   0.20359   0.00000  Uiso   1.00
C192   C     0.59340   0.72370   0.12937   0.00000  Uiso   1.00
C193   C     0.61680   0.74731   0.16735   0.00000  Uiso   1.00
C194   C     0.88320   0.75267   0.16587   0.00000  Uiso   1.00
C195   C     0.52417   0.74355   0.16928   0.00000  Uiso   1.00
C196   C     0.97583   0.75626   0.16371   0.00000  Uiso   1.00
Cu197  Cu    0.75000   0.79821   0.16667   0.00000  Uiso   1.00
Cu198  Cu    0.75000   0.70178   0.16667   0.00000  Uiso   1.00
H199   H     0.80997   0.62528   0.20732   0.00000  Uiso   1.00
H200   H     0.71222   0.87507   0.10104   0.00000  Uiso   1.00
H201   H     0.68991   0.62323   0.12630   0.00000  Uiso   1.00
H202   H     0.78784   0.87634   0.23225   0.00000  Uiso   1.00
H203   H     0.81206   0.53715   0.20666   0.00000  Uiso   1.00
H204   H     0.71259   0.96335   0.09870   0.00000  Uiso   1.00
H205   H     0.68773   0.53490   0.12679   0.00000  Uiso   1.00
H206   H     0.78727   0.96457   0.23469   0.00000  Uiso   1.00
N207   N     0.75000   0.62934   0.16667   0.00000  Uiso   1.00
N208   N     0.75000   0.87065   0.16667   0.00000  Uiso   1.00
O209   O     0.68573   0.79071   0.16667   0.00000  Uiso   1.00
O210   O     0.81427   0.70928   0.16666   0.00000  Uiso   1.00
O211   O     0.81427   0.79071   0.16666   0.00000  Uiso   1.00
O212   O     0.68573   0.70928   0.16667   0.00000  Uiso   1.00
O213   O     0.75000   0.79071   0.09613   0.00000  Uiso   1.00
O214   O     0.75000   0.70929   0.23720   0.00000  Uiso   1.00
O215   O     0.75000   0.79071   0.23720   0.00000  Uiso   1.00
O216   O     0.75000   0.70929   0.09613   0.00000  Uiso   1.00
Cl217  Cl    0.52440   0.74157   0.27122   0.00000  Uiso   1.00
Cl218  Cl    0.97527   0.75800   0.06179   0.00000  Uiso   1.00
Cl219  Cl    0.97833   0.83122   0.23122   0.00000  Uiso   1.00
Cl220  Cl    0.52203   0.66880   0.10155   0.00000  Uiso   1.00
Cl221  Cl    0.62473   0.77668   0.26393   0.00000  Uiso   1.00
Cl222  Cl    0.87509   0.72248   0.06956   0.00000  Uiso   1.00
Cl223  Cl    0.87856   0.80136   0.25429   0.00000  Uiso   1.00
Cl224  Cl    0.62162   0.69952   0.07843   0.00000  Uiso   1.00
C225   C     0.16504   0.24947   0.49955   0.00000  Uiso   1.00
C226   C     0.33496   0.25052   0.50044   0.00000  Uiso   1.00
C227   C     0.28347   0.10526   0.52261   0.00000  Uiso   1.00
C228   C     0.22894   0.39496   0.46336   0.00000  Uiso   1.00
C229   C     0.21643   0.10409   0.47750   0.00000  Uiso   1.00
C230   C     0.27106   0.39566   0.53663   0.00000  Uiso   1.00
C231   C     0.28424   0.05458   0.52271   0.00000  Uiso   1.00
C232   C     0.22877   0.44567   0.46249   0.00000  Uiso   1.00
C233   C     0.21558   0.05335   0.47738   0.00000  Uiso   1.00
C234   C     0.27112   0.44637   0.53756   0.00000  Uiso   1.00
C235   C     0.24995   0.25003   0.40685   0.00000  Uiso   1.00
C236   C     0.25005   0.24997   0.59315   0.00000  Uiso   1.00
C237   C     0.24990   0.02733   0.50003   0.00000  Uiso   1.00
C238   C     0.24991   0.47265   0.50003   0.00000  Uiso   1.00
C239   C     0.24998   0.25005   0.35518   0.00000  Uiso   1.00
C240   C     0.25002   0.24996   0.64482   0.00000  Uiso   1.00
C241   C     0.04840   0.25317   0.54631   0.00000  Uiso   1.00
C242   C     0.45151   0.24640   0.45348   0.00000  Uiso   1.00
C243   C     0.45285   0.28175   0.53372   0.00000  Uiso   1.00
C244   C     0.04725   0.21836   0.46582   0.00000  Uiso   1.00
C245   C     0.09460   0.25906   0.54414   0.00000  Uiso   1.00
C246   C     0.40532   0.24051   0.45581   0.00000  Uiso   1.00
C247   C     0.40669   0.27659   0.53692   0.00000  Uiso   1.00
C248   C     0.09340   0.22370   0.46270   0.00000  Uiso   1.00
C249   C     0.11680   0.24731   0.50068   0.00000  Uiso   1.00
C250   C     0.38320   0.25267   0.49920   0.00000  Uiso   1.00
C251   C     0.02417   0.24355   0.50262   0.00000  Uiso   1.00
C252   C     0.47583   0.25626   0.49704   0.00000  Uiso   1.00
Cu253  Cu    0.25000   0.29821   0.50000   0.00000  Uiso   1.00
Cu254  Cu    0.25000   0.20178   0.50000   0.00000  Uiso   1.00
H255   H     0.30997   0.12528   0.54065   0.00000  Uiso   1.00
H256   H     0.21222   0.37507   0.43437   0.00000  Uiso   1.00
H257   H     0.18991   0.12323   0.45963   0.00000  Uiso   1.00
H258   H     0.28784   0.37634   0.56559   0.00000  Uiso   1.00
H259   H     0.31206   0.03715   0.53999   0.00000  Uiso   1.00
H260   H     0.21259   0.46335   0.43204   0.00000  Uiso   1.00
H261   H     0.18773   0.03490   0.46012   0.00000  Uiso   1.00
H262   H     0.28727   0.46457   0.56802   0.00000  Uiso   1.00
N263   N     0.25000   0.12934   0.50000   0.00000  Uiso   1.00
N264   N     0.25000   0.37065   0.50000   0.00000  Uiso   1.00
O265   O     0.18573   0.29071   0.50000   0.00000  Uiso   1.00
O266   O     0.31427   0.20928   0.50000   0.00000  Uiso   1.00
O267   O     0.31427   0.29071   0.50000   0.00000  Uiso   1.00
O268   O     0.18573   0.20928   0.50000   0.00000  Uiso   1.00
O269   O     0.25000   0.29071   0.42946   0.00000  Uiso   1.00
O270   O     0.25000   0.20929   0.57054   0.00000  Uiso   1.00
O271   O     0.25000   0.29071   0.57054   0.00000  Uiso   1.00
O272   O     0.25000   0.20929   0.42946   0.00000  Uiso   1.00
Cl273  Cl    0.02440   0.24157   0.60455   0.00000  Uiso   1.00
Cl274  Cl    0.47527   0.25800   0.39512   0.00000  Uiso   1.00
Cl275  Cl    0.47833   0.33122   0.56456   0.00000  Uiso   1.00
Cl276  Cl    0.02203   0.16880   0.43488   0.00000  Uiso   1.00
Cl277  Cl    0.12473   0.27668   0.59726   0.00000  Uiso   1.00
Cl278  Cl    0.37509   0.22248   0.40289   0.00000  Uiso   1.00
Cl279  Cl    0.37856   0.30136   0.58762   0.00000  Uiso   1.00
Cl280  Cl    0.12162   0.19952   0.41176   0.00000  Uiso   1.00
C281   C     0.66504   0.24947   0.49955   0.00000  Uiso   1.00
C282   C     0.83496   0.25052   0.50044   0.00000  Uiso   1.00
C283   C     0.78347   0.10526   0.52261   0.00000  Uiso   1.00
C284   C     0.72894   0.39496   0.46336   0.00000  Uiso   1.00
C285   C     0.71643   0.10409   0.47750   0.00000  Uiso   1.00
C286   C     0.77106   0.39566   0.53663   0.00000  Uiso   1.00
C287   C     0.78424   0.05458   0.52271   0.00000  Uiso   1.00
C288   C     0.72877   0.44567   0.46249   0.00000  Uiso   1.00
C289   C     0.71558   0.05335   0.47738   0.00000  Uiso   1.00
C290   C     0.77112   0.44637   0.53756   0.00000  Uiso   1.00
C291   C     0.74995   0.25003   0.40685   0.00000  Uiso   1.00
C292   C     0.75005   0.24997   0.59315   0.00000  Uiso   1.00
C293   C     0.74990   0.02733   0.50003   0.00000  Uiso   1.00
C294   C     0.74991   0.47265   0.50003   0.00000  Uiso   1.00
C295   C     0.74998   0.25005   0.35518   0.00000  Uiso   1.00
C296   C     0.75002   0.24996   0.64482   0.00000  Uiso   1.00
C297   C     0.54840   0.25317   0.54631   0.00000  Uiso   1.00
C298   C     0.95151   0.24640   0.45348   0.00000  Uiso   1.00
C299   C     0.95285   0.28175   0.53372   0.00000  Uiso   1.00
C300   C     0.54725   0.21836   0.46582   0.00000  Uiso   1.00
C301   C     0.59460   0.25906   0.54414   0.00000  Uiso   1.00
C302   C     0.90532   0.24051   0.45581   0.00000  Uiso   1.00
C303   C     0.90669   0.27659   0.53692   0.00000  Uiso   1.00
C304   C     0.59340   0.22370   0.46270   0.00000  Uiso   1.00
C305   C     0.61680   0.24731   0.50068   0.00000  Uiso   1.00
C306   C     0.88320   0.25267   0.49920   0.00000  Uiso   1.00
C307   C     0.52417   0.24355   0.50262   0.00000  Uiso   1.00
C308   C     0.97583   0.25626   0.49704   0.00000  Uiso   1.00
Cu309  Cu    0.75000   0.29821   0.50000   0.00000  Uiso   1.00
Cu310  Cu    0.75000   0.20178   0.50000   0.00000  Uiso   1.00
H311   H     0.80997   0.12528   0.54065   0.00000  Uiso   1.00
H312   H     0.71222   0.37507   0.43437   0.00000  Uiso   1.00
H313   H     0.68991   0.12323   0.45963   0.00000  Uiso   1.00
H314   H     0.78784   0.37634   0.56559   0.00000  Uiso   1.00
H315   H     0.81206   0.03715   0.53999   0.00000  Uiso   1.00
H316   H     0.71259   0.46335   0.43204   0.00000  Uiso   1.00
H317   H     0.68773   0.03490   0.46012   0.00000  Uiso   1.00
H318   H     0.78727   0.46457   0.56802   0.00000  Uiso   1.00
N319   N     0.75000   0.12934   0.50000   0.00000  Uiso   1.00
N320   N     0.75000   0.37065   0.50000   0.00000  Uiso   1.00
O321   O     0.68573   0.29071   0.50000   0.00000  Uiso   1.00
O322   O     0.81427   0.20928   0.50000   0.00000  Uiso   1.00
O323   O     0.81427   0.29071   0.50000   0.00000  Uiso   1.00
O324   O     0.68573   0.20928   0.50000   0.00000  Uiso   1.00
O325   O     0.75000   0.29071   0.42946   0.00000  Uiso   1.00
O326   O     0.75000   0.20929   0.57054   0.00000  Uiso   1.00
O327   O     0.75000   0.29071   0.57054   0.00000  Uiso   1.00
O328   O     0.75000   0.20929   0.42946   0.00000  Uiso   1.00
Cl329  Cl    0.52440   0.24157   0.60455   0.00000  Uiso   1.00
Cl330  Cl    0.97527   0.25800   0.39512   0.00000  Uiso   1.00
Cl331  Cl    0.97833   0.33122   0.56456   0.00000  Uiso   1.00
Cl332  Cl    0.52203   0.16880   0.43488   0.00000  Uiso   1.00
Cl333  Cl    0.62473   0.27668   0.59726   0.00000  Uiso   1.00
Cl334  Cl    0.87509   0.22248   0.40289   0.00000  Uiso   1.00
Cl335  Cl    0.87856   0.30136   0.58762   0.00000  Uiso   1.00
Cl336  Cl    0.62162   0.19952   0.41176   0.00000  Uiso   1.00
C337   C     0.16504   0.74947   0.49955   0.00000  Uiso   1.00
C338   C     0.33496   0.75052   0.50044   0.00000  Uiso   1.00
C339   C     0.28347   0.60526   0.52261   0.00000  Uiso   1.00
C340   C     0.22894   0.89496   0.46336   0.00000  Uiso   1.00
C341   C     0.21643   0.60409   0.47750   0.00000  Uiso   1.00
C342   C     0.27106   0.89566   0.53663   0.00000  Uiso   1.00
C343   C     0.28424   0.55458   0.52271   0.00000  Uiso   1.00
C344   C     0.22877   0.94567   0.46249   0.00000  Uiso   1.00
C345   C     0.21558   0.55335   0.47738   0.00000  Uiso   1.00
C346   C     0.27112   0.94637   0.53756   0.00000  Uiso   1.00
C347   C     0.24995   0.75003   0.40685   0.00000  Uiso   1.00
C348   C     0.25005   0.74997   0.59315   0.00000  Uiso   1.00
C349   C     0.24990   0.52733   0.50003   0.00000  Uiso   1.00
C350   C     0.24991   0.97265   0.50003   0.00000  Uiso   1.00
C351   C     0.24998   0.75005   0.35518   0.00000  Uiso   1.00
C352   C     0.25002   0.74996   0.64482   0.00000  Uiso   1.00
C353   C     0.04840   0.75317   0.54631   0.00000  Uiso   1.00
C354   C     0.45151   0.74640   0.45348   0.00000  Uiso   1.00
C355   C     0.45285   0.78175   0.53372   0.00000  Uiso   1.00
C356   C     0.04725   0.71836   0.46582   0.00000  Uiso   1.00
C357   C     0.09460   0.75906   0.54414   0.00000  Uiso   1.00
C358   C     0.40532   0.74051   0.45581   0.00000  Uiso   1.00
C359   C     0.40669   0.77659   0.53692   0.00000  Uiso   1.00
C360   C     0.09340   0.72370   0.46270   0.00000  Uiso   1.00
C361   C     0.11680   0.74731   0.50068   0.00000  Uiso   1.00
C362   C     0.38320   0.75267   0.49920   0.00000  Uiso   1.00
C363   C     0.02417   0.74355   0.50262   0.00000  Uiso   1.00
C364   C     0.47583   0.75626   0.49704   0.00000  Uiso   1.00
Cu365  Cu    0.25000   0.79821   0.50000   0.00000  Uiso   1.00
Cu366  Cu    0.25000   0.70178   0.50000   0.00000  Uiso   1.00
H367   H     0.30997   0.62528   0.54065   0.00000  Uiso   1.00
H368   H     0.21222   0.87507   0.43437   0.00000  Uiso   1.00
H369   H     0.18991   0.62323   0.45963   0.00000  Uiso   1.00
H370   H     0.28784   0.87634   0.56559   0.00000  Uiso   1.00
H371   H     0.31206   0.53715   0.53999   0.00000  Uiso   1.00
H372   H     0.21259   0.96335   0.43204   0.00000  Uiso   1.00
H373   H     0.18773   0.53490   0.46012   0.00000  Uiso   1.00
H374   H     0.28727   0.96457   0.56802   0.00000  Uiso   1.00
N375   N     0.25000   0.62934   0.50000   0.00000  Uiso   1.00
N376   N     0.25000   0.87065   0.50000   0.00000  Uiso   1.00
O377   O     0.18573   0.79071   0.50000   0.00000  Uiso   1.00
O378   O     0.31427   0.70928   0.50000   0.00000  Uiso   1.00
O379   O     0.31427   0.79071   0.50000   0.00000  Uiso   1.00
O380   O     0.18573   0.70928   0.50000   0.00000  Uiso   1.00
O381   O     0.25000   0.79071   0.42946   0.00000  Uiso   1.00
O382   O     0.25000   0.70929   0.57054   0.00000  Uiso   1.00
O383   O     0.25000   0.79071   0.57054   0.00000  Uiso   1.00
O384   O     0.25000   0.70929   0.42946   0.00000  Uiso   1.00
Cl385  Cl    0.02440   0.74157   0.60455   0.00000  Uiso   1.00
Cl386  Cl    0.47527   0.75800   0.39512   0.00000  Uiso   1.00
Cl387  Cl    0.47833   0.83122   0.56456   0.00000  Uiso   1.00
Cl388  Cl    0.02203   0.66880   0.43488   0.00000  Uiso   1.00
Cl389  Cl    0.12473   0.77668   0.59726   0.00000  Uiso   1.00
Cl390  Cl    0.37509   0.72248   0.40289   0.00000  Uiso   1.00
Cl391  Cl    0.37856   0.80136   0.58762   0.00000  Uiso   1.00
Cl392  Cl    0.12162   0.69952   0.41176   0.00000  Uiso   1.00
C393   C     0.66504   0.74947   0.49955   0.00000  Uiso   1.00
C394   C     0.83496   0.75052   0.50044   0.00000  Uiso   1.00
C395   C     0.78347   0.60526   0.52261   0.00000  Uiso   1.00
C396   C     0.72894   0.89496   0.46336   0.00000  Uiso   1.00
C397   C     0.71643   0.60409   0.47750   0.00000  Uiso   1.00
C398   C     0.77106   0.89566   0.53663   0.00000  Uiso   1.00
C399   C     0.78424   0.55458   0.52271   0.00000  Uiso   1.00
C400   C     0.72877   0.94567   0.46249   0.00000  Uiso   1.00
C401   C     0.71558   0.55335   0.47738   0.00000  Uiso   1.00
C402   C     0.77112   0.94637   0.53756   0.00000  Uiso   1.00
C403   C     0.74995   0.75003   0.40685   0.00000  Uiso   1.00
C404   C     0.75005   0.74997   0.59315   0.00000  Uiso   1.00
C405   C     0.74990   0.52733   0.50003   0.00000  Uiso   1.00
C406   C     0.74991   0.97265   0.50003   0.00000  Uiso   1.00
C407   C     0.74998   0.75005   0.35518   0.00000  Uiso   1.00
C408   C     0.75002   0.74996   0.64482   0.00000  Uiso   1.00
C409   C     0.54840   0.75317   0.54631   0.00000  Uiso   1.00
C410   C     0.95151   0.74640   0.45348   0.00000  Uiso   1.00
C411   C     0.95285   0.78175   0.53372   0.00000  Uiso   1.00
C412   C     0.54725   0.71836   0.46582   0.00000  Uiso   1.00
C413   C     0.59460   0.75906   0.54414   0.00000  Uiso   1.00
C414   C     0.90532   0.74051   0.45581   0.00000  Uiso   1.00
C415   C     0.90669   0.77659   0.53692   0.00000  Uiso   1.00
C416   C     0.59340   0.72370   0.46270   0.00000  Uiso   1.00
C417   C     0.61680   0.74731   0.50068   0.00000  Uiso   1.00
C418   C     0.88320   0.75267   0.49920   0.00000  Uiso   1.00
C419   C     0.52417   0.74355   0.50262   0.00000  Uiso   1.00
C420   C     0.97583   0.75626   0.49704   0.00000  Uiso   1.00
Cu421  Cu    0.75000   0.79821   0.50000   0.00000  Uiso   1.00
Cu422  Cu    0.75000   0.70178   0.50000   0.00000  Uiso   1.00
H423   H     0.80997   0.62528   0.54065   0.00000  Uiso   1.00
H424   H     0.71222   0.87507   0.43437   0.00000  Uiso   1.00
H425   H     0.68991   0.62323   0.45963   0.00000  Uiso   1.00
H426   H     0.78784   0.87634   0.56559   0.00000  Uiso   1.00
H427   H     0.81206   0.53715   0.53999   0.00000  Uiso   1.00
H428   H     0.71259   0.96335   0.43204   0.00000  Uiso   1.00
H429   H     0.68773   0.53490   0.46012   0.00000  Uiso   1.00
H430   H     0.78727   0.96457   0.56802   0.00000  Uiso   1.00
N431   N     0.75000   0.62934   0.50000   0.00000  Uiso   1.00
N432   N     0.75000   0.87065   0.50000   0.00000  Uiso   1.00
O433   O     0.68573   0.79071   0.50000   0.00000  Uiso   1.00
O434   O     0.81427   0.70928   0.50000   0.00000  Uiso   1.00
O435   O     0.81427   0.79071   0.50000   0.00000  Uiso   1.00
O436   O     0.68573   0.70928   0.50000   0.00000  Uiso   1.00
O437   O     0.75000   0.79071   0.42946   0.00000  Uiso   1.00
O438   O     0.75000   0.70929   0.57054   0.00000  Uiso   1.00
O439   O     0.75000   0.79071   0.57054   0.00000  Uiso   1.00
O440   O     0.75000   0.70929   0.42946   0.00000  Uiso   1.00
Cl441  Cl    0.52440   0.74157   0.60455   0.00000  Uiso   1.00
Cl442  Cl    0.97527   0.75800   0.39512   0.00000  Uiso   1.00
Cl443  Cl    0.97833   0.83122   0.56456   0.00000  Uiso   1.00
Cl444  Cl    0.52203   0.66880   0.43488   0.00000  Uiso   1.00
Cl445  Cl    0.62473   0.77668   0.59726   0.00000  Uiso   1.00
Cl446  Cl    0.87509   0.72248   0.40289   0.00000  Uiso   1.00
Cl447  Cl    0.87856   0.80136   0.58762   0.00000  Uiso   1.00
Cl448  Cl    0.62162   0.69952   0.41176   0.00000  Uiso   1.00
C449   C     0.16504   0.24947   0.83289   0.00000  Uiso   1.00
C450   C     0.33496   0.25052   0.83378   0.00000  Uiso   1.00
C451   C     0.28347   0.10526   0.85594   0.00000  Uiso   1.00
C452   C     0.22894   0.39496   0.79669   0.00000  Uiso   1.00
C453   C     0.21643   0.10409   0.81083   0.00000  Uiso   1.00
C454   C     0.27106   0.39566   0.86997   0.00000  Uiso   1.00
C455   C     0.28424   0.05458   0.85604   0.00000  Uiso   1.00
C456   C     0.22877   0.44567   0.79582   0.00000  Uiso   1.00
C457   C     0.21558   0.05335   0.81071   0.00000  Uiso   1.00
C458   C     0.27112   0.44637   0.87089   0.00000  Uiso   1.00
C459   C     0.24995   0.25003   0.74019   0.00000  Uiso   1.00
C460   C     0.25005   0.24997   0.92648   0.00000  Uiso   1.00
C461   C     0.24990   0.02733   0.83336   0.00000  Uiso   1.00
C462   C     0.24991   0.47265   0.83337   0.00000  Uiso   1.00
C463   C     0.24998   0.25005   0.68851   0.00000  Uiso   1.00
C464   C     0.25002   0.24996   0.97816   0.00000  Uiso   1.00
C465   C     0.04840   0.25317   0.87964   0.00000  Uiso   1.00
C466   C     0.45151   0.24640   0.78681   0.00000  Uiso   1.00
C467   C     0.45285   0.28175   0.86705   0.00000  Uiso   1.00
C468   C     0.04725   0.21836   0.79915   0.00000  Uiso   1.00
C469   C     0.09460   0.25906   0.87747   0.00000  Uiso   1.00
C470   C     0.40532   0.24051   0.78915   0.00000  Uiso   1.00
C471   C     0.40669   0.27659   0.87026   0.00000  Uiso   1.00
C472   C     0.09340   0.22370   0.79603   0.00000  Uiso   1.00
C473   C     0.11680   0.24731   0.83401   0.00000  Uiso   1.00
C474   C     0.38320   0.25267   0.83253   0.00000  Uiso   1.00
C475   C     0.02417   0.24355   0.83595   0.00000  Uiso   1.00
C476   C     0.47583   0.25626   0.83038   0.00000  Uiso   1.00
Cu477  Cu    0.25000   0.29821   0.83333   0.00000  Uiso   1.00
Cu478  Cu    0.25000   0.20178   0.83333   0.00000  Uiso   1.00
H479   H     0.30997   0.12528   0.87398   0.00000  Uiso   1.00
H480   H     0.21222   0.37507   0.76770   0.00000  Uiso   1.00
H481   H     0.18991   0.12323   0.79297   0.00000  Uiso   1.00
H482   H     0.28784   0.37634   0.89892   0.00000  Uiso   1.00
H483   H     0.31206   0.03715   0.87332   0.00000  Uiso   1.00
H484   H     0.21259   0.46335   0.76537   0.00000  Uiso   1.00
H485   H     0.18773   0.03490   0.79346   0.00000  Uiso   1.00
H486   H     0.28727   0.46457   0.90136   0.00000  Uiso   1.00
N487   N     0.25000   0.12934   0.83333   0.00000  Uiso   1.00
N488   N     0.25000   0.37065   0.83333   0.00000  Uiso   1.00
O489   O     0.18573   0.29071   0.83334   0.00000  Uiso   1.00
O490   O     0.31427   0.20928   0.83333   0.00000  Uiso   1.00
O491   O     0.31427   0.29071   0.83333   0.00000  Uiso   1.00
O492   O     0.18573   0.20928   0.83334   0.00000  Uiso   1.00
O493   O     0.25000   0.29071   0.76280   0.00000  Uiso   1.00
O494   O     0.25000   0.20929   0.90387   0.00000  Uiso   1.00
O495   O     0.25000   0.29071   0.90387   0.00000  Uiso   1.00
O496   O     0.25000   0.20929   0.76280   0.00000  Uiso   1.00
Cl497  Cl    0.02440   0.24157   0.93788   0.00000  Uiso   1.00
Cl498  Cl    0.47527   0.25800   0.72846   0.00000  Uiso   1.00
Cl499  Cl    0.47833   0.33122   0.89789   0.00000  Uiso   1.00
Cl500  Cl    0.02203   0.16880   0.76822   0.00000  Uiso   1.00
Cl501  Cl    0.12473   0.27668   0.93060   0.00000  Uiso   1.00
Cl502  Cl    0.37509   0.22248   0.73623   0.00000  Uiso   1.00
Cl503  Cl    0.37856   0.30136   0.92096   0.00000  Uiso   1.00
Cl504  Cl    0.12162   0.19952   0.74510   0.00000  Uiso   1.00
C505   C     0.66504   0.24947   0.83289   0.00000  Uiso   1.00
C506   C     0.83496   0.25052   0.83378   0.00000  Uiso   1.00
C507   C     0.78347   0.10526   0.85594   0.00000  Uiso   1.00
C508   C     0.72894   0.39496   0.79669   0.00000  Uiso   1.00
C509   C     0.71643   0.10409   0.81083   0.00000  Uiso   1.00
C510   C     0.77106   0.39566   0.86997   0.00000  Uiso   1.00
C511   C     0.78424   0.05458   0.85604   0.00000  Uiso   1.00
C512   C     0.72877   0.44567   0.79582   0.00000  Uiso   1.00
C513   C     0.71558   0.05335   0.81071   0.00000  Uiso   1.00
C514   C     0.77112   0.44637   0.87089   0.00000  Uiso   1.00
C515   C     0.74995   0.25003   0.74019   0.00000  Uiso   1.00
C516   C     0.75005   0.24997   0.92648   0.00000  Uiso   1.00
C517   C     0.74990   0.02733   0.83336   0.00000  Uiso   1.00
C518   C     0.74991   0.47265   0.83337   0.00000  Uiso   1.00
C519   C     0.74998   0.25005   0.68851   0.00000  Uiso   1.00
C520   C     0.75002   0.24996   0.97816   0.00000  Uiso   1.00
C521   C     0.54840   0.25317   0.87964   0.00000  Uiso   1.00
C522   C     0.95151   0.24640   0.78681   0.00000  Uiso   1.00
C523   C     0.95285   0.28175   0.86705   0.00000  Uiso   1.00
C524   C     0.54725   0.21836   0.79915   0.00000  Uiso   1.00
C525   C     0.59460   0.25906   0.87747   0.00000  Uiso   1.00
C526   C     0.90532   0.24051   0.78915   0.00000  Uiso   1.00
C527   C     0.90669   0.27659   0.87026   0.00000  Uiso   1.00
C528   C     0.59340   0.22370   0.79603   0.00000  Uiso   1.00
C529   C     0.61680   0.24731   0.83401   0.00000  Uiso   1.00
C530   C     0.88320   0.25267   0.83253   0.00000  Uiso   1.00
C531   C     0.52417   0.24355   0.83595   0.00000  Uiso   1.00
C532   C     0.97583   0.25626   0.83038   0.00000  Uiso   1.00
Cu533  Cu    0.75000   0.29821   0.83333   0.00000  Uiso   1.00
Cu534  Cu    0.75000   0.20178   0.83333   0.00000  Uiso   1.00
H535   H     0.80997   0.12528   0.87398   0.00000  Uiso   1.00
H536   H     0.71222   0.37507   0.76770   0.00000  Uiso   1.00
H537   H     0.68991   0.12323   0.79297   0.00000  Uiso   1.00
H538   H     0.78784   0.37634   0.89892   0.00000  Uiso   1.00
H539   H     0.81206   0.03715   0.87332   0.00000  Uiso   1.00
H540   H     0.71259   0.46335   0.76537   0.00000  Uiso   1.00
H541   H     0.68773   0.03490   0.79346   0.00000  Uiso   1.00
H542   H     0.78727   0.46457   0.90136   0.00000  Uiso   1.00
N543   N     0.75000   0.12934   0.83333   0.00000  Uiso   1.00
N544   N     0.75000   0.37065   0.83333   0.00000  Uiso   1.00
O545   O     0.68573   0.29071   0.83334   0.00000  Uiso   1.00
O546   O     0.81427   0.20928   0.83333   0.00000  Uiso   1.00
O547   O     0.81427   0.29071   0.83333   0.00000  Uiso   1.00
O548   O     0.68573   0.20928   0.83334   0.00000  Uiso   1.00
O549   O     0.75000   0.29071   0.76280   0.00000  Uiso   1.00
O550   O     0.75000   0.20929   0.90387   0.00000  Uiso   1.00
O551   O     0.75000   0.29071   0.90387   0.00000  Uiso   1.00
O552   O     0.75000   0.20929   0.76280   0.00000  Uiso   1.00
Cl553  Cl    0.52440   0.24157   0.93788   0.00000  Uiso   1.00
Cl554  Cl    0.97527   0.25800   0.72846   0.00000  Uiso   1.00
Cl555  Cl    0.97833   0.33122   0.89789   0.00000  Uiso   1.00
Cl556  Cl    0.52203   0.16880   0.76822   0.00000  Uiso   1.00
Cl557  Cl    0.62473   0.27668   0.93060   0.00000  Uiso   1.00
Cl558  Cl    0.87509   0.22248   0.73623   0.00000  Uiso   1.00
Cl559  Cl    0.87856   0.30136   0.92096   0.00000  Uiso   1.00
Cl560  Cl    0.62162   0.19952   0.74510   0.00000  Uiso   1.00
C561   C     0.16504   0.74947   0.83289   0.00000  Uiso   1.00
C562   C     0.33496   0.75052   0.83378   0.00000  Uiso   1.00
C563   C     0.28347   0.60526   0.85594   0.00000  Uiso   1.00
C564   C     0.22894   0.89496   0.79669   0.00000  Uiso   1.00
C565   C     0.21643   0.60409   0.81083   0.00000  Uiso   1.00
C566   C     0.27106   0.89566   0.86997   0.00000  Uiso   1.00
C567   C     0.28424   0.55458   0.85604   0.00000  Uiso   1.00
C568   C     0.22877   0.94567   0.79582   0.00000  Uiso   1.00
C569   C     0.21558   0.55335   0.81071   0.00000  Uiso   1.00
C570   C     0.27112   0.94637   0.87089   0.00000  Uiso   1.00
C571   C     0.24995   0.75003   0.74019   0.00000  Uiso   1.00
C572   C     0.25005   0.74997   0.92648   0.00000  Uiso   1.00
C573   C     0.24990   0.52733   0.83336   0.00000  Uiso   1.00
C574   C     0.24991   0.97265   0.83337   0.00000  Uiso   1.00
C575   C     0.24998   0.75005   0.68851   0.00000  Uiso   1.00
C576   C     0.25002   0.74996   0.97816   0.00000  Uiso   1.00
C577   C     0.04840   0.75317   0.87964   0.00000  Uiso   1.00
C578   C     0.45151   0.74640   0.78681   0.00000  Uiso   1.00
C579   C     0.45285   0.78175   0.86705   0.00000  Uiso   1.00
C580   C     0.04725   0.71836   0.79915   0.00000  Uiso   1.00
C581   C     0.09460   0.75906   0.87747   0.00000  Uiso   1.00
C582   C     0.40532   0.74051   0.78915   0.00000  Uiso   1.00
C583   C     0.40669   0.77659   0.87026   0.00000  Uiso   1.00
C584   C     0.09340   0.72370   0.79603   0.00000  Uiso   1.00
C585   C     0.11680   0.74731   0.83401   0.00000  Uiso   1.00
C586   C     0.38320   0.75267   0.83253   0.00000  Uiso   1.00
C587   C     0.02417   0.74355   0.83595   0.00000  Uiso   1.00
C588   C     0.47583   0.75626   0.83038   0.00000  Uiso   1.00
Cu589  Cu    0.25000   0.79821   0.83333   0.00000  Uiso   1.00
Cu590  Cu    0.25000   0.70178   0.83333   0.00000  Uiso   1.00
H591   H     0.30997   0.62528   0.87398   0.00000  Uiso   1.00
H592   H     0.21222   0.87507   0.76770   0.00000  Uiso   1.00
H593   H     0.18991   0.62323   0.79297   0.00000  Uiso   1.00
H594   H     0.28784   0.87634   0.89892   0.00000  Uiso   1.00
H595   H     0.31206   0.53715   0.87332   0.00000  Uiso   1.00
H596   H     0.21259   0.96335   0.76537   0.00000  Uiso   1.00
H597   H     0.18773   0.53490   0.79346   0.00000  Uiso   1.00
H598   H     0.28727   0.96457   0.90136   0.00000  Uiso   1.00
N599   N     0.25000   0.62934   0.83333   0.00000  Uiso   1.00
N600   N     0.25000   0.87065   0.83333   0.00000  Uiso   1.00
O601   O     0.18573   0.79071   0.83334   0.00000  Uiso   1.00
O602   O     0.31427   0.70928   0.83333   0.00000  Uiso   1.00
O603   O     0.31427   0.79071   0.83333   0.00000  Uiso   1.00
O604   O     0.18573   0.70928   0.83334   0.00000  Uiso   1.00
O605   O     0.25000   0.79071   0.76280   0.00000  Uiso   1.00
O606   O     0.25000   0.70929   0.90387   0.00000  Uiso   1.00
O607   O     0.25000   0.79071   0.90387   0.00000  Uiso   1.00
O608   O     0.25000   0.70929   0.76280   0.00000  Uiso   1.00
Cl609  Cl    0.02440   0.74157   0.93788   0.00000  Uiso   1.00
Cl610  Cl    0.47527   0.75800   0.72846   0.00000  Uiso   1.00
Cl611  Cl    0.47833   0.83122   0.89789   0.00000  Uiso   1.00
Cl612  Cl    0.02203   0.66880   0.76822   0.00000  Uiso   1.00
Cl613  Cl    0.12473   0.77668   0.93060   0.00000  Uiso   1.00
Cl614  Cl    0.37509   0.72248   0.73623   0.00000  Uiso   1.00
Cl615  Cl    0.37856   0.80136   0.92096   0.00000  Uiso   1.00
Cl616  Cl    0.12162   0.69952   0.74510   0.00000  Uiso   1.00
C617   C     0.66504   0.74947   0.83289   0.00000  Uiso   1.00
C618   C     0.83496   0.75052   0.83378   0.00000  Uiso   1.00
C619   C     0.78347   0.60526   0.85594   0.00000  Uiso   1.00
C620   C     0.72894   0.89496   0.79669   0.00000  Uiso   1.00
C621   C     0.71643   0.60409   0.81083   0.00000  Uiso   1.00
C622   C     0.77106   0.89566   0.86997   0.00000  Uiso   1.00
C623   C     0.78424   0.55458   0.85604   0.00000  Uiso   1.00
C624   C     0.72877   0.94567   0.79582   0.00000  Uiso   1.00
C625   C     0.71558   0.55335   0.81071   0.00000  Uiso   1.00
C626   C     0.77112   0.94637   0.87089   0.00000  Uiso   1.00
C627   C     0.74995   0.75003   0.74019   0.00000  Uiso   1.00
C628   C     0.75005   0.74997   0.92648   0.00000  Uiso   1.00
C629   C     0.74990   0.52733   0.83336   0.00000  Uiso   1.00
C630   C     0.74991   0.97265   0.83337   0.00000  Uiso   1.00
C631   C     0.74998   0.75005   0.68851   0.00000  Uiso   1.00
C632   C     0.75002   0.74996   0.97816   0.00000  Uiso   1.00
C633   C     0.54840   0.75317   0.87964   0.00000  Uiso   1.00
C634   C     0.95151   0.74640   0.78681   0.00000  Uiso   1.00
C635   C     0.95285   0.78175   0.86705   0.00000  Uiso   1.00
C636   C     0.54725   0.71836   0.79915   0.00000  Uiso   1.00
C637   C     0.59460   0.75906   0.87747   0.00000  Uiso   1.00
C638   C     0.90532   0.74051   0.78915   0.00000  Uiso   1.00
C639   C     0.90669   0.77659   0.87026   0.00000  Uiso   1.00
C640   C     0.59340   0.72370   0.79603   0.00000  Uiso   1.00
C641   C     0.61680   0.74731   0.83401   0.00000  Uiso   1.00
C642   C     0.88320   0.75267   0.83253   0.00000  Uiso   1.00
C643   C     0.52417   0.74355   0.83595   0.00000  Uiso   1.00
C644   C     0.97583   0.75626   0.83038   0.00000  Uiso   1.00
Cu645  Cu    0.75000   0.79821   0.83333   0.00000  Uiso   1.00
Cu646  Cu    0.75000   0.70178   0.83333   0.00000  Uiso   1.00
H647   H     0.80997   0.62528   0.87398   0.00000  Uiso   1.00
H648   H     0.71222   0.87507   0.76770   0.00000  Uiso   1.00
H649   H     0.68991   0.62323   0.79297   0.00000  Uiso   1.00
H650   H     0.78784   0.87634   0.89892   0.00000  Uiso   1.00
H651   H     0.81206   0.53715   0.87332   0.00000  Uiso   1.00
H652   H     0.71259   0.96335   0.76537   0.00000  Uiso   1.00
H653   H     0.68773   0.53490   0.79346   0.00000  Uiso   1.00
H654   H     0.78727   0.96457   0.90136   0.00000  Uiso   1.00
N655   N     0.75000   0.62934   0.83333   0.00000  Uiso   1.00
N656   N     0.75000   0.87065   0.83333   0.00000  Uiso   1.00
O657   O     0.68573   0.79071   0.83334   0.00000  Uiso   1.00
O658   O     0.81427   0.70928   0.83333   0.00000  Uiso   1.00
O659   O     0.81427   0.79071   0.83333   0.00000  Uiso   1.00
O660   O     0.68573   0.70928   0.83334   0.00000  Uiso   1.00
O661   O     0.75000   0.79071   0.76280   0.00000  Uiso   1.00
O662   O     0.75000   0.70929   0.90387   0.00000  Uiso   1.00
O663   O     0.75000   0.79071   0.90387   0.00000  Uiso   1.00
O664   O     0.75000   0.70929   0.76280   0.00000  Uiso   1.00
Cl665  Cl    0.52440   0.74157   0.93788   0.00000  Uiso   1.00
Cl666  Cl    0.97527   0.75800   0.72846   0.00000  Uiso   1.00
Cl667  Cl    0.97833   0.83122   0.89789   0.00000  Uiso   1.00
Cl668  Cl    0.52203   0.66880   0.76822   0.00000  Uiso   1.00
Cl669  Cl    0.62473   0.77668   0.93060   0.00000  Uiso   1.00
Cl670  Cl    0.87509   0.72248   0.73623   0.00000  Uiso   1.00
Cl671  Cl    0.87856   0.80136   0.92096   0.00000  Uiso   1.00
Cl672  Cl    0.62162   0.69952   0.74510   0.00000  Uiso   1.00
loop_
_geom_bond_atom_site_label_1
_geom_bond_atom_site_label_2
_geom_bond_distance
_geom_bond_site_symmetry_2
_ccdc_geom_bond_type
C1     C25     1.455   .     S
C1     O44     1.288   .     A
C1     O41     1.293   .     A
C2     O43     1.288   .     A
C2     C26     1.455   .     S
C2     O42     1.293   .     A
C3     N39     1.364   .     A
C3     H31     1.081   .     S
C3     C7      1.407   .     A
C4     C8      1.408   .     A
C4     N40     1.364   .     A
C4     H32     1.081   .     S
C5     C9      1.408   .     A
C5     N39     1.364   .     A
C5     H33     1.081   .     S
C6     C10     1.408   .     A
C6     N40     1.364   .     A
C6     H34     1.081   .     S
C7     C13     1.411   .     A
C7     H35     1.081   .     S
C8     H36     1.081   .     S
C8     C14     1.411   .     A
C9     H37     1.081   .     S
C9     C13     1.412   .     A
C10    H38     1.081   .     S
C10    C14     1.412   .     A
C11    C15     1.407   .     S
C11    O48     1.286   .     A
C11    O45     1.287   .     A
C12    O47     1.286   .     A
C12    C16     1.407   .     S
C12    O46     1.287   .     A
C13    C126    1.518   1_545 S
C14    C125    1.518   .     S
C15    C464    1.189   1_554 S
C16    C239    1.189   .     S
C17    Cl49    1.772   .     S
C17    C27     1.416   .     A
C17    C21     1.400   .     A
C18    C28     1.416   .     A
C18    Cl50    1.772   .     S
C18    C22     1.400   .     A
C19    C23     1.399   .     A
C19    C28     1.416   .     A
C19    Cl51    1.772   .     S
C20    C27     1.416   .     A
C20    Cl52    1.772   .     S
C20    C24     1.399   .     A
C21    C25     1.404   .     A
C21    Cl53    1.769   .     S
C22    Cl54    1.770   .     S
C22    C26     1.404   .     A
C23    Cl55    1.770   .     S
C23    C26     1.406   .     A
C24    Cl56    1.770   .     S
C24    C25     1.405   .     A
C27    C84     1.512   1_455 S
C28    C83     1.512   .     S
Cu29   Cu30    2.676   .     S
Cu29   O43     1.952   .     S
Cu29   O47     1.931   .     S
Cu29   N40     2.011   .     S
Cu29   O41     1.944   .     S
Cu29   O45     1.932   .     S
Cu30   O44     1.952   .     S
Cu30   N39     2.011   .     S
Cu30   O48     1.931   .     S
Cu30   O42     1.944   .     S
Cu30   O46     1.932   .     S
C57    C81     1.455   .     S
C57    O100    1.288   .     A
C57    O97     1.293   .     A
C58    O99     1.288   .     A
C58    C82     1.455   .     S
C58    O98     1.293   .     A
C59    N95     1.364   .     A
C59    H87     1.081   .     S
C59    C63     1.407   .     A
C60    C64     1.408   .     A
C60    N96     1.364   .     A
C60    H88     1.081   .     S
C61    C65     1.408   .     A
C61    N95     1.364   .     A
C61    H89     1.081   .     S
C62    C66     1.408   .     A
C62    N96     1.364   .     A
C62    H90     1.081   .     S
C63    C69     1.411   .     A
C63    H91     1.081   .     S
C64    H92     1.081   .     S
C64    C70     1.411   .     A
C65    H93     1.081   .     S
C65    C69     1.412   .     A
C66    H94     1.081   .     S
C66    C70     1.412   .     A
C67    C71     1.407   .     S
C67    O104    1.286   .     A
C67    O101    1.287   .     A
C68    O103    1.286   .     A
C68    C72     1.407   .     S
C68    O102    1.287   .     A
C69    C182    1.518   1_545 S
C70    C181    1.518   .     S
C71    C520    1.189   1_554 S
C72    C295    1.189   .     S
C73    Cl105   1.772   .     S
C73    C83     1.416   .     A
C73    C77     1.400   .     A
C74    C84     1.416   .     A
C74    Cl106   1.772   .     S
C74    C78     1.400   .     A
C75    C79     1.399   .     A
C75    C84     1.416   .     A
C75    Cl107   1.772   .     S
C76    C83     1.416   .     A
C76    Cl108   1.772   .     S
C76    C80     1.399   .     A
C77    C81     1.404   .     A
C77    Cl109   1.769   .     S
C78    Cl110   1.770   .     S
C78    C82     1.404   .     A
C79    Cl111   1.770   .     S
C79    C82     1.406   .     A
C80    Cl112   1.770   .     S
C80    C81     1.405   .     A
C84    C27     1.512   1_655 S
Cu85   Cu86    2.676   .     S
Cu85   O99     1.952   .     S
Cu85   O103    1.931   .     S
Cu85   N96     2.011   .     S
Cu85   O97     1.944   .     S
Cu85   O101    1.932   .     S
Cu86   O100    1.952   .     S
Cu86   N95     2.011   .     S
Cu86   O104    1.931   .     S
Cu86   O98     1.944   .     S
Cu86   O102    1.932   .     S
C113   C137    1.455   .     S
C113   O156    1.288   .     A
C113   O153    1.293   .     A
C114   O155    1.288   .     A
C114   C138    1.455   .     S
C114   O154    1.293   .     A
C115   N151    1.364   .     A
C115   H143    1.081   .     S
C115   C119    1.407   .     A
C116   C120    1.408   .     A
C116   N152    1.364   .     A
C116   H144    1.081   .     S
C117   C121    1.408   .     A
C117   N151    1.364   .     A
C117   H145    1.081   .     S
C118   C122    1.408   .     A
C118   N152    1.364   .     A
C118   H146    1.081   .     S
C119   C125    1.411   .     A
C119   H147    1.081   .     S
C120   H148    1.081   .     S
C120   C126    1.411   .     A
C121   H149    1.081   .     S
C121   C125    1.412   .     A
C122   H150    1.081   .     S
C122   C126    1.412   .     A
C123   C127    1.407   .     S
C123   O160    1.286   .     A
C123   O157    1.287   .     A
C124   O159    1.286   .     A
C124   C128    1.407   .     S
C124   O158    1.287   .     A
C126   C13     1.518   1_565 S
C127   C576    1.189   1_554 S
C128   C351    1.189   .     S
C129   Cl161   1.772   .     S
C129   C139    1.416   .     A
C129   C133    1.400   .     A
C130   C140    1.416   .     A
C130   Cl162   1.772   .     S
C130   C134    1.400   .     A
C131   C135    1.399   .     A
C131   C140    1.416   .     A
C131   Cl163   1.772   .     S
C132   C139    1.416   .     A
C132   Cl164   1.772   .     S
C132   C136    1.399   .     A
C133   C137    1.404   .     A
C133   Cl165   1.769   .     S
C134   Cl166   1.770   .     S
C134   C138    1.404   .     A
C135   Cl167   1.770   .     S
C135   C138    1.406   .     A
C136   Cl168   1.770   .     S
C136   C137    1.405   .     A
C139   C196    1.512   1_455 S
C140   C195    1.512   .     S
Cu141  Cu142   2.676   .     S
Cu141  O155    1.952   .     S
Cu141  O159    1.931   .     S
Cu141  N152    2.011   .     S
Cu141  O153    1.944   .     S
Cu141  O157    1.932   .     S
Cu142  O156    1.952   .     S
Cu142  N151    2.011   .     S
Cu142  O160    1.931   .     S
Cu142  O154    1.944   .     S
Cu142  O158    1.932   .     S
C169   C193    1.455   .     S
C169   O212    1.288   .     A
C169   O209    1.293   .     A
C170   O211    1.288   .     A
C170   C194    1.455   .     S
C170   O210    1.293   .     A
C171   N207    1.364   .     A
C171   H199    1.081   .     S
C171   C175    1.407   .     A
C172   C176    1.408   .     A
C172   N208    1.364   .     A
C172   H200    1.081   .     S
C173   C177    1.408   .     A
C173   N207    1.364   .     A
C173   H201    1.081   .     S
C174   C178    1.408   .     A
C174   N208    1.364   .     A
C174   H202    1.081   .     S
C175   C181    1.411   .     A
C175   H203    1.081   .     S
C176   H204    1.081   .     S
C176   C182    1.411   .     A
C177   H205    1.081   .     S
C177   C181    1.412   .     A
C178   H206    1.081   .     S
C178   C182    1.412   .     A
C179   C183    1.407   .     S
C179   O216    1.286   .     A
C179   O213    1.287   .     A
C180   O215    1.286   .     A
C180   C184    1.407   .     S
C180   O214    1.287   .     A
C182   C69     1.518   1_565 S
C183   C632    1.189   1_554 S
C184   C407    1.189   .     S
C185   Cl217   1.772   .     S
C185   C195    1.416   .     A
C185   C189    1.400   .     A
C186   C196    1.416   .     A
C186   Cl218   1.772   .     S
C186   C190    1.400   .     A
C187   C191    1.399   .     A
C187   C196    1.416   .     A
C187   Cl219   1.772   .     S
C188   C195    1.416   .     A
C188   Cl220   1.772   .     S
C188   C192    1.399   .     A
C189   C193    1.404   .     A
C189   Cl221   1.769   .     S
C190   Cl222   1.770   .     S
C190   C194    1.404   .     A
C191   Cl223   1.770   .     S
C191   C194    1.406   .     A
C192   Cl224   1.770   .     S
C192   C193    1.405   .     A
C196   C139    1.512   1_655 S
Cu197  Cu198   2.676   .     S
Cu197  O211    1.952   .     S
Cu197  O215    1.931   .     S
Cu197  N208    2.011   .     S
Cu197  O209    1.944   .     S
Cu197  O213    1.932   .     S
Cu198  O212    1.952   .     S
Cu198  N207    2.011   .     S
Cu198  O216    1.931   .     S
Cu198  O210    1.944   .     S
Cu198  O214    1.932   .     S
C225   C249    1.455   .     S
C225   O268    1.288   .     A
C225   O265    1.293   .     A
C226   O267    1.288   .     A
C226   C250    1.455   .     S
C226   O266    1.293   .     A
C227   N263    1.364   .     A
C227   H255    1.081   .     S
C227   C231    1.407   .     A
C228   C232    1.408   .     A
C228   N264    1.364   .     A
C228   H256    1.081   .     S
C229   C233    1.408   .     A
C229   N263    1.364   .     A
C229   H257    1.081   .     S
C230   C234    1.408   .     A
C230   N264    1.364   .     A
C230   H258    1.081   .     S
C231   C237    1.411   .     A
C231   H259    1.081   .     S
C232   H260    1.081   .     S
C232   C238    1.411   .     A
C233   H261    1.081   .     S
C233   C237    1.412   .     A
C234   H262    1.081   .     S
C234   C238    1.412   .     A
C235   C239    1.407   .     S
C235   O272    1.286   .     A
C235   O269    1.287   .     A
C236   O271    1.286   .     A
C236   C240    1.407   .     S
C236   O270    1.287   .     A
C237   C350    1.518   1_545 S
C238   C349    1.518   .     S
C240   C463    1.189   .     S
C241   Cl273   1.772   .     S
C241   C251    1.416   .     A
C241   C245    1.400   .     A
C242   C252    1.416   .     A
C242   Cl274   1.772   .     S
C242   C246    1.400   .     A
C243   C247    1.399   .     A
C243   C252    1.416   .     A
C243   Cl275   1.772   .     S
C244   C251    1.416   .     A
C244   Cl276   1.772   .     S
C244   C248    1.399   .     A
C245   C249    1.404   .     A
C245   Cl277   1.769   .     S
C246   Cl278   1.770   .     S
C246   C250    1.404   .     A
C247   Cl279   1.770   .     S
C247   C250    1.406   .     A
C248   Cl280   1.770   .     S
C248   C249    1.405   .     A
C251   C308    1.512   1_455 S
C252   C307    1.512   .     S
Cu253  Cu254   2.676   .     S
Cu253  O267    1.952   .     S
Cu253  O271    1.931   .     S
Cu253  N264    2.011   .     S
Cu253  O265    1.944   .     S
Cu253  O269    1.932   .     S
Cu254  O268    1.952   .     S
Cu254  N263    2.011   .     S
Cu254  O272    1.931   .     S
Cu254  O266    1.944   .     S
Cu254  O270    1.932   .     S
C281   C305    1.455   .     S
C281   O324    1.288   .     A
C281   O321    1.293   .     A
C282   O323    1.288   .     A
C282   C306    1.455   .     S
C282   O322    1.293   .     A
C283   N319    1.364   .     A
C283   H311    1.081   .     S
C283   C287    1.407   .     A
C284   C288    1.408   .     A
C284   N320    1.364   .     A
C284   H312    1.081   .     S
C285   C289    1.408   .     A
C285   N319    1.364   .     A
C285   H313    1.081   .     S
C286   C290    1.408   .     A
C286   N320    1.364   .     A
C286   H314    1.081   .     S
C287   C293    1.411   .     A
C287   H315    1.081   .     S
C288   H316    1.081   .     S
C288   C294    1.411   .     A
C289   H317    1.081   .     S
C289   C293    1.412   .     A
C290   H318    1.081   .     S
C290   C294    1.412   .     A
C291   C295    1.407   .     S
C291   O328    1.286   .     A
C291   O325    1.287   .     A
C292   O327    1.286   .     A
C292   C296    1.407   .     S
C292   O326    1.287   .     A
C293   C406    1.518   1_545 S
C294   C405    1.518   .     S
C296   C519    1.189   .     S
C297   Cl329   1.772   .     S
C297   C307    1.416   .     A
C297   C301    1.400   .     A
C298   C308    1.416   .     A
C298   Cl330   1.772   .     S
C298   C302    1.400   .     A
C299   C303    1.399   .     A
C299   C308    1.416   .     A
C299   Cl331   1.772   .     S
C300   C307    1.416   .     A
C300   Cl332   1.772   .     S
C300   C304    1.399   .     A
C301   C305    1.404   .     A
C301   Cl333   1.769   .     S
C302   Cl334   1.770   .     S
C302   C306    1.404   .     A
C303   Cl335   1.770   .     S
C303   C306    1.406   .     A
C304   Cl336   1.770   .     S
C304   C305    1.405   .     A
C308   C251    1.512   1_655 S
Cu309  Cu310   2.676   .     S
Cu309  O323    1.952   .     S
Cu309  O327    1.931   .     S
Cu309  N320    2.011   .     S
Cu309  O321    1.944   .     S
Cu309  O325    1.932   .     S
Cu310  O324    1.952   .     S
Cu310  N319    2.011   .     S
Cu310  O328    1.931   .     S
Cu310  O322    1.944   .     S
Cu310  O326    1.932   .     S
C337   C361    1.455   .     S
C337   O380    1.288   .     A
C337   O377    1.293   .     A
C338   O379    1.288   .     A
C338   C362    1.455   .     S
C338   O378    1.293   .     A
C339   N375    1.364   .     A
C339   H367    1.081   .     S
C339   C343    1.407   .     A
C340   C344    1.408   .     A
C340   N376    1.364   .     A
C340   H368    1.081   .     S
C341   C345    1.408   .     A
C341   N375    1.364   .     A
C341   H369    1.081   .     S
C342   C346    1.408   .     A
C342   N376    1.364   .     A
C342   H370    1.081   .     S
C343   C349    1.411   .     A
C343   H371    1.081   .     S
C344   H372    1.081   .     S
C344   C350    1.411   .     A
C345   H373    1.081   .     S
C345   C349    1.412   .     A
C346   H374    1.081   .     S
C346   C350    1.412   .     A
C347   C351    1.407   .     S
C347   O384    1.286   .     A
C347   O381    1.287   .     A
C348   O383    1.286   .     A
C348   C352    1.407   .     S
C348   O382    1.287   .     A
C350   C237    1.518   1_565 S
C352   C575    1.189   .     S
C353   Cl385   1.772   .     S
C353   C363    1.416   .     A
C353   C357    1.400   .     A
C354   C364    1.416   .     A
C354   Cl386   1.772   .     S
C354   C358    1.400   .     A
C355   C359    1.399   .     A
C355   C364    1.416   .     A
C355   Cl387   1.772   .     S
C356   C363    1.416   .     A
C356   Cl388   1.772   .     S
C356   C360    1.399   .     A
C357   C361    1.404   .     A
C357   Cl389   1.769   .     S
C358   Cl390   1.770   .     S
C358   C362    1.404   .     A
C359   Cl391   1.770   .     S
C359   C362    1.406   .     A
C360   Cl392   1.770   .     S
C360   C361    1.405   .     A
C363   C420    1.512   1_455 S
C364   C419    1.512   .     S
Cu365  Cu366   2.676   .     S
Cu365  O379    1.952   .     S
Cu365  O383    1.931   .     S
Cu365  N376    2.011   .     S
Cu365  O377    1.944   .     S
Cu365  O381    1.932   .     S
Cu366  O380    1.952   .     S
Cu366  N375    2.011   .     S
Cu366  O384    1.931   .     S
Cu366  O378    1.944   .     S
Cu366  O382    1.932   .     S
C393   C417    1.455   .     S
C393   O436    1.288   .     A
C393   O433    1.293   .     A
C394   O435    1.288   .     A
C394   C418    1.455   .     S
C394   O434    1.293   .     A
C395   N431    1.364   .     A
C395   H423    1.081   .     S
C395   C399    1.407   .     A
C396   C400    1.408   .     A
C396   N432    1.364   .     A
C396   H424    1.081   .     S
C397   C401    1.408   .     A
C397   N431    1.364   .     A
C397   H425    1.081   .     S
C398   C402    1.408   .     A
C398   N432    1.364   .     A
C398   H426    1.081   .     S
C399   C405    1.411   .     A
C399   H427    1.081   .     S
C400   H428    1.081   .     S
C400   C406    1.411   .     A
C401   H429    1.081   .     S
C401   C405    1.412   .     A
C402   H430    1.081   .     S
C402   C406    1.412   .     A
C403   C407    1.407   .     S
C403   O440    1.286   .     A
C403   O437    1.287   .     A
C404   O439    1.286   .     A
C404   C408    1.407   .     S
C404   O438    1.287   .     A
C406   C293    1.518   1_565 S
C408   C631    1.189   .     S
C409   Cl441   1.772   .     S
C409   C419    1.416   .     A
C409   C413    1.400   .     A
C410   C420    1.416   .     A
C410   Cl442   1.772   .     S
C410   C414    1.400   .     A
C411   C415    1.399   .     A
C411   C420    1.416   .     A
C411   Cl443   1.772   .     S
C412   C419    1.416   .     A
C412   Cl444   1.772   .     S
C412   C416    1.399   .     A
C413   C417    1.404   .     A
C413   Cl445   1.769   .     S
C414   Cl446   1.770   .     S
C414   C418    1.404   .     A
C415   Cl447   1.770   .     S
C415   C418    1.406   .     A
C416   Cl448   1.770   .     S
C416   C417    1.405   .     A
C420   C363    1.512   1_655 S
Cu421  Cu422   2.676   .     S
Cu421  O435    1.952   .     S
Cu421  O439    1.931   .     S
Cu421  N432    2.011   .     S
Cu421  O433    1.944   .     S
Cu421  O437    1.932   .     S
Cu422  O436    1.952   .     S
Cu422  N431    2.011   .     S
Cu422  O440    1.931   .     S
Cu422  O434    1.944   .     S
Cu422  O438    1.932   .     S
C449   C473    1.455   .     S
C449   O492    1.288   .     A
C449   O489    1.293   .     A
C450   O491    1.288   .     A
C450   C474    1.455   .     S
C450   O490    1.293   .     A
C451   N487    1.364   .     A
C451   H479    1.081   .     S
C451   C455    1.407   .     A
C452   C456    1.408   .     A
C452   N488    1.364   .     A
C452   H480    1.081   .     S
C453   C457    1.408   .     A
C453   N487    1.364   .     A
C453   H481    1.081   .     S
C454   C458    1.408   .     A
C454   N488    1.364   .     A
C454   H482    1.081   .     S
C455   C461    1.411   .     A
C455   H483    1.081   .     S
C456   H484    1.081   .     S
C456   C462    1.411   .     A
C457   H485    1.081   .     S
C457   C461    1.412   .     A
C458   H486    1.081   .     S
C458   C462    1.412   .     A
C459   C463    1.407   .     S
C459   O496    1.286   .     A
C459   O493    1.287   .     A
C460   O495    1.286   .     A
C460   C464    1.407   .     S
C460   O494    1.287   .     A
C461   C574    1.518   1_545 S
C462   C573    1.518   .     S
C464   C15     1.189   1_556 S
C465   Cl497   1.772   .     S
C465   C475    1.416   .     A
C465   C469    1.400   .     A
C466   C476    1.416   .     A
C466   Cl498   1.772   .     S
C466   C470    1.400   .     A
C467   C471    1.399   .     A
C467   C476    1.416   .     A
C467   Cl499   1.772   .     S
C468   C475    1.416   .     A
C468   Cl500   1.772   .     S
C468   C472    1.399   .     A
C469   C473    1.404   .     A
C469   Cl501   1.769   .     S
C470   Cl502   1.770   .     S
C470   C474    1.404   .     A
C471   Cl503   1.770   .     S
C471   C474    1.406   .     A
C472   Cl504   1.770   .     S
C472   C473    1.405   .     A
C475   C532    1.512   1_455 S
C476   C531    1.512   .     S
Cu477  Cu478   2.676   .     S
Cu477  O491    1.952   .     S
Cu477  O495    1.931   .     S
Cu477  N488    2.011   .     S
Cu477  O489    1.944   .     S
Cu477  O493    1.932   .     S
Cu478  O492    1.952   .     S
Cu478  N487    2.011   .     S
Cu478  O496    1.931   .     S
Cu478  O490    1.944   .     S
Cu478  O494    1.932   .     S
C505   C529    1.455   .     S
C505   O548    1.288   .     A
C505   O545    1.293   .     A
C506   O547    1.288   .     A
C506   C530    1.455   .     S
C506   O546    1.293   .     A
C507   N543    1.364   .     A
C507   H535    1.081   .     S
C507   C511    1.407   .     A
C508   C512    1.408   .     A
C508   N544    1.364   .     A
C508   H536    1.081   .     S
C509   C513    1.408   .     A
C509   N543    1.364   .     A
C509   H537    1.081   .     S
C510   C514    1.408   .     A
C510   N544    1.364   .     A
C510   H538    1.081   .     S
C511   C517    1.411   .     A
C511   H539    1.081   .     S
C512   H540    1.081   .     S
C512   C518    1.411   .     A
C513   H541    1.081   .     S
C513   C517    1.412   .     A
C514   H542    1.081   .     S
C514   C518    1.412   .     A
C515   C519    1.407   .     S
C515   O552    1.286   .     A
C515   O549    1.287   .     A
C516   O551    1.286   .     A
C516   C520    1.407   .     S
C516   O550    1.287   .     A
C517   C630    1.518   1_545 S
C518   C629    1.518   .     S
C520   C71     1.189   1_556 S
C521   Cl553   1.772   .     S
C521   C531    1.416   .     A
C521   C525    1.400   .     A
C522   C532    1.416   .     A
C522   Cl554   1.772   .     S
C522   C526    1.400   .     A
C523   C527    1.399   .     A
C523   C532    1.416   .     A
C523   Cl555   1.772   .     S
C524   C531    1.416   .     A
C524   Cl556   1.772   .     S
C524   C528    1.399   .     A
C525   C529    1.404   .     A
C525   Cl557   1.769   .     S
C526   Cl558   1.770   .     S
C526   C530    1.404   .     A
C527   Cl559   1.770   .     S
C527   C530    1.406   .     A
C528   Cl560   1.770   .     S
C528   C529    1.405   .     A
C532   C475    1.512   1_655 S
Cu533  Cu534   2.676   .     S
Cu533  O547    1.952   .     S
Cu533  O551    1.931   .     S
Cu533  N544    2.011   .     S
Cu533  O545    1.944   .     S
Cu533  O549    1.932   .     S
Cu534  O548    1.952   .     S
Cu534  N543    2.011   .     S
Cu534  O552    1.931   .     S
Cu534  O546    1.944   .     S
Cu534  O550    1.932   .     S
C561   C585    1.455   .     S
C561   O604    1.288   .     A
C561   O601    1.293   .     A
C562   O603    1.288   .     A
C562   C586    1.455   .     S
C562   O602    1.293   .     A
C563   N599    1.364   .     A
C563   H591    1.081   .     S
C563   C567    1.407   .     A
C564   C568    1.408   .     A
C564   N600    1.364   .     A
C564   H592    1.081   .     S
C565   C569    1.408   .     A
C565   N599    1.364   .     A
C565   H593    1.081   .     S
C566   C570    1.408   .     A
C566   N600    1.364   .     A
C566   H594    1.081   .     S
C567   C573    1.411   .     A
C567   H595    1.081   .     S
C568   H596    1.081   .     S
C568   C574    1.411   .     A
C569   H597    1.081   .     S
C569   C573    1.412   .     A
C570   H598    1.081   .     S
C570   C574    1.412   .     A
C571   C575    1.407   .     S
C571   O608    1.286   .     A
C571   O605    1.287   .     A
C572   O607    1.286   .     A
C572   C576    1.407   .     S
C572   O606    1.287   .     A
C574   C461    1.518   1_565 S
C576   C127    1.189   1_556 S
C577   Cl609   1.772   .     S
C577   C587    1.416   .     A
C577   C581    1.400   .     A
C578   C588    1.416   .     A
C578   Cl610   1.772   .     S
C578   C582    1.400   .     A
C579   C583    1.399   .     A
C579   C588    1.416   .     A
C579   Cl611   1.772   .     S
C580   C587    1.416   .     A
C580   Cl612   1.772   .     S
C580   C584    1.399   .     A
C581   C585    1.404   .     A
C581   Cl613   1.769   .     S
C582   Cl614   1.770   .     S
C582   C586    1.404   .     A
C583   Cl615   1.770   .     S
C583   C586    1.406   .     A
C584   Cl616   1.770   .     S
C584   C585    1.405   .     A
C587   C644    1.512   1_455 S
C588   C643    1.512   .     S
Cu589  Cu590   2.676   .     S
Cu589  O603    1.952   .     S
Cu589  O607    1.931   .     S
Cu589  N600    2.011   .     S
Cu589  O601    1.944   .     S
Cu589  O605    1.932   .     S
Cu590  O604    1.952   .     S
Cu590  N599    2.011   .     S
Cu590  O608    1.931   .     S
Cu590  O602    1.944   .     S
Cu590  O606    1.932   .     S
C617   C641    1.455   .     S
C617   O660    1.288   .     A
C617   O657    1.293   .     A
C618   O659    1.288   .     A
C618   C642    1.455   .     S
C618   O658    1.293   .     A
C619   N655    1.364   .     A
C619   H647    1.081   .     S
C619   C623    1.407   .     A
C620   C624    1.408   .     A
C620   N656    1.364   .     A
C620   H648    1.081   .     S
C621   C625    1.408   .     A
C621   N655    1.364   .     A
C621   H649    1.081   .     S
C622   C626    1.408   .     A
C622   N656    1.364   .     A
C622   H650    1.081   .     S
C623   C629    1.411   .     A
C623   H651    1.081   .     S
C624   H652    1.081   .     S
C624   C630    1.411   .     A
C625   H653    1.081   .     S
C625   C629    1.412   .     A
C626   H654    1.081   .     S
C626   C630    1.412   .     A
C627   C631    1.407   .     S
C627   O664    1.286   .     A
C627   O661    1.287   .     A
C628   O663    1.286   .     A
C628   C632    1.407   .     S
C628   O662    1.287   .     A
C630   C517    1.518   1_565 S
C632   C183    1.189   1_556 S
C633   Cl665   1.772   .     S
C633   C643    1.416   .     A
C633   C637    1.400   .     A
C634   C644    1.416   .     A
C634   Cl666   1.772   .     S
C634   C638    1.400   .     A
C635   C639    1.399   .     A
C635   C644    1.416   .     A
C635   Cl667   1.772   .     S
C636   C643    1.416   .     A
C636   Cl668   1.772   .     S
C636   C640    1.399   .     A
C637   C641    1.404   .     A
C637   Cl669   1.769   .     S
C638   Cl670   1.770   .     S
C638   C642    1.404   .     A
C639   Cl671   1.770   .     S
C639   C642    1.406   .     A
C640   Cl672   1.770   .     S
C640   C641    1.405   .     A
C644   C587    1.512   1_655 S
Cu645  Cu646   2.676   .     S
Cu645  O659    1.952   .     S
Cu645  O663    1.931   .     S
Cu645  N656    2.011   .     S
Cu645  O657    1.944   .     S
Cu645  O661    1.932   .     S
Cu646  O660    1.952   .     S
Cu646  N655    2.011   .     S
Cu646  O664    1.931   .     S
Cu646  O658    1.944   .     S
Cu646  O662    1.932   .     S
