data_str_m3_o1_o17_pcu_sym.84
_audit_creation_date              2020-01-03
_audit_creation_method            'Materials Studio'
_symmetry_space_group_name_H-M    'P1'
_symmetry_Int_Tables_number       1
_symmetry_cell_setting            triclinic
loop_
_symmetry_equiv_pos_as_xyz
  x,y,z
_cell_length_a                    32.3925
_cell_length_b                    29.7068
_cell_length_c                    29.9985
_cell_angle_alpha                 90.0287
_cell_angle_beta                  91.4940
_cell_angle_gamma                 90.4470
loop_
_atom_site_label
_atom_site_type_symbol
_atom_site_fract_x
_atom_site_fract_y
_atom_site_fract_z
_atom_site_U_iso_or_equiv
_atom_site_adp_type
_atom_site_occupancy
C1     C     0.08665   0.16662   0.25014   0.00000  Uiso   1.00
C2     C     0.04245   0.16677   0.25040   0.00000  Uiso   1.00
C3     C     0.18807   0.02453   0.28228   0.00000  Uiso   1.00
C4     C     0.14595   0.30896   0.21698   0.00000  Uiso   1.00
C5     C     0.14450   0.02396   0.21815   0.00000  Uiso   1.00
C6     C     0.18600   0.30972   0.28377   0.00000  Uiso   1.00
C7     C     0.16665   0.16679   0.16375   0.00000  Uiso   1.00
C8     C     0.16762   0.16649   0.33632   0.00000  Uiso   1.00
C9     C     0.20440   0.18063   0.40747   0.00000  Uiso   1.00
C10    C     0.13024   0.15778   0.09202   0.00000  Uiso   1.00
C11    C     0.16882   0.16553   0.38409   0.00000  Uiso   1.00
C12    C     0.24668   0.16680   0.24985   0.00000  Uiso   1.00
C13    C     0.16675   0.16801   0.11602   0.00000  Uiso   1.00
C14    C     0.13423   0.14945   0.40625   0.00000  Uiso   1.00
C15    C     0.20328   0.18073   0.09532   0.00000  Uiso   1.00
C16    C     0.13191   0.15769   0.45208   0.00000  Uiso   1.00
C17    C     0.20393   0.18203   0.04840   0.00000  Uiso   1.00
C18    C     0.16823   0.16894   0.47675   0.00000  Uiso   1.00
C19    C     0.16721   0.17102   0.02355   0.00000  Uiso   1.00
C20    C     0.20563   0.17706   0.45450   0.00000  Uiso   1.00
C21    C     0.12939   0.16235   0.04526   0.00000  Uiso   1.00
C22    C     0.09351   0.15823   0.47284   0.00000  Uiso   1.00
C23    C     0.09194   0.15987   0.01945   0.00000  Uiso   1.00
C24    C     0.24049   0.19243   0.02551   0.00000  Uiso   1.00
C25    C     0.23845   0.20203   0.38210   0.00000  Uiso   1.00
C26    C     0.09460   0.13835   0.11598   0.00000  Uiso   1.00
C27    C     0.10107   0.12282   0.38258   0.00000  Uiso   1.00
C28    C     0.24166   0.18596   0.12337   0.00000  Uiso   1.00
C29    C     0.04931   0.20915   0.43088   0.00000  Uiso   1.00
C30    C     0.27770   0.26153   0.04159   0.00000  Uiso   1.00
C31    C     0.05114   0.16506   0.04002   0.00000  Uiso   1.00
C32    C     0.28340   0.17376   0.46149   0.00000  Uiso   1.00
C33    C     0.25435   0.04335   0.31920   0.00000  Uiso   1.00
C34    C     0.24248   0.18309   0.47996   0.00000  Uiso   1.00
C35    C     0.13975   0.28709   0.13864   0.00000  Uiso   1.00
C36    C     0.07629   0.04205   0.18588   0.00000  Uiso   1.00
C37    C     0.18168   0.29589   0.36347   0.00000  Uiso   1.00
C38    C     0.02094   0.12598   0.25257   0.00000  Uiso   1.00
C39    C     0.31236   0.20791   0.24815   0.00000  Uiso   1.00
C40    C     0.31188   0.12604   0.25123   0.00000  Uiso   1.00
C41    C     0.02150   0.20780   0.24820   0.00000  Uiso   1.00
C42    C     0.29088   0.16697   0.24964   0.00000  Uiso   1.00
H43    H     0.03669   0.09409   0.25527   0.00000  Uiso   1.00
H44    H     0.02228   0.20933   0.40736   0.00000  Uiso   1.00
H45    H     0.07638   0.22251   0.41297   0.00000  Uiso   1.00
H46    H     0.04303   0.23140   0.45966   0.00000  Uiso   1.00
H47    H     0.30256   0.19712   0.04530   0.00000  Uiso   1.00
H48    H     0.30350   0.27532   0.06266   0.00000  Uiso   1.00
H49    H     0.24862   0.27785   0.05166   0.00000  Uiso   1.00
H50    H     0.28362   0.26944   0.00611   0.00000  Uiso   1.00
H51    H     0.04569   0.19366   0.06156   0.00000  Uiso   1.00
H52    H     0.30980   0.19409   0.47151   0.00000  Uiso   1.00
H53    H     0.19565   0.05211   0.34583   0.00000  Uiso   1.00
H54    H     0.29651   0.23988   0.24674   0.00000  Uiso   1.00
H55    H     0.26236   0.02109   0.34780   0.00000  Uiso   1.00
H56    H     0.26940   0.07652   0.32537   0.00000  Uiso   1.00
H57    H     0.26661   0.02865   0.28816   0.00000  Uiso   1.00
H58    H     0.09244   0.28529   0.18498   0.00000  Uiso   1.00
H59    H     0.12920   0.31831   0.12192   0.00000  Uiso   1.00
H60    H     0.12762   0.25827   0.11860   0.00000  Uiso   1.00
H61    H     0.17405   0.28579   0.13924   0.00000  Uiso   1.00
H62    H     0.13359   0.05240   0.15546   0.00000  Uiso   1.00
H63    H     0.06630   0.02092   0.15699   0.00000  Uiso   1.00
H64    H     0.06110   0.07516   0.18226   0.00000  Uiso   1.00
H65    H     0.29574   0.09407   0.25153   0.00000  Uiso   1.00
H66    H     0.06591   0.02616   0.21727   0.00000  Uiso   1.00
H67    H     0.23336   0.28405   0.32375   0.00000  Uiso   1.00
H68    H     0.20312   0.31464   0.38636   0.00000  Uiso   1.00
H69    H     0.17289   0.26405   0.37989   0.00000  Uiso   1.00
H70    H     0.15292   0.31567   0.35832   0.00000  Uiso   1.00
H71    H     0.03776   0.23974   0.24657   0.00000  Uiso   1.00
H72    H     0.24634   0.18929   0.34953   0.00000  Uiso   1.00
H73    H     0.08007   0.10748   0.10391   0.00000  Uiso   1.00
H74    H     0.08797   0.09356   0.39882   0.00000  Uiso   1.00
H75    H     0.26701   0.16276   0.11935   0.00000  Uiso   1.00
H76    H     0.03133   0.14593   0.45581   0.00000  Uiso   1.00
N77    N     0.16667   0.28573   0.25000   0.00000  Uiso   1.00
N78    N     0.16667   0.04760   0.25000   0.00000  Uiso   1.00
N79    N     0.05687   0.16363   0.44610   0.00000  Uiso   1.00
N80    N     0.27487   0.21339   0.04794   0.00000  Uiso   1.00
N81    N     0.21011   0.04943   0.31577   0.00000  Uiso   1.00
N82    N     0.12412   0.28403   0.18336   0.00000  Uiso   1.00
N83    N     0.12065   0.04849   0.18622   0.00000  Uiso   1.00
N84    N     0.20166   0.28639   0.32169   0.00000  Uiso   1.00
O85    O     0.10559   0.20487   0.24999   0.00000  Uiso   1.00
O86    O     0.08034   0.15762   0.14798   0.00000  Uiso   1.00
O87    O     0.08652   0.13463   0.34660   0.00000  Uiso   1.00
O88    O     0.24546   0.21692   0.14996   0.00000  Uiso   1.00
O89    O     0.02437   0.13620   0.03506   0.00000  Uiso   1.00
O90    O     0.28791   0.14233   0.43584   0.00000  Uiso   1.00
O91    O     0.22774   0.12846   0.25000   0.00000  Uiso   1.00
O92    O     0.22774   0.20487   0.25000   0.00000  Uiso   1.00
O93    O     0.10559   0.12846   0.24999   0.00000  Uiso   1.00
O94    O     0.16666   0.20489   0.18392   0.00000  Uiso   1.00
O95    O     0.16667   0.12844   0.31607   0.00000  Uiso   1.00
O96    O     0.16667   0.20489   0.31607   0.00000  Uiso   1.00
O97    O     0.16666   0.12844   0.18392   0.00000  Uiso   1.00
O98    O     0.25679   0.23523   0.39662   0.00000  Uiso   1.00
Zn99   Zn    0.16667   0.21771   0.25000   0.00000  Uiso   1.00
Zn100  Zn    0.16667   0.11563   0.25000   0.00000  Uiso   1.00
C101   C     0.41998   0.16662   0.25014   0.00000  Uiso   1.00
C102   C     0.37579   0.16677   0.25040   0.00000  Uiso   1.00
C103   C     0.52140   0.02453   0.28228   0.00000  Uiso   1.00
C104   C     0.47929   0.30896   0.21698   0.00000  Uiso   1.00
C105   C     0.47783   0.02396   0.21815   0.00000  Uiso   1.00
C106   C     0.51933   0.30972   0.28377   0.00000  Uiso   1.00
C107   C     0.49998   0.16679   0.16375   0.00000  Uiso   1.00
C108   C     0.50095   0.16649   0.33632   0.00000  Uiso   1.00
C109   C     0.53773   0.18063   0.40747   0.00000  Uiso   1.00
C110   C     0.46357   0.15778   0.09202   0.00000  Uiso   1.00
C111   C     0.50216   0.16553   0.38409   0.00000  Uiso   1.00
C112   C     0.58002   0.16680   0.24985   0.00000  Uiso   1.00
C113   C     0.50009   0.16801   0.11602   0.00000  Uiso   1.00
C114   C     0.46756   0.14945   0.40625   0.00000  Uiso   1.00
C115   C     0.53662   0.18073   0.09532   0.00000  Uiso   1.00
C116   C     0.46525   0.15769   0.45208   0.00000  Uiso   1.00
C117   C     0.53726   0.18203   0.04840   0.00000  Uiso   1.00
C118   C     0.50156   0.16894   0.47675   0.00000  Uiso   1.00
C119   C     0.50055   0.17102   0.02355   0.00000  Uiso   1.00
C120   C     0.53896   0.17706   0.45450   0.00000  Uiso   1.00
C121   C     0.46272   0.16235   0.04526   0.00000  Uiso   1.00
C122   C     0.42684   0.15823   0.47284   0.00000  Uiso   1.00
C123   C     0.42528   0.15987   0.01945   0.00000  Uiso   1.00
C124   C     0.57383   0.19243   0.02551   0.00000  Uiso   1.00
C125   C     0.57179   0.20203   0.38210   0.00000  Uiso   1.00
C126   C     0.42794   0.13835   0.11598   0.00000  Uiso   1.00
C127   C     0.43440   0.12282   0.38258   0.00000  Uiso   1.00
C128   C     0.57499   0.18596   0.12337   0.00000  Uiso   1.00
C129   C     0.38264   0.20915   0.43088   0.00000  Uiso   1.00
C130   C     0.61103   0.26153   0.04159   0.00000  Uiso   1.00
C131   C     0.38447   0.16506   0.04002   0.00000  Uiso   1.00
C132   C     0.61673   0.17376   0.46149   0.00000  Uiso   1.00
C133   C     0.58769   0.04335   0.31920   0.00000  Uiso   1.00
C134   C     0.57581   0.18309   0.47996   0.00000  Uiso   1.00
C135   C     0.47308   0.28709   0.13864   0.00000  Uiso   1.00
C136   C     0.40963   0.04205   0.18588   0.00000  Uiso   1.00
C137   C     0.51501   0.29589   0.36347   0.00000  Uiso   1.00
C138   C     0.35427   0.12598   0.25257   0.00000  Uiso   1.00
C139   C     0.64570   0.20791   0.24815   0.00000  Uiso   1.00
C140   C     0.64522   0.12604   0.25123   0.00000  Uiso   1.00
C141   C     0.35483   0.20780   0.24820   0.00000  Uiso   1.00
C142   C     0.62422   0.16697   0.24964   0.00000  Uiso   1.00
H143   H     0.37002   0.09409   0.25527   0.00000  Uiso   1.00
H144   H     0.35561   0.20933   0.40736   0.00000  Uiso   1.00
H145   H     0.40971   0.22251   0.41297   0.00000  Uiso   1.00
H146   H     0.37636   0.23140   0.45966   0.00000  Uiso   1.00
H147   H     0.63590   0.19712   0.04530   0.00000  Uiso   1.00
H148   H     0.63683   0.27532   0.06266   0.00000  Uiso   1.00
H149   H     0.58195   0.27785   0.05166   0.00000  Uiso   1.00
H150   H     0.61695   0.26944   0.00611   0.00000  Uiso   1.00
H151   H     0.37903   0.19366   0.06156   0.00000  Uiso   1.00
H152   H     0.64313   0.19409   0.47151   0.00000  Uiso   1.00
H153   H     0.52899   0.05211   0.34583   0.00000  Uiso   1.00
H154   H     0.62984   0.23988   0.24674   0.00000  Uiso   1.00
H155   H     0.59569   0.02109   0.34780   0.00000  Uiso   1.00
H156   H     0.60273   0.07652   0.32537   0.00000  Uiso   1.00
H157   H     0.59994   0.02865   0.28816   0.00000  Uiso   1.00
H158   H     0.42577   0.28529   0.18498   0.00000  Uiso   1.00
H159   H     0.46253   0.31831   0.12192   0.00000  Uiso   1.00
H160   H     0.46095   0.25827   0.11860   0.00000  Uiso   1.00
H161   H     0.50739   0.28579   0.13924   0.00000  Uiso   1.00
H162   H     0.46692   0.05240   0.15546   0.00000  Uiso   1.00
H163   H     0.39963   0.02092   0.15699   0.00000  Uiso   1.00
H164   H     0.39444   0.07516   0.18226   0.00000  Uiso   1.00
H165   H     0.62907   0.09407   0.25153   0.00000  Uiso   1.00
H166   H     0.39924   0.02616   0.21727   0.00000  Uiso   1.00
H167   H     0.56669   0.28405   0.32375   0.00000  Uiso   1.00
H168   H     0.53645   0.31464   0.38636   0.00000  Uiso   1.00
H169   H     0.50622   0.26405   0.37989   0.00000  Uiso   1.00
H170   H     0.48625   0.31567   0.35832   0.00000  Uiso   1.00
H171   H     0.37109   0.23974   0.24657   0.00000  Uiso   1.00
H172   H     0.57968   0.18929   0.34953   0.00000  Uiso   1.00
H173   H     0.41341   0.10748   0.10391   0.00000  Uiso   1.00
H174   H     0.42130   0.09356   0.39882   0.00000  Uiso   1.00
H175   H     0.60034   0.16276   0.11935   0.00000  Uiso   1.00
H176   H     0.36466   0.14593   0.45581   0.00000  Uiso   1.00
N177   N     0.50000   0.28573   0.25000   0.00000  Uiso   1.00
N178   N     0.50000   0.04760   0.25000   0.00000  Uiso   1.00
N179   N     0.39020   0.16363   0.44610   0.00000  Uiso   1.00
N180   N     0.60821   0.21339   0.04794   0.00000  Uiso   1.00
N181   N     0.54344   0.04943   0.31577   0.00000  Uiso   1.00
N182   N     0.45745   0.28403   0.18336   0.00000  Uiso   1.00
N183   N     0.45398   0.04849   0.18622   0.00000  Uiso   1.00
N184   N     0.53500   0.28639   0.32169   0.00000  Uiso   1.00
O185   O     0.43892   0.20487   0.24999   0.00000  Uiso   1.00
O186   O     0.41367   0.15762   0.14798   0.00000  Uiso   1.00
O187   O     0.41985   0.13463   0.34660   0.00000  Uiso   1.00
O188   O     0.57879   0.21692   0.14996   0.00000  Uiso   1.00
O189   O     0.35770   0.13620   0.03506   0.00000  Uiso   1.00
O190   O     0.62125   0.14233   0.43584   0.00000  Uiso   1.00
O191   O     0.56108   0.12846   0.25000   0.00000  Uiso   1.00
O192   O     0.56108   0.20487   0.25000   0.00000  Uiso   1.00
O193   O     0.43892   0.12846   0.24999   0.00000  Uiso   1.00
O194   O     0.49999   0.20489   0.18392   0.00000  Uiso   1.00
O195   O     0.50001   0.12844   0.31607   0.00000  Uiso   1.00
O196   O     0.50001   0.20489   0.31607   0.00000  Uiso   1.00
O197   O     0.49999   0.12844   0.18392   0.00000  Uiso   1.00
O198   O     0.59012   0.23523   0.39662   0.00000  Uiso   1.00
Zn199  Zn    0.50000   0.21771   0.25000   0.00000  Uiso   1.00
Zn200  Zn    0.50000   0.11563   0.25000   0.00000  Uiso   1.00
C201   C     0.75332   0.16662   0.25014   0.00000  Uiso   1.00
C202   C     0.70912   0.16677   0.25040   0.00000  Uiso   1.00
C203   C     0.85474   0.02453   0.28228   0.00000  Uiso   1.00
C204   C     0.81262   0.30896   0.21698   0.00000  Uiso   1.00
C205   C     0.81116   0.02396   0.21815   0.00000  Uiso   1.00
C206   C     0.85267   0.30972   0.28377   0.00000  Uiso   1.00
C207   C     0.83332   0.16679   0.16375   0.00000  Uiso   1.00
C208   C     0.83428   0.16649   0.33632   0.00000  Uiso   1.00
C209   C     0.87106   0.18063   0.40747   0.00000  Uiso   1.00
C210   C     0.79690   0.15778   0.09202   0.00000  Uiso   1.00
C211   C     0.83549   0.16553   0.38409   0.00000  Uiso   1.00
C212   C     0.91335   0.16680   0.24985   0.00000  Uiso   1.00
C213   C     0.83342   0.16801   0.11602   0.00000  Uiso   1.00
C214   C     0.80090   0.14945   0.40625   0.00000  Uiso   1.00
C215   C     0.86995   0.18073   0.09532   0.00000  Uiso   1.00
C216   C     0.79858   0.15769   0.45208   0.00000  Uiso   1.00
C217   C     0.87060   0.18203   0.04840   0.00000  Uiso   1.00
C218   C     0.83490   0.16894   0.47675   0.00000  Uiso   1.00
C219   C     0.83388   0.17102   0.02355   0.00000  Uiso   1.00
C220   C     0.87229   0.17706   0.45450   0.00000  Uiso   1.00
C221   C     0.79605   0.16235   0.04526   0.00000  Uiso   1.00
C222   C     0.76017   0.15823   0.47284   0.00000  Uiso   1.00
C223   C     0.75861   0.15987   0.01945   0.00000  Uiso   1.00
C224   C     0.90716   0.19243   0.02551   0.00000  Uiso   1.00
C225   C     0.90512   0.20203   0.38210   0.00000  Uiso   1.00
C226   C     0.76127   0.13835   0.11598   0.00000  Uiso   1.00
C227   C     0.76774   0.12282   0.38258   0.00000  Uiso   1.00
C228   C     0.90832   0.18596   0.12337   0.00000  Uiso   1.00
C229   C     0.71597   0.20915   0.43088   0.00000  Uiso   1.00
C230   C     0.94437   0.26153   0.04159   0.00000  Uiso   1.00
C231   C     0.71780   0.16506   0.04002   0.00000  Uiso   1.00
C232   C     0.95006   0.17376   0.46149   0.00000  Uiso   1.00
C233   C     0.92102   0.04335   0.31920   0.00000  Uiso   1.00
C234   C     0.90914   0.18309   0.47996   0.00000  Uiso   1.00
C235   C     0.80642   0.28709   0.13864   0.00000  Uiso   1.00
C236   C     0.74296   0.04205   0.18588   0.00000  Uiso   1.00
C237   C     0.84834   0.29589   0.36347   0.00000  Uiso   1.00
C238   C     0.68760   0.12598   0.25257   0.00000  Uiso   1.00
C239   C     0.97903   0.20791   0.24815   0.00000  Uiso   1.00
C240   C     0.97855   0.12604   0.25123   0.00000  Uiso   1.00
C241   C     0.68816   0.20780   0.24820   0.00000  Uiso   1.00
C242   C     0.95755   0.16697   0.24964   0.00000  Uiso   1.00
H243   H     0.70336   0.09409   0.25527   0.00000  Uiso   1.00
H244   H     0.68894   0.20933   0.40736   0.00000  Uiso   1.00
H245   H     0.74304   0.22251   0.41297   0.00000  Uiso   1.00
H246   H     0.70969   0.23140   0.45966   0.00000  Uiso   1.00
H247   H     0.96923   0.19712   0.04530   0.00000  Uiso   1.00
H248   H     0.97017   0.27532   0.06266   0.00000  Uiso   1.00
H249   H     0.91528   0.27785   0.05166   0.00000  Uiso   1.00
H250   H     0.95028   0.26944   0.00611   0.00000  Uiso   1.00
H251   H     0.71236   0.19366   0.06156   0.00000  Uiso   1.00
H252   H     0.97646   0.19409   0.47151   0.00000  Uiso   1.00
H253   H     0.86232   0.05211   0.34583   0.00000  Uiso   1.00
H254   H     0.96317   0.23988   0.24674   0.00000  Uiso   1.00
H255   H     0.92903   0.02109   0.34780   0.00000  Uiso   1.00
H256   H     0.93606   0.07652   0.32537   0.00000  Uiso   1.00
H257   H     0.93327   0.02865   0.28816   0.00000  Uiso   1.00
H258   H     0.75910   0.28529   0.18498   0.00000  Uiso   1.00
H259   H     0.79587   0.31831   0.12192   0.00000  Uiso   1.00
H260   H     0.79428   0.25827   0.11860   0.00000  Uiso   1.00
H261   H     0.84072   0.28579   0.13924   0.00000  Uiso   1.00
H262   H     0.80026   0.05240   0.15546   0.00000  Uiso   1.00
H263   H     0.73297   0.02092   0.15699   0.00000  Uiso   1.00
H264   H     0.72777   0.07516   0.18226   0.00000  Uiso   1.00
H265   H     0.96240   0.09407   0.25153   0.00000  Uiso   1.00
H266   H     0.73257   0.02616   0.21727   0.00000  Uiso   1.00
H267   H     0.90003   0.28405   0.32375   0.00000  Uiso   1.00
H268   H     0.86979   0.31464   0.38636   0.00000  Uiso   1.00
H269   H     0.83955   0.26405   0.37989   0.00000  Uiso   1.00
H270   H     0.81959   0.31567   0.35832   0.00000  Uiso   1.00
H271   H     0.70443   0.23974   0.24657   0.00000  Uiso   1.00
H272   H     0.91301   0.18929   0.34953   0.00000  Uiso   1.00
H273   H     0.74674   0.10748   0.10391   0.00000  Uiso   1.00
H274   H     0.75463   0.09356   0.39882   0.00000  Uiso   1.00
H275   H     0.93368   0.16276   0.11935   0.00000  Uiso   1.00
H276   H     0.69799   0.14593   0.45581   0.00000  Uiso   1.00
N277   N     0.83333   0.28573   0.25000   0.00000  Uiso   1.00
N278   N     0.83333   0.04760   0.25000   0.00000  Uiso   1.00
N279   N     0.72353   0.16363   0.44610   0.00000  Uiso   1.00
N280   N     0.94154   0.21339   0.04794   0.00000  Uiso   1.00
N281   N     0.87678   0.04943   0.31577   0.00000  Uiso   1.00
N282   N     0.79078   0.28403   0.18336   0.00000  Uiso   1.00
N283   N     0.78731   0.04849   0.18622   0.00000  Uiso   1.00
N284   N     0.86833   0.28639   0.32169   0.00000  Uiso   1.00
O285   O     0.77226   0.20487   0.24999   0.00000  Uiso   1.00
O286   O     0.74701   0.15762   0.14798   0.00000  Uiso   1.00
O287   O     0.75318   0.13463   0.34660   0.00000  Uiso   1.00
O288   O     0.91212   0.21692   0.14996   0.00000  Uiso   1.00
O289   O     0.69104   0.13620   0.03506   0.00000  Uiso   1.00
O290   O     0.95458   0.14233   0.43584   0.00000  Uiso   1.00
O291   O     0.89441   0.12846   0.25000   0.00000  Uiso   1.00
O292   O     0.89441   0.20487   0.25000   0.00000  Uiso   1.00
O293   O     0.77226   0.12846   0.24999   0.00000  Uiso   1.00
O294   O     0.83333   0.20489   0.18392   0.00000  Uiso   1.00
O295   O     0.83334   0.12844   0.31607   0.00000  Uiso   1.00
O296   O     0.83334   0.20489   0.31607   0.00000  Uiso   1.00
O297   O     0.83333   0.12844   0.18392   0.00000  Uiso   1.00
O298   O     0.92345   0.23523   0.39662   0.00000  Uiso   1.00
Zn299  Zn    0.83333   0.21771   0.25000   0.00000  Uiso   1.00
Zn300  Zn    0.83333   0.11563   0.25000   0.00000  Uiso   1.00
C301   C     0.08665   0.49995   0.25014   0.00000  Uiso   1.00
C302   C     0.04245   0.50010   0.25040   0.00000  Uiso   1.00
C303   C     0.18807   0.35786   0.28228   0.00000  Uiso   1.00
C304   C     0.14595   0.64230   0.21698   0.00000  Uiso   1.00
C305   C     0.14450   0.35730   0.21815   0.00000  Uiso   1.00
C306   C     0.18600   0.64306   0.28377   0.00000  Uiso   1.00
C307   C     0.16665   0.50013   0.16375   0.00000  Uiso   1.00
C308   C     0.16762   0.49982   0.33632   0.00000  Uiso   1.00
C309   C     0.20440   0.51396   0.40747   0.00000  Uiso   1.00
C310   C     0.13024   0.49111   0.09202   0.00000  Uiso   1.00
C311   C     0.16882   0.49886   0.38409   0.00000  Uiso   1.00
C312   C     0.24668   0.50013   0.24985   0.00000  Uiso   1.00
C313   C     0.16675   0.50134   0.11602   0.00000  Uiso   1.00
C314   C     0.13423   0.48279   0.40625   0.00000  Uiso   1.00
C315   C     0.20328   0.51406   0.09532   0.00000  Uiso   1.00
C316   C     0.13191   0.49103   0.45208   0.00000  Uiso   1.00
C317   C     0.20393   0.51536   0.04840   0.00000  Uiso   1.00
C318   C     0.16823   0.50227   0.47675   0.00000  Uiso   1.00
C319   C     0.16721   0.50436   0.02355   0.00000  Uiso   1.00
C320   C     0.20563   0.51039   0.45450   0.00000  Uiso   1.00
C321   C     0.12939   0.49569   0.04526   0.00000  Uiso   1.00
C322   C     0.09351   0.49157   0.47284   0.00000  Uiso   1.00
C323   C     0.09194   0.49320   0.01945   0.00000  Uiso   1.00
C324   C     0.24049   0.52577   0.02551   0.00000  Uiso   1.00
C325   C     0.23845   0.53537   0.38210   0.00000  Uiso   1.00
C326   C     0.09460   0.47169   0.11598   0.00000  Uiso   1.00
C327   C     0.10107   0.45615   0.38258   0.00000  Uiso   1.00
C328   C     0.24166   0.51929   0.12337   0.00000  Uiso   1.00
C329   C     0.04931   0.54248   0.43088   0.00000  Uiso   1.00
C330   C     0.27770   0.59486   0.04159   0.00000  Uiso   1.00
C331   C     0.05114   0.49840   0.04002   0.00000  Uiso   1.00
C332   C     0.28340   0.50709   0.46149   0.00000  Uiso   1.00
C333   C     0.25435   0.37668   0.31920   0.00000  Uiso   1.00
C334   C     0.24248   0.51643   0.47996   0.00000  Uiso   1.00
C335   C     0.13975   0.62043   0.13864   0.00000  Uiso   1.00
C336   C     0.07629   0.37539   0.18588   0.00000  Uiso   1.00
C337   C     0.18168   0.62922   0.36347   0.00000  Uiso   1.00
C338   C     0.02094   0.45931   0.25257   0.00000  Uiso   1.00
C339   C     0.31236   0.54124   0.24815   0.00000  Uiso   1.00
C340   C     0.31188   0.45937   0.25123   0.00000  Uiso   1.00
C341   C     0.02150   0.54114   0.24820   0.00000  Uiso   1.00
C342   C     0.29088   0.50030   0.24964   0.00000  Uiso   1.00
H343   H     0.03669   0.42742   0.25527   0.00000  Uiso   1.00
H344   H     0.02228   0.54267   0.40736   0.00000  Uiso   1.00
H345   H     0.07638   0.55584   0.41297   0.00000  Uiso   1.00
H346   H     0.04303   0.56473   0.45966   0.00000  Uiso   1.00
H347   H     0.30256   0.53045   0.04530   0.00000  Uiso   1.00
H348   H     0.30350   0.60866   0.06266   0.00000  Uiso   1.00
H349   H     0.24862   0.61118   0.05166   0.00000  Uiso   1.00
H350   H     0.28362   0.60278   0.00611   0.00000  Uiso   1.00
H351   H     0.04569   0.52699   0.06156   0.00000  Uiso   1.00
H352   H     0.30980   0.52742   0.47151   0.00000  Uiso   1.00
H353   H     0.19565   0.38545   0.34583   0.00000  Uiso   1.00
H354   H     0.29651   0.57321   0.24674   0.00000  Uiso   1.00
H355   H     0.26236   0.35442   0.34780   0.00000  Uiso   1.00
H356   H     0.26940   0.40986   0.32537   0.00000  Uiso   1.00
H357   H     0.26661   0.36199   0.28816   0.00000  Uiso   1.00
H358   H     0.09244   0.61862   0.18498   0.00000  Uiso   1.00
H359   H     0.12920   0.65164   0.12192   0.00000  Uiso   1.00
H360   H     0.12762   0.59160   0.11860   0.00000  Uiso   1.00
H361   H     0.17405   0.61912   0.13924   0.00000  Uiso   1.00
H362   H     0.13359   0.38573   0.15546   0.00000  Uiso   1.00
H363   H     0.06630   0.35425   0.15699   0.00000  Uiso   1.00
H364   H     0.06110   0.40849   0.18226   0.00000  Uiso   1.00
H365   H     0.29574   0.42741   0.25153   0.00000  Uiso   1.00
H366   H     0.06591   0.35949   0.21727   0.00000  Uiso   1.00
H367   H     0.23336   0.61738   0.32375   0.00000  Uiso   1.00
H368   H     0.20312   0.64797   0.38636   0.00000  Uiso   1.00
H369   H     0.17289   0.59738   0.37989   0.00000  Uiso   1.00
H370   H     0.15292   0.64901   0.35832   0.00000  Uiso   1.00
H371   H     0.03776   0.57308   0.24657   0.00000  Uiso   1.00
H372   H     0.24634   0.52262   0.34953   0.00000  Uiso   1.00
H373   H     0.08007   0.44082   0.10391   0.00000  Uiso   1.00
H374   H     0.08797   0.42689   0.39882   0.00000  Uiso   1.00
H375   H     0.26701   0.49609   0.11935   0.00000  Uiso   1.00
H376   H     0.03133   0.47926   0.45581   0.00000  Uiso   1.00
N377   N     0.16667   0.61907   0.25000   0.00000  Uiso   1.00
N378   N     0.16667   0.38093   0.25000   0.00000  Uiso   1.00
N379   N     0.05687   0.49696   0.44610   0.00000  Uiso   1.00
N380   N     0.27487   0.54672   0.04794   0.00000  Uiso   1.00
N381   N     0.21011   0.38277   0.31577   0.00000  Uiso   1.00
N382   N     0.12412   0.61737   0.18336   0.00000  Uiso   1.00
N383   N     0.12065   0.38182   0.18622   0.00000  Uiso   1.00
N384   N     0.20166   0.61972   0.32169   0.00000  Uiso   1.00
O385   O     0.10559   0.53821   0.24999   0.00000  Uiso   1.00
O386   O     0.08034   0.49095   0.14798   0.00000  Uiso   1.00
O387   O     0.08652   0.46796   0.34660   0.00000  Uiso   1.00
O388   O     0.24546   0.55025   0.14996   0.00000  Uiso   1.00
O389   O     0.02437   0.46953   0.03506   0.00000  Uiso   1.00
O390   O     0.28791   0.47566   0.43584   0.00000  Uiso   1.00
O391   O     0.22774   0.46179   0.25000   0.00000  Uiso   1.00
O392   O     0.22774   0.53821   0.25000   0.00000  Uiso   1.00
O393   O     0.10559   0.46179   0.24999   0.00000  Uiso   1.00
O394   O     0.16666   0.53823   0.18392   0.00000  Uiso   1.00
O395   O     0.16667   0.46177   0.31607   0.00000  Uiso   1.00
O396   O     0.16667   0.53823   0.31607   0.00000  Uiso   1.00
O397   O     0.16666   0.46177   0.18392   0.00000  Uiso   1.00
O398   O     0.25679   0.56856   0.39662   0.00000  Uiso   1.00
Zn399  Zn    0.16667   0.55104   0.25000   0.00000  Uiso   1.00
Zn400  Zn    0.16667   0.44896   0.25000   0.00000  Uiso   1.00
C401   C     0.41998   0.49995   0.25014   0.00000  Uiso   1.00
C402   C     0.37579   0.50010   0.25040   0.00000  Uiso   1.00
C403   C     0.52140   0.35786   0.28228   0.00000  Uiso   1.00
C404   C     0.47929   0.64230   0.21698   0.00000  Uiso   1.00
C405   C     0.47783   0.35730   0.21815   0.00000  Uiso   1.00
C406   C     0.51933   0.64306   0.28377   0.00000  Uiso   1.00
C407   C     0.49998   0.50013   0.16375   0.00000  Uiso   1.00
C408   C     0.50095   0.49982   0.33632   0.00000  Uiso   1.00
C409   C     0.53773   0.51396   0.40747   0.00000  Uiso   1.00
C410   C     0.46357   0.49111   0.09202   0.00000  Uiso   1.00
C411   C     0.50216   0.49886   0.38409   0.00000  Uiso   1.00
C412   C     0.58002   0.50013   0.24985   0.00000  Uiso   1.00
C413   C     0.50009   0.50134   0.11602   0.00000  Uiso   1.00
C414   C     0.46756   0.48279   0.40625   0.00000  Uiso   1.00
C415   C     0.53662   0.51406   0.09532   0.00000  Uiso   1.00
C416   C     0.46525   0.49103   0.45208   0.00000  Uiso   1.00
C417   C     0.53726   0.51536   0.04840   0.00000  Uiso   1.00
C418   C     0.50156   0.50227   0.47675   0.00000  Uiso   1.00
C419   C     0.50055   0.50436   0.02355   0.00000  Uiso   1.00
C420   C     0.53896   0.51039   0.45450   0.00000  Uiso   1.00
C421   C     0.46272   0.49569   0.04526   0.00000  Uiso   1.00
C422   C     0.42684   0.49157   0.47284   0.00000  Uiso   1.00
C423   C     0.42528   0.49320   0.01945   0.00000  Uiso   1.00
C424   C     0.57383   0.52577   0.02551   0.00000  Uiso   1.00
C425   C     0.57179   0.53537   0.38210   0.00000  Uiso   1.00
C426   C     0.42794   0.47169   0.11598   0.00000  Uiso   1.00
C427   C     0.43440   0.45615   0.38258   0.00000  Uiso   1.00
C428   C     0.57499   0.51929   0.12337   0.00000  Uiso   1.00
C429   C     0.38264   0.54248   0.43088   0.00000  Uiso   1.00
C430   C     0.61103   0.59486   0.04159   0.00000  Uiso   1.00
C431   C     0.38447   0.49840   0.04002   0.00000  Uiso   1.00
C432   C     0.61673   0.50709   0.46149   0.00000  Uiso   1.00
C433   C     0.58769   0.37668   0.31920   0.00000  Uiso   1.00
C434   C     0.57581   0.51643   0.47996   0.00000  Uiso   1.00
C435   C     0.47308   0.62043   0.13864   0.00000  Uiso   1.00
C436   C     0.40963   0.37539   0.18588   0.00000  Uiso   1.00
C437   C     0.51501   0.62922   0.36347   0.00000  Uiso   1.00
C438   C     0.35427   0.45931   0.25257   0.00000  Uiso   1.00
C439   C     0.64570   0.54124   0.24815   0.00000  Uiso   1.00
C440   C     0.64522   0.45937   0.25123   0.00000  Uiso   1.00
C441   C     0.35483   0.54114   0.24820   0.00000  Uiso   1.00
C442   C     0.62422   0.50030   0.24964   0.00000  Uiso   1.00
H443   H     0.37002   0.42742   0.25527   0.00000  Uiso   1.00
H444   H     0.35561   0.54267   0.40736   0.00000  Uiso   1.00
H445   H     0.40971   0.55584   0.41297   0.00000  Uiso   1.00
H446   H     0.37636   0.56473   0.45966   0.00000  Uiso   1.00
H447   H     0.63590   0.53045   0.04530   0.00000  Uiso   1.00
H448   H     0.63683   0.60866   0.06266   0.00000  Uiso   1.00
H449   H     0.58195   0.61118   0.05166   0.00000  Uiso   1.00
H450   H     0.61695   0.60278   0.00611   0.00000  Uiso   1.00
H451   H     0.37903   0.52699   0.06156   0.00000  Uiso   1.00
H452   H     0.64313   0.52742   0.47151   0.00000  Uiso   1.00
H453   H     0.52899   0.38545   0.34583   0.00000  Uiso   1.00
H454   H     0.62984   0.57321   0.24674   0.00000  Uiso   1.00
H455   H     0.59569   0.35442   0.34780   0.00000  Uiso   1.00
H456   H     0.60273   0.40986   0.32537   0.00000  Uiso   1.00
H457   H     0.59994   0.36199   0.28816   0.00000  Uiso   1.00
H458   H     0.42577   0.61862   0.18498   0.00000  Uiso   1.00
H459   H     0.46253   0.65164   0.12192   0.00000  Uiso   1.00
H460   H     0.46095   0.59160   0.11860   0.00000  Uiso   1.00
H461   H     0.50739   0.61912   0.13924   0.00000  Uiso   1.00
H462   H     0.46692   0.38573   0.15546   0.00000  Uiso   1.00
H463   H     0.39963   0.35425   0.15699   0.00000  Uiso   1.00
H464   H     0.39444   0.40849   0.18226   0.00000  Uiso   1.00
H465   H     0.62907   0.42741   0.25153   0.00000  Uiso   1.00
H466   H     0.39924   0.35949   0.21727   0.00000  Uiso   1.00
H467   H     0.56669   0.61738   0.32375   0.00000  Uiso   1.00
H468   H     0.53645   0.64797   0.38636   0.00000  Uiso   1.00
H469   H     0.50622   0.59738   0.37989   0.00000  Uiso   1.00
H470   H     0.48625   0.64901   0.35832   0.00000  Uiso   1.00
H471   H     0.37109   0.57308   0.24657   0.00000  Uiso   1.00
H472   H     0.57968   0.52262   0.34953   0.00000  Uiso   1.00
H473   H     0.41341   0.44082   0.10391   0.00000  Uiso   1.00
H474   H     0.42130   0.42689   0.39882   0.00000  Uiso   1.00
H475   H     0.60034   0.49609   0.11935   0.00000  Uiso   1.00
H476   H     0.36466   0.47926   0.45581   0.00000  Uiso   1.00
N477   N     0.50000   0.61907   0.25000   0.00000  Uiso   1.00
N478   N     0.50000   0.38093   0.25000   0.00000  Uiso   1.00
N479   N     0.39020   0.49696   0.44610   0.00000  Uiso   1.00
N480   N     0.60821   0.54672   0.04794   0.00000  Uiso   1.00
N481   N     0.54344   0.38277   0.31577   0.00000  Uiso   1.00
N482   N     0.45745   0.61737   0.18336   0.00000  Uiso   1.00
N483   N     0.45398   0.38182   0.18622   0.00000  Uiso   1.00
N484   N     0.53500   0.61972   0.32169   0.00000  Uiso   1.00
O485   O     0.43892   0.53821   0.24999   0.00000  Uiso   1.00
O486   O     0.41367   0.49095   0.14798   0.00000  Uiso   1.00
O487   O     0.41985   0.46796   0.34660   0.00000  Uiso   1.00
O488   O     0.57879   0.55025   0.14996   0.00000  Uiso   1.00
O489   O     0.35770   0.46953   0.03506   0.00000  Uiso   1.00
O490   O     0.62125   0.47566   0.43584   0.00000  Uiso   1.00
O491   O     0.56108   0.46179   0.25000   0.00000  Uiso   1.00
O492   O     0.56108   0.53821   0.25000   0.00000  Uiso   1.00
O493   O     0.43892   0.46179   0.24999   0.00000  Uiso   1.00
O494   O     0.49999   0.53823   0.18392   0.00000  Uiso   1.00
O495   O     0.50001   0.46177   0.31607   0.00000  Uiso   1.00
O496   O     0.50001   0.53823   0.31607   0.00000  Uiso   1.00
O497   O     0.49999   0.46177   0.18392   0.00000  Uiso   1.00
O498   O     0.59012   0.56856   0.39662   0.00000  Uiso   1.00
Zn499  Zn    0.50000   0.55104   0.25000   0.00000  Uiso   1.00
Zn500  Zn    0.50000   0.44896   0.25000   0.00000  Uiso   1.00
C501   C     0.75332   0.49995   0.25014   0.00000  Uiso   1.00
C502   C     0.70912   0.50010   0.25040   0.00000  Uiso   1.00
C503   C     0.85474   0.35786   0.28228   0.00000  Uiso   1.00
C504   C     0.81262   0.64230   0.21698   0.00000  Uiso   1.00
C505   C     0.81116   0.35730   0.21815   0.00000  Uiso   1.00
C506   C     0.85267   0.64306   0.28377   0.00000  Uiso   1.00
C507   C     0.83332   0.50013   0.16375   0.00000  Uiso   1.00
C508   C     0.83428   0.49982   0.33632   0.00000  Uiso   1.00
C509   C     0.87106   0.51396   0.40747   0.00000  Uiso   1.00
C510   C     0.79690   0.49111   0.09202   0.00000  Uiso   1.00
C511   C     0.83549   0.49886   0.38409   0.00000  Uiso   1.00
C512   C     0.91335   0.50013   0.24985   0.00000  Uiso   1.00
C513   C     0.83342   0.50134   0.11602   0.00000  Uiso   1.00
C514   C     0.80090   0.48279   0.40625   0.00000  Uiso   1.00
C515   C     0.86995   0.51406   0.09532   0.00000  Uiso   1.00
C516   C     0.79858   0.49103   0.45208   0.00000  Uiso   1.00
C517   C     0.87060   0.51536   0.04840   0.00000  Uiso   1.00
C518   C     0.83490   0.50227   0.47675   0.00000  Uiso   1.00
C519   C     0.83388   0.50436   0.02355   0.00000  Uiso   1.00
C520   C     0.87229   0.51039   0.45450   0.00000  Uiso   1.00
C521   C     0.79605   0.49569   0.04526   0.00000  Uiso   1.00
C522   C     0.76017   0.49157   0.47284   0.00000  Uiso   1.00
C523   C     0.75861   0.49320   0.01945   0.00000  Uiso   1.00
C524   C     0.90716   0.52577   0.02551   0.00000  Uiso   1.00
C525   C     0.90512   0.53537   0.38210   0.00000  Uiso   1.00
C526   C     0.76127   0.47169   0.11598   0.00000  Uiso   1.00
C527   C     0.76774   0.45615   0.38258   0.00000  Uiso   1.00
C528   C     0.90832   0.51929   0.12337   0.00000  Uiso   1.00
C529   C     0.71597   0.54248   0.43088   0.00000  Uiso   1.00
C530   C     0.94437   0.59486   0.04159   0.00000  Uiso   1.00
C531   C     0.71780   0.49840   0.04002   0.00000  Uiso   1.00
C532   C     0.95006   0.50709   0.46149   0.00000  Uiso   1.00
C533   C     0.92102   0.37668   0.31920   0.00000  Uiso   1.00
C534   C     0.90914   0.51643   0.47996   0.00000  Uiso   1.00
C535   C     0.80642   0.62043   0.13864   0.00000  Uiso   1.00
C536   C     0.74296   0.37539   0.18588   0.00000  Uiso   1.00
C537   C     0.84834   0.62922   0.36347   0.00000  Uiso   1.00
C538   C     0.68760   0.45931   0.25257   0.00000  Uiso   1.00
C539   C     0.97903   0.54124   0.24815   0.00000  Uiso   1.00
C540   C     0.97855   0.45937   0.25123   0.00000  Uiso   1.00
C541   C     0.68816   0.54114   0.24820   0.00000  Uiso   1.00
C542   C     0.95755   0.50030   0.24964   0.00000  Uiso   1.00
H543   H     0.70336   0.42742   0.25527   0.00000  Uiso   1.00
H544   H     0.68894   0.54267   0.40736   0.00000  Uiso   1.00
H545   H     0.74304   0.55584   0.41297   0.00000  Uiso   1.00
H546   H     0.70969   0.56473   0.45966   0.00000  Uiso   1.00
H547   H     0.96923   0.53045   0.04530   0.00000  Uiso   1.00
H548   H     0.97017   0.60866   0.06266   0.00000  Uiso   1.00
H549   H     0.91528   0.61118   0.05166   0.00000  Uiso   1.00
H550   H     0.95028   0.60278   0.00611   0.00000  Uiso   1.00
H551   H     0.71236   0.52699   0.06156   0.00000  Uiso   1.00
H552   H     0.97646   0.52742   0.47151   0.00000  Uiso   1.00
H553   H     0.86232   0.38545   0.34583   0.00000  Uiso   1.00
H554   H     0.96317   0.57321   0.24674   0.00000  Uiso   1.00
H555   H     0.92903   0.35442   0.34780   0.00000  Uiso   1.00
H556   H     0.93606   0.40986   0.32537   0.00000  Uiso   1.00
H557   H     0.93327   0.36199   0.28816   0.00000  Uiso   1.00
H558   H     0.75910   0.61862   0.18498   0.00000  Uiso   1.00
H559   H     0.79587   0.65164   0.12192   0.00000  Uiso   1.00
H560   H     0.79428   0.59160   0.11860   0.00000  Uiso   1.00
H561   H     0.84072   0.61912   0.13924   0.00000  Uiso   1.00
H562   H     0.80026   0.38573   0.15546   0.00000  Uiso   1.00
H563   H     0.73297   0.35425   0.15699   0.00000  Uiso   1.00
H564   H     0.72777   0.40849   0.18226   0.00000  Uiso   1.00
H565   H     0.96240   0.42741   0.25153   0.00000  Uiso   1.00
H566   H     0.73257   0.35949   0.21727   0.00000  Uiso   1.00
H567   H     0.90003   0.61738   0.32375   0.00000  Uiso   1.00
H568   H     0.86979   0.64797   0.38636   0.00000  Uiso   1.00
H569   H     0.83955   0.59738   0.37989   0.00000  Uiso   1.00
H570   H     0.81959   0.64901   0.35832   0.00000  Uiso   1.00
H571   H     0.70443   0.57308   0.24657   0.00000  Uiso   1.00
H572   H     0.91301   0.52262   0.34953   0.00000  Uiso   1.00
H573   H     0.74674   0.44082   0.10391   0.00000  Uiso   1.00
H574   H     0.75463   0.42689   0.39882   0.00000  Uiso   1.00
H575   H     0.93368   0.49609   0.11935   0.00000  Uiso   1.00
H576   H     0.69799   0.47926   0.45581   0.00000  Uiso   1.00
N577   N     0.83333   0.61907   0.25000   0.00000  Uiso   1.00
N578   N     0.83333   0.38093   0.25000   0.00000  Uiso   1.00
N579   N     0.72353   0.49696   0.44610   0.00000  Uiso   1.00
N580   N     0.94154   0.54672   0.04794   0.00000  Uiso   1.00
N581   N     0.87678   0.38277   0.31577   0.00000  Uiso   1.00
N582   N     0.79078   0.61737   0.18336   0.00000  Uiso   1.00
N583   N     0.78731   0.38182   0.18622   0.00000  Uiso   1.00
N584   N     0.86833   0.61972   0.32169   0.00000  Uiso   1.00
O585   O     0.77226   0.53821   0.24999   0.00000  Uiso   1.00
O586   O     0.74701   0.49095   0.14798   0.00000  Uiso   1.00
O587   O     0.75318   0.46796   0.34660   0.00000  Uiso   1.00
O588   O     0.91212   0.55025   0.14996   0.00000  Uiso   1.00
O589   O     0.69104   0.46953   0.03506   0.00000  Uiso   1.00
O590   O     0.95458   0.47566   0.43584   0.00000  Uiso   1.00
O591   O     0.89441   0.46179   0.25000   0.00000  Uiso   1.00
O592   O     0.89441   0.53821   0.25000   0.00000  Uiso   1.00
O593   O     0.77226   0.46179   0.24999   0.00000  Uiso   1.00
O594   O     0.83333   0.53823   0.18392   0.00000  Uiso   1.00
O595   O     0.83334   0.46177   0.31607   0.00000  Uiso   1.00
O596   O     0.83334   0.53823   0.31607   0.00000  Uiso   1.00
O597   O     0.83333   0.46177   0.18392   0.00000  Uiso   1.00
O598   O     0.92345   0.56856   0.39662   0.00000  Uiso   1.00
Zn599  Zn    0.83333   0.55104   0.25000   0.00000  Uiso   1.00
Zn600  Zn    0.83333   0.44896   0.25000   0.00000  Uiso   1.00
C601   C     0.08665   0.83328   0.25014   0.00000  Uiso   1.00
C602   C     0.04245   0.83344   0.25040   0.00000  Uiso   1.00
C603   C     0.18807   0.69119   0.28228   0.00000  Uiso   1.00
C604   C     0.14595   0.97563   0.21698   0.00000  Uiso   1.00
C605   C     0.14450   0.69063   0.21815   0.00000  Uiso   1.00
C606   C     0.18600   0.97639   0.28377   0.00000  Uiso   1.00
C607   C     0.16665   0.83346   0.16375   0.00000  Uiso   1.00
C608   C     0.16762   0.83316   0.33632   0.00000  Uiso   1.00
C609   C     0.20440   0.84730   0.40747   0.00000  Uiso   1.00
C610   C     0.13024   0.82444   0.09202   0.00000  Uiso   1.00
C611   C     0.16882   0.83219   0.38409   0.00000  Uiso   1.00
C612   C     0.24668   0.83347   0.24985   0.00000  Uiso   1.00
C613   C     0.16675   0.83468   0.11602   0.00000  Uiso   1.00
C614   C     0.13423   0.81612   0.40625   0.00000  Uiso   1.00
C615   C     0.20328   0.84739   0.09532   0.00000  Uiso   1.00
C616   C     0.13191   0.82436   0.45208   0.00000  Uiso   1.00
C617   C     0.20393   0.84869   0.04840   0.00000  Uiso   1.00
C618   C     0.16823   0.83561   0.47675   0.00000  Uiso   1.00
C619   C     0.16721   0.83769   0.02355   0.00000  Uiso   1.00
C620   C     0.20563   0.84373   0.45450   0.00000  Uiso   1.00
C621   C     0.12939   0.82902   0.04526   0.00000  Uiso   1.00
C622   C     0.09351   0.82490   0.47284   0.00000  Uiso   1.00
C623   C     0.09194   0.82654   0.01945   0.00000  Uiso   1.00
C624   C     0.24049   0.85910   0.02551   0.00000  Uiso   1.00
C625   C     0.23845   0.86870   0.38210   0.00000  Uiso   1.00
C626   C     0.09460   0.80502   0.11598   0.00000  Uiso   1.00
C627   C     0.10107   0.78948   0.38258   0.00000  Uiso   1.00
C628   C     0.24166   0.85262   0.12337   0.00000  Uiso   1.00
C629   C     0.04931   0.87581   0.43088   0.00000  Uiso   1.00
C630   C     0.27770   0.92820   0.04159   0.00000  Uiso   1.00
C631   C     0.05114   0.83173   0.04002   0.00000  Uiso   1.00
C632   C     0.28340   0.84042   0.46149   0.00000  Uiso   1.00
C633   C     0.25435   0.71001   0.31920   0.00000  Uiso   1.00
C634   C     0.24248   0.84976   0.47996   0.00000  Uiso   1.00
C635   C     0.13975   0.95376   0.13864   0.00000  Uiso   1.00
C636   C     0.07629   0.70872   0.18588   0.00000  Uiso   1.00
C637   C     0.18168   0.96256   0.36347   0.00000  Uiso   1.00
C638   C     0.02094   0.79265   0.25257   0.00000  Uiso   1.00
C639   C     0.31236   0.87458   0.24815   0.00000  Uiso   1.00
C640   C     0.31188   0.79270   0.25123   0.00000  Uiso   1.00
C641   C     0.02150   0.87447   0.24820   0.00000  Uiso   1.00
C642   C     0.29088   0.83364   0.24964   0.00000  Uiso   1.00
H643   H     0.03669   0.76076   0.25527   0.00000  Uiso   1.00
H644   H     0.02228   0.87600   0.40736   0.00000  Uiso   1.00
H645   H     0.07638   0.88918   0.41297   0.00000  Uiso   1.00
H646   H     0.04303   0.89806   0.45966   0.00000  Uiso   1.00
H647   H     0.30256   0.86378   0.04530   0.00000  Uiso   1.00
H648   H     0.30350   0.94199   0.06266   0.00000  Uiso   1.00
H649   H     0.24862   0.94451   0.05166   0.00000  Uiso   1.00
H650   H     0.28362   0.93611   0.00611   0.00000  Uiso   1.00
H651   H     0.04569   0.86033   0.06156   0.00000  Uiso   1.00
H652   H     0.30980   0.86076   0.47151   0.00000  Uiso   1.00
H653   H     0.19565   0.71878   0.34583   0.00000  Uiso   1.00
H654   H     0.29651   0.90654   0.24674   0.00000  Uiso   1.00
H655   H     0.26236   0.68776   0.34780   0.00000  Uiso   1.00
H656   H     0.26940   0.74319   0.32537   0.00000  Uiso   1.00
H657   H     0.26661   0.69532   0.28816   0.00000  Uiso   1.00
H658   H     0.09244   0.95195   0.18498   0.00000  Uiso   1.00
H659   H     0.12920   0.98497   0.12192   0.00000  Uiso   1.00
H660   H     0.12762   0.92494   0.11860   0.00000  Uiso   1.00
H661   H     0.17405   0.95245   0.13924   0.00000  Uiso   1.00
H662   H     0.13359   0.71907   0.15546   0.00000  Uiso   1.00
H663   H     0.06630   0.68759   0.15699   0.00000  Uiso   1.00
H664   H     0.06110   0.74182   0.18226   0.00000  Uiso   1.00
H665   H     0.29574   0.76074   0.25153   0.00000  Uiso   1.00
H666   H     0.06591   0.69282   0.21727   0.00000  Uiso   1.00
H667   H     0.23336   0.95071   0.32375   0.00000  Uiso   1.00
H668   H     0.20312   0.98130   0.38636   0.00000  Uiso   1.00
H669   H     0.17289   0.93071   0.37989   0.00000  Uiso   1.00
H670   H     0.15292   0.98234   0.35832   0.00000  Uiso   1.00
H671   H     0.03776   0.90641   0.24657   0.00000  Uiso   1.00
H672   H     0.24634   0.85595   0.34953   0.00000  Uiso   1.00
H673   H     0.08007   0.77415   0.10391   0.00000  Uiso   1.00
H674   H     0.08797   0.76022   0.39882   0.00000  Uiso   1.00
H675   H     0.26701   0.82942   0.11935   0.00000  Uiso   1.00
H676   H     0.03133   0.81259   0.45581   0.00000  Uiso   1.00
N677   N     0.16667   0.95240   0.25000   0.00000  Uiso   1.00
N678   N     0.16667   0.71427   0.25000   0.00000  Uiso   1.00
N679   N     0.05687   0.83029   0.44610   0.00000  Uiso   1.00
N680   N     0.27487   0.88006   0.04794   0.00000  Uiso   1.00
N681   N     0.21011   0.71610   0.31577   0.00000  Uiso   1.00
N682   N     0.12412   0.95070   0.18336   0.00000  Uiso   1.00
N683   N     0.12065   0.71515   0.18622   0.00000  Uiso   1.00
N684   N     0.20166   0.95305   0.32169   0.00000  Uiso   1.00
O685   O     0.10559   0.87154   0.24999   0.00000  Uiso   1.00
O686   O     0.08034   0.82429   0.14798   0.00000  Uiso   1.00
O687   O     0.08652   0.80129   0.34660   0.00000  Uiso   1.00
O688   O     0.24546   0.88358   0.14996   0.00000  Uiso   1.00
O689   O     0.02437   0.80286   0.03506   0.00000  Uiso   1.00
O690   O     0.28791   0.80899   0.43584   0.00000  Uiso   1.00
O691   O     0.22774   0.79513   0.25000   0.00000  Uiso   1.00
O692   O     0.22774   0.87154   0.25000   0.00000  Uiso   1.00
O693   O     0.10559   0.79513   0.24999   0.00000  Uiso   1.00
O694   O     0.16666   0.87156   0.18392   0.00000  Uiso   1.00
O695   O     0.16667   0.79511   0.31607   0.00000  Uiso   1.00
O696   O     0.16667   0.87156   0.31607   0.00000  Uiso   1.00
O697   O     0.16666   0.79511   0.18392   0.00000  Uiso   1.00
O698   O     0.25679   0.90190   0.39662   0.00000  Uiso   1.00
Zn699  Zn    0.16667   0.88437   0.25000   0.00000  Uiso   1.00
Zn700  Zn    0.16667   0.78229   0.25000   0.00000  Uiso   1.00
C701   C     0.41998   0.83328   0.25014   0.00000  Uiso   1.00
C702   C     0.37579   0.83344   0.25040   0.00000  Uiso   1.00
C703   C     0.52140   0.69119   0.28228   0.00000  Uiso   1.00
C704   C     0.47929   0.97563   0.21698   0.00000  Uiso   1.00
C705   C     0.47783   0.69063   0.21815   0.00000  Uiso   1.00
C706   C     0.51933   0.97639   0.28377   0.00000  Uiso   1.00
C707   C     0.49998   0.83346   0.16375   0.00000  Uiso   1.00
C708   C     0.50095   0.83316   0.33632   0.00000  Uiso   1.00
C709   C     0.53773   0.84730   0.40747   0.00000  Uiso   1.00
C710   C     0.46357   0.82444   0.09202   0.00000  Uiso   1.00
C711   C     0.50216   0.83219   0.38409   0.00000  Uiso   1.00
C712   C     0.58002   0.83347   0.24985   0.00000  Uiso   1.00
C713   C     0.50009   0.83468   0.11602   0.00000  Uiso   1.00
C714   C     0.46756   0.81612   0.40625   0.00000  Uiso   1.00
C715   C     0.53662   0.84739   0.09532   0.00000  Uiso   1.00
C716   C     0.46525   0.82436   0.45208   0.00000  Uiso   1.00
C717   C     0.53726   0.84869   0.04840   0.00000  Uiso   1.00
C718   C     0.50156   0.83561   0.47675   0.00000  Uiso   1.00
C719   C     0.50055   0.83769   0.02355   0.00000  Uiso   1.00
C720   C     0.53896   0.84373   0.45450   0.00000  Uiso   1.00
C721   C     0.46272   0.82902   0.04526   0.00000  Uiso   1.00
C722   C     0.42684   0.82490   0.47284   0.00000  Uiso   1.00
C723   C     0.42528   0.82654   0.01945   0.00000  Uiso   1.00
C724   C     0.57383   0.85910   0.02551   0.00000  Uiso   1.00
C725   C     0.57179   0.86870   0.38210   0.00000  Uiso   1.00
C726   C     0.42794   0.80502   0.11598   0.00000  Uiso   1.00
C727   C     0.43440   0.78948   0.38258   0.00000  Uiso   1.00
C728   C     0.57499   0.85262   0.12337   0.00000  Uiso   1.00
C729   C     0.38264   0.87581   0.43088   0.00000  Uiso   1.00
C730   C     0.61103   0.92820   0.04159   0.00000  Uiso   1.00
C731   C     0.38447   0.83173   0.04002   0.00000  Uiso   1.00
C732   C     0.61673   0.84042   0.46149   0.00000  Uiso   1.00
C733   C     0.58769   0.71001   0.31920   0.00000  Uiso   1.00
C734   C     0.57581   0.84976   0.47996   0.00000  Uiso   1.00
C735   C     0.47308   0.95376   0.13864   0.00000  Uiso   1.00
C736   C     0.40963   0.70872   0.18588   0.00000  Uiso   1.00
C737   C     0.51501   0.96256   0.36347   0.00000  Uiso   1.00
C738   C     0.35427   0.79265   0.25257   0.00000  Uiso   1.00
C739   C     0.64570   0.87458   0.24815   0.00000  Uiso   1.00
C740   C     0.64522   0.79270   0.25123   0.00000  Uiso   1.00
C741   C     0.35483   0.87447   0.24820   0.00000  Uiso   1.00
C742   C     0.62422   0.83364   0.24964   0.00000  Uiso   1.00
H743   H     0.37002   0.76076   0.25527   0.00000  Uiso   1.00
H744   H     0.35561   0.87600   0.40736   0.00000  Uiso   1.00
H745   H     0.40971   0.88918   0.41297   0.00000  Uiso   1.00
H746   H     0.37636   0.89806   0.45966   0.00000  Uiso   1.00
H747   H     0.63590   0.86378   0.04530   0.00000  Uiso   1.00
H748   H     0.63683   0.94199   0.06266   0.00000  Uiso   1.00
H749   H     0.58195   0.94451   0.05166   0.00000  Uiso   1.00
H750   H     0.61695   0.93611   0.00611   0.00000  Uiso   1.00
H751   H     0.37903   0.86033   0.06156   0.00000  Uiso   1.00
H752   H     0.64313   0.86076   0.47151   0.00000  Uiso   1.00
H753   H     0.52899   0.71878   0.34583   0.00000  Uiso   1.00
H754   H     0.62984   0.90654   0.24674   0.00000  Uiso   1.00
H755   H     0.59569   0.68776   0.34780   0.00000  Uiso   1.00
H756   H     0.60273   0.74319   0.32537   0.00000  Uiso   1.00
H757   H     0.59994   0.69532   0.28816   0.00000  Uiso   1.00
H758   H     0.42577   0.95195   0.18498   0.00000  Uiso   1.00
H759   H     0.46253   0.98497   0.12192   0.00000  Uiso   1.00
H760   H     0.46095   0.92494   0.11860   0.00000  Uiso   1.00
H761   H     0.50739   0.95245   0.13924   0.00000  Uiso   1.00
H762   H     0.46692   0.71907   0.15546   0.00000  Uiso   1.00
H763   H     0.39963   0.68759   0.15699   0.00000  Uiso   1.00
H764   H     0.39444   0.74182   0.18226   0.00000  Uiso   1.00
H765   H     0.62907   0.76074   0.25153   0.00000  Uiso   1.00
H766   H     0.39924   0.69282   0.21727   0.00000  Uiso   1.00
H767   H     0.56669   0.95071   0.32375   0.00000  Uiso   1.00
H768   H     0.53645   0.98130   0.38636   0.00000  Uiso   1.00
H769   H     0.50622   0.93071   0.37989   0.00000  Uiso   1.00
H770   H     0.48625   0.98234   0.35832   0.00000  Uiso   1.00
H771   H     0.37109   0.90641   0.24657   0.00000  Uiso   1.00
H772   H     0.57968   0.85595   0.34953   0.00000  Uiso   1.00
H773   H     0.41341   0.77415   0.10391   0.00000  Uiso   1.00
H774   H     0.42130   0.76022   0.39882   0.00000  Uiso   1.00
H775   H     0.60034   0.82942   0.11935   0.00000  Uiso   1.00
H776   H     0.36466   0.81259   0.45581   0.00000  Uiso   1.00
N777   N     0.50000   0.95240   0.25000   0.00000  Uiso   1.00
N778   N     0.50000   0.71427   0.25000   0.00000  Uiso   1.00
N779   N     0.39020   0.83029   0.44610   0.00000  Uiso   1.00
N780   N     0.60821   0.88006   0.04794   0.00000  Uiso   1.00
N781   N     0.54344   0.71610   0.31577   0.00000  Uiso   1.00
N782   N     0.45745   0.95070   0.18336   0.00000  Uiso   1.00
N783   N     0.45398   0.71515   0.18622   0.00000  Uiso   1.00
N784   N     0.53500   0.95305   0.32169   0.00000  Uiso   1.00
O785   O     0.43892   0.87154   0.24999   0.00000  Uiso   1.00
O786   O     0.41367   0.82429   0.14798   0.00000  Uiso   1.00
O787   O     0.41985   0.80129   0.34660   0.00000  Uiso   1.00
O788   O     0.57879   0.88358   0.14996   0.00000  Uiso   1.00
O789   O     0.35770   0.80286   0.03506   0.00000  Uiso   1.00
O790   O     0.62125   0.80899   0.43584   0.00000  Uiso   1.00
O791   O     0.56108   0.79513   0.25000   0.00000  Uiso   1.00
O792   O     0.56108   0.87154   0.25000   0.00000  Uiso   1.00
O793   O     0.43892   0.79513   0.24999   0.00000  Uiso   1.00
O794   O     0.49999   0.87156   0.18392   0.00000  Uiso   1.00
O795   O     0.50001   0.79511   0.31607   0.00000  Uiso   1.00
O796   O     0.50001   0.87156   0.31607   0.00000  Uiso   1.00
O797   O     0.49999   0.79511   0.18392   0.00000  Uiso   1.00
O798   O     0.59012   0.90190   0.39662   0.00000  Uiso   1.00
Zn799  Zn    0.50000   0.88437   0.25000   0.00000  Uiso   1.00
Zn800  Zn    0.50000   0.78229   0.25000   0.00000  Uiso   1.00
C801   C     0.75332   0.83328   0.25014   0.00000  Uiso   1.00
C802   C     0.70912   0.83344   0.25040   0.00000  Uiso   1.00
C803   C     0.85474   0.69119   0.28228   0.00000  Uiso   1.00
C804   C     0.81262   0.97563   0.21698   0.00000  Uiso   1.00
C805   C     0.81116   0.69063   0.21815   0.00000  Uiso   1.00
C806   C     0.85267   0.97639   0.28377   0.00000  Uiso   1.00
C807   C     0.83332   0.83346   0.16375   0.00000  Uiso   1.00
C808   C     0.83428   0.83316   0.33632   0.00000  Uiso   1.00
C809   C     0.87106   0.84730   0.40747   0.00000  Uiso   1.00
C810   C     0.79690   0.82444   0.09202   0.00000  Uiso   1.00
C811   C     0.83549   0.83219   0.38409   0.00000  Uiso   1.00
C812   C     0.91335   0.83347   0.24985   0.00000  Uiso   1.00
C813   C     0.83342   0.83468   0.11602   0.00000  Uiso   1.00
C814   C     0.80090   0.81612   0.40625   0.00000  Uiso   1.00
C815   C     0.86995   0.84739   0.09532   0.00000  Uiso   1.00
C816   C     0.79858   0.82436   0.45208   0.00000  Uiso   1.00
C817   C     0.87060   0.84869   0.04840   0.00000  Uiso   1.00
C818   C     0.83490   0.83561   0.47675   0.00000  Uiso   1.00
C819   C     0.83388   0.83769   0.02355   0.00000  Uiso   1.00
C820   C     0.87229   0.84373   0.45450   0.00000  Uiso   1.00
C821   C     0.79605   0.82902   0.04526   0.00000  Uiso   1.00
C822   C     0.76017   0.82490   0.47284   0.00000  Uiso   1.00
C823   C     0.75861   0.82654   0.01945   0.00000  Uiso   1.00
C824   C     0.90716   0.85910   0.02551   0.00000  Uiso   1.00
C825   C     0.90512   0.86870   0.38210   0.00000  Uiso   1.00
C826   C     0.76127   0.80502   0.11598   0.00000  Uiso   1.00
C827   C     0.76774   0.78948   0.38258   0.00000  Uiso   1.00
C828   C     0.90832   0.85262   0.12337   0.00000  Uiso   1.00
C829   C     0.71597   0.87581   0.43088   0.00000  Uiso   1.00
C830   C     0.94437   0.92820   0.04159   0.00000  Uiso   1.00
C831   C     0.71780   0.83173   0.04002   0.00000  Uiso   1.00
C832   C     0.95006   0.84042   0.46149   0.00000  Uiso   1.00
C833   C     0.92102   0.71001   0.31920   0.00000  Uiso   1.00
C834   C     0.90914   0.84976   0.47996   0.00000  Uiso   1.00
C835   C     0.80642   0.95376   0.13864   0.00000  Uiso   1.00
C836   C     0.74296   0.70872   0.18588   0.00000  Uiso   1.00
C837   C     0.84834   0.96256   0.36347   0.00000  Uiso   1.00
C838   C     0.68760   0.79265   0.25257   0.00000  Uiso   1.00
C839   C     0.97903   0.87458   0.24815   0.00000  Uiso   1.00
C840   C     0.97855   0.79270   0.25123   0.00000  Uiso   1.00
C841   C     0.68816   0.87447   0.24820   0.00000  Uiso   1.00
C842   C     0.95755   0.83364   0.24964   0.00000  Uiso   1.00
H843   H     0.70336   0.76076   0.25527   0.00000  Uiso   1.00
H844   H     0.68894   0.87600   0.40736   0.00000  Uiso   1.00
H845   H     0.74304   0.88918   0.41297   0.00000  Uiso   1.00
H846   H     0.70969   0.89806   0.45966   0.00000  Uiso   1.00
H847   H     0.96923   0.86378   0.04530   0.00000  Uiso   1.00
H848   H     0.97017   0.94199   0.06266   0.00000  Uiso   1.00
H849   H     0.91528   0.94451   0.05166   0.00000  Uiso   1.00
H850   H     0.95028   0.93611   0.00611   0.00000  Uiso   1.00
H851   H     0.71236   0.86033   0.06156   0.00000  Uiso   1.00
H852   H     0.97646   0.86076   0.47151   0.00000  Uiso   1.00
H853   H     0.86232   0.71878   0.34583   0.00000  Uiso   1.00
H854   H     0.96317   0.90654   0.24674   0.00000  Uiso   1.00
H855   H     0.92903   0.68776   0.34780   0.00000  Uiso   1.00
H856   H     0.93606   0.74319   0.32537   0.00000  Uiso   1.00
H857   H     0.93327   0.69532   0.28816   0.00000  Uiso   1.00
H858   H     0.75910   0.95195   0.18498   0.00000  Uiso   1.00
H859   H     0.79587   0.98497   0.12192   0.00000  Uiso   1.00
H860   H     0.79428   0.92494   0.11860   0.00000  Uiso   1.00
H861   H     0.84072   0.95245   0.13924   0.00000  Uiso   1.00
H862   H     0.80026   0.71907   0.15546   0.00000  Uiso   1.00
H863   H     0.73297   0.68759   0.15699   0.00000  Uiso   1.00
H864   H     0.72777   0.74182   0.18226   0.00000  Uiso   1.00
H865   H     0.96240   0.76074   0.25153   0.00000  Uiso   1.00
H866   H     0.73257   0.69282   0.21727   0.00000  Uiso   1.00
H867   H     0.90003   0.95071   0.32375   0.00000  Uiso   1.00
H868   H     0.86979   0.98130   0.38636   0.00000  Uiso   1.00
H869   H     0.83955   0.93071   0.37989   0.00000  Uiso   1.00
H870   H     0.81959   0.98234   0.35832   0.00000  Uiso   1.00
H871   H     0.70443   0.90641   0.24657   0.00000  Uiso   1.00
H872   H     0.91301   0.85595   0.34953   0.00000  Uiso   1.00
H873   H     0.74674   0.77415   0.10391   0.00000  Uiso   1.00
H874   H     0.75463   0.76022   0.39882   0.00000  Uiso   1.00
H875   H     0.93368   0.82942   0.11935   0.00000  Uiso   1.00
H876   H     0.69799   0.81259   0.45581   0.00000  Uiso   1.00
N877   N     0.83333   0.95240   0.25000   0.00000  Uiso   1.00
N878   N     0.83333   0.71427   0.25000   0.00000  Uiso   1.00
N879   N     0.72353   0.83029   0.44610   0.00000  Uiso   1.00
N880   N     0.94154   0.88006   0.04794   0.00000  Uiso   1.00
N881   N     0.87678   0.71610   0.31577   0.00000  Uiso   1.00
N882   N     0.79078   0.95070   0.18336   0.00000  Uiso   1.00
N883   N     0.78731   0.71515   0.18622   0.00000  Uiso   1.00
N884   N     0.86833   0.95305   0.32169   0.00000  Uiso   1.00
O885   O     0.77226   0.87154   0.24999   0.00000  Uiso   1.00
O886   O     0.74701   0.82429   0.14798   0.00000  Uiso   1.00
O887   O     0.75318   0.80129   0.34660   0.00000  Uiso   1.00
O888   O     0.91212   0.88358   0.14996   0.00000  Uiso   1.00
O889   O     0.69104   0.80286   0.03506   0.00000  Uiso   1.00
O890   O     0.95458   0.80899   0.43584   0.00000  Uiso   1.00
O891   O     0.89441   0.79513   0.25000   0.00000  Uiso   1.00
O892   O     0.89441   0.87154   0.25000   0.00000  Uiso   1.00
O893   O     0.77226   0.79513   0.24999   0.00000  Uiso   1.00
O894   O     0.83333   0.87156   0.18392   0.00000  Uiso   1.00
O895   O     0.83334   0.79511   0.31607   0.00000  Uiso   1.00
O896   O     0.83334   0.87156   0.31607   0.00000  Uiso   1.00
O897   O     0.83333   0.79511   0.18392   0.00000  Uiso   1.00
O898   O     0.92345   0.90190   0.39662   0.00000  Uiso   1.00
Zn899  Zn    0.83333   0.88437   0.25000   0.00000  Uiso   1.00
Zn900  Zn    0.83333   0.78229   0.25000   0.00000  Uiso   1.00
C901   C     0.08665   0.16662   0.75014   0.00000  Uiso   1.00
C902   C     0.04245   0.16677   0.75040   0.00000  Uiso   1.00
C903   C     0.18807   0.02453   0.78228   0.00000  Uiso   1.00
C904   C     0.14595   0.30896   0.71698   0.00000  Uiso   1.00
C905   C     0.14450   0.02396   0.71815   0.00000  Uiso   1.00
C906   C     0.18600   0.30972   0.78377   0.00000  Uiso   1.00
C907   C     0.16665   0.16679   0.66375   0.00000  Uiso   1.00
C908   C     0.16762   0.16649   0.83632   0.00000  Uiso   1.00
C909   C     0.20440   0.18063   0.90747   0.00000  Uiso   1.00
C910   C     0.13024   0.15778   0.59202   0.00000  Uiso   1.00
C911   C     0.16882   0.16553   0.88409   0.00000  Uiso   1.00
C912   C     0.24668   0.16680   0.74985   0.00000  Uiso   1.00
C913   C     0.16675   0.16801   0.61602   0.00000  Uiso   1.00
C914   C     0.13423   0.14945   0.90625   0.00000  Uiso   1.00
C915   C     0.20328   0.18073   0.59532   0.00000  Uiso   1.00
C916   C     0.13191   0.15769   0.95208   0.00000  Uiso   1.00
C917   C     0.20393   0.18203   0.54840   0.00000  Uiso   1.00
C918   C     0.16823   0.16894   0.97675   0.00000  Uiso   1.00
C919   C     0.16721   0.17102   0.52355   0.00000  Uiso   1.00
C920   C     0.20563   0.17706   0.95450   0.00000  Uiso   1.00
C921   C     0.12939   0.16235   0.54526   0.00000  Uiso   1.00
C922   C     0.09351   0.15823   0.97284   0.00000  Uiso   1.00
C923   C     0.09194   0.15987   0.51945   0.00000  Uiso   1.00
C924   C     0.24049   0.19243   0.52551   0.00000  Uiso   1.00
C925   C     0.23845   0.20203   0.88210   0.00000  Uiso   1.00
C926   C     0.09460   0.13835   0.61598   0.00000  Uiso   1.00
C927   C     0.10107   0.12282   0.88258   0.00000  Uiso   1.00
C928   C     0.24166   0.18596   0.62337   0.00000  Uiso   1.00
C929   C     0.04931   0.20915   0.93088   0.00000  Uiso   1.00
C930   C     0.27770   0.26153   0.54159   0.00000  Uiso   1.00
C931   C     0.05114   0.16506   0.54002   0.00000  Uiso   1.00
C932   C     0.28340   0.17376   0.96149   0.00000  Uiso   1.00
C933   C     0.25435   0.04335   0.81920   0.00000  Uiso   1.00
C934   C     0.24248   0.18309   0.97996   0.00000  Uiso   1.00
C935   C     0.13975   0.28709   0.63864   0.00000  Uiso   1.00
C936   C     0.07629   0.04205   0.68588   0.00000  Uiso   1.00
C937   C     0.18168   0.29589   0.86347   0.00000  Uiso   1.00
C938   C     0.02094   0.12598   0.75257   0.00000  Uiso   1.00
C939   C     0.31236   0.20791   0.74815   0.00000  Uiso   1.00
C940   C     0.31188   0.12604   0.75123   0.00000  Uiso   1.00
C941   C     0.02150   0.20780   0.74820   0.00000  Uiso   1.00
C942   C     0.29088   0.16697   0.74964   0.00000  Uiso   1.00
H943   H     0.03669   0.09409   0.75527   0.00000  Uiso   1.00
H944   H     0.02228   0.20933   0.90736   0.00000  Uiso   1.00
H945   H     0.07638   0.22251   0.91297   0.00000  Uiso   1.00
H946   H     0.04303   0.23140   0.95966   0.00000  Uiso   1.00
H947   H     0.30256   0.19712   0.54530   0.00000  Uiso   1.00
H948   H     0.30350   0.27532   0.56266   0.00000  Uiso   1.00
H949   H     0.24862   0.27785   0.55166   0.00000  Uiso   1.00
H950   H     0.28362   0.26944   0.50611   0.00000  Uiso   1.00
H951   H     0.04569   0.19366   0.56156   0.00000  Uiso   1.00
H952   H     0.30980   0.19409   0.97151   0.00000  Uiso   1.00
H953   H     0.19565   0.05211   0.84583   0.00000  Uiso   1.00
H954   H     0.29651   0.23988   0.74674   0.00000  Uiso   1.00
H955   H     0.26236   0.02109   0.84780   0.00000  Uiso   1.00
H956   H     0.26940   0.07652   0.82537   0.00000  Uiso   1.00
H957   H     0.26661   0.02865   0.78816   0.00000  Uiso   1.00
H958   H     0.09244   0.28529   0.68498   0.00000  Uiso   1.00
H959   H     0.12920   0.31831   0.62192   0.00000  Uiso   1.00
H960   H     0.12762   0.25827   0.61860   0.00000  Uiso   1.00
H961   H     0.17405   0.28579   0.63924   0.00000  Uiso   1.00
H962   H     0.13359   0.05240   0.65546   0.00000  Uiso   1.00
H963   H     0.06630   0.02092   0.65699   0.00000  Uiso   1.00
H964   H     0.06110   0.07516   0.68226   0.00000  Uiso   1.00
H965   H     0.29574   0.09407   0.75153   0.00000  Uiso   1.00
H966   H     0.06591   0.02616   0.71727   0.00000  Uiso   1.00
H967   H     0.23336   0.28405   0.82375   0.00000  Uiso   1.00
H968   H     0.20312   0.31464   0.88636   0.00000  Uiso   1.00
H969   H     0.17289   0.26405   0.87989   0.00000  Uiso   1.00
H970   H     0.15292   0.31567   0.85832   0.00000  Uiso   1.00
H971   H     0.03776   0.23974   0.74657   0.00000  Uiso   1.00
H972   H     0.24634   0.18929   0.84953   0.00000  Uiso   1.00
H973   H     0.08007   0.10748   0.60391   0.00000  Uiso   1.00
H974   H     0.08797   0.09356   0.89882   0.00000  Uiso   1.00
H975   H     0.26701   0.16276   0.61935   0.00000  Uiso   1.00
H976   H     0.03133   0.14593   0.95581   0.00000  Uiso   1.00
N977   N     0.16667   0.28573   0.75000   0.00000  Uiso   1.00
N978   N     0.16667   0.04760   0.75000   0.00000  Uiso   1.00
N979   N     0.05687   0.16363   0.94610   0.00000  Uiso   1.00
N980   N     0.27487   0.21339   0.54794   0.00000  Uiso   1.00
N981   N     0.21011   0.04943   0.81577   0.00000  Uiso   1.00
N982   N     0.12412   0.28403   0.68336   0.00000  Uiso   1.00
N983   N     0.12065   0.04849   0.68622   0.00000  Uiso   1.00
N984   N     0.20166   0.28639   0.82169   0.00000  Uiso   1.00
O985   O     0.10559   0.20487   0.74999   0.00000  Uiso   1.00
O986   O     0.08034   0.15762   0.64798   0.00000  Uiso   1.00
O987   O     0.08652   0.13463   0.84660   0.00000  Uiso   1.00
O988   O     0.24546   0.21692   0.64996   0.00000  Uiso   1.00
O989   O     0.02437   0.13620   0.53506   0.00000  Uiso   1.00
O990   O     0.28791   0.14233   0.93584   0.00000  Uiso   1.00
O991   O     0.22774   0.12846   0.75000   0.00000  Uiso   1.00
O992   O     0.22774   0.20487   0.75000   0.00000  Uiso   1.00
O993   O     0.10559   0.12846   0.74999   0.00000  Uiso   1.00
O994   O     0.16666   0.20489   0.68392   0.00000  Uiso   1.00
O995   O     0.16667   0.12844   0.81607   0.00000  Uiso   1.00
O996   O     0.16667   0.20489   0.81607   0.00000  Uiso   1.00
O997   O     0.16666   0.12844   0.68392   0.00000  Uiso   1.00
O998   O     0.25679   0.23523   0.89662   0.00000  Uiso   1.00
Zn999  Zn    0.16667   0.21771   0.75000   0.00000  Uiso   1.00
Zn1000 Zn    0.16667   0.11563   0.75000   0.00000  Uiso   1.00
C1001  C     0.41998   0.16662   0.75014   0.00000  Uiso   1.00
C1002  C     0.37579   0.16677   0.75040   0.00000  Uiso   1.00
C1003  C     0.52140   0.02453   0.78228   0.00000  Uiso   1.00
C1004  C     0.47929   0.30896   0.71698   0.00000  Uiso   1.00
C1005  C     0.47783   0.02396   0.71815   0.00000  Uiso   1.00
C1006  C     0.51933   0.30972   0.78377   0.00000  Uiso   1.00
C1007  C     0.49998   0.16679   0.66375   0.00000  Uiso   1.00
C1008  C     0.50095   0.16649   0.83632   0.00000  Uiso   1.00
C1009  C     0.53773   0.18063   0.90747   0.00000  Uiso   1.00
C1010  C     0.46357   0.15778   0.59202   0.00000  Uiso   1.00
C1011  C     0.50216   0.16553   0.88409   0.00000  Uiso   1.00
C1012  C     0.58002   0.16680   0.74985   0.00000  Uiso   1.00
C1013  C     0.50009   0.16801   0.61602   0.00000  Uiso   1.00
C1014  C     0.46756   0.14945   0.90625   0.00000  Uiso   1.00
C1015  C     0.53662   0.18073   0.59532   0.00000  Uiso   1.00
C1016  C     0.46525   0.15769   0.95208   0.00000  Uiso   1.00
C1017  C     0.53726   0.18203   0.54840   0.00000  Uiso   1.00
C1018  C     0.50156   0.16894   0.97675   0.00000  Uiso   1.00
C1019  C     0.50055   0.17102   0.52355   0.00000  Uiso   1.00
C1020  C     0.53896   0.17706   0.95450   0.00000  Uiso   1.00
C1021  C     0.46272   0.16235   0.54526   0.00000  Uiso   1.00
C1022  C     0.42684   0.15823   0.97284   0.00000  Uiso   1.00
C1023  C     0.42528   0.15987   0.51945   0.00000  Uiso   1.00
C1024  C     0.57383   0.19243   0.52551   0.00000  Uiso   1.00
C1025  C     0.57179   0.20203   0.88210   0.00000  Uiso   1.00
C1026  C     0.42794   0.13835   0.61598   0.00000  Uiso   1.00
C1027  C     0.43440   0.12282   0.88258   0.00000  Uiso   1.00
C1028  C     0.57499   0.18596   0.62337   0.00000  Uiso   1.00
C1029  C     0.38264   0.20915   0.93088   0.00000  Uiso   1.00
C1030  C     0.61103   0.26153   0.54159   0.00000  Uiso   1.00
C1031  C     0.38447   0.16506   0.54002   0.00000  Uiso   1.00
C1032  C     0.61673   0.17376   0.96149   0.00000  Uiso   1.00
C1033  C     0.58769   0.04335   0.81920   0.00000  Uiso   1.00
C1034  C     0.57581   0.18309   0.97996   0.00000  Uiso   1.00
C1035  C     0.47308   0.28709   0.63864   0.00000  Uiso   1.00
C1036  C     0.40963   0.04205   0.68588   0.00000  Uiso   1.00
C1037  C     0.51501   0.29589   0.86347   0.00000  Uiso   1.00
C1038  C     0.35427   0.12598   0.75257   0.00000  Uiso   1.00
C1039  C     0.64570   0.20791   0.74815   0.00000  Uiso   1.00
C1040  C     0.64522   0.12604   0.75123   0.00000  Uiso   1.00
C1041  C     0.35483   0.20780   0.74820   0.00000  Uiso   1.00
C1042  C     0.62422   0.16697   0.74964   0.00000  Uiso   1.00
H1043  H     0.37002   0.09409   0.75527   0.00000  Uiso   1.00
H1044  H     0.35561   0.20933   0.90736   0.00000  Uiso   1.00
H1045  H     0.40971   0.22251   0.91297   0.00000  Uiso   1.00
H1046  H     0.37636   0.23140   0.95966   0.00000  Uiso   1.00
H1047  H     0.63590   0.19712   0.54530   0.00000  Uiso   1.00
H1048  H     0.63683   0.27532   0.56266   0.00000  Uiso   1.00
H1049  H     0.58195   0.27785   0.55166   0.00000  Uiso   1.00
H1050  H     0.61695   0.26944   0.50611   0.00000  Uiso   1.00
H1051  H     0.37903   0.19366   0.56156   0.00000  Uiso   1.00
H1052  H     0.64313   0.19409   0.97151   0.00000  Uiso   1.00
H1053  H     0.52899   0.05211   0.84583   0.00000  Uiso   1.00
H1054  H     0.62984   0.23988   0.74674   0.00000  Uiso   1.00
H1055  H     0.59569   0.02109   0.84780   0.00000  Uiso   1.00
H1056  H     0.60273   0.07652   0.82537   0.00000  Uiso   1.00
H1057  H     0.59994   0.02865   0.78816   0.00000  Uiso   1.00
H1058  H     0.42577   0.28529   0.68498   0.00000  Uiso   1.00
H1059  H     0.46253   0.31831   0.62192   0.00000  Uiso   1.00
H1060  H     0.46095   0.25827   0.61860   0.00000  Uiso   1.00
H1061  H     0.50739   0.28579   0.63924   0.00000  Uiso   1.00
H1062  H     0.46692   0.05240   0.65546   0.00000  Uiso   1.00
H1063  H     0.39963   0.02092   0.65699   0.00000  Uiso   1.00
H1064  H     0.39444   0.07516   0.68226   0.00000  Uiso   1.00
H1065  H     0.62907   0.09407   0.75153   0.00000  Uiso   1.00
H1066  H     0.39924   0.02616   0.71727   0.00000  Uiso   1.00
H1067  H     0.56669   0.28405   0.82375   0.00000  Uiso   1.00
H1068  H     0.53645   0.31464   0.88636   0.00000  Uiso   1.00
H1069  H     0.50622   0.26405   0.87989   0.00000  Uiso   1.00
H1070  H     0.48625   0.31567   0.85832   0.00000  Uiso   1.00
H1071  H     0.37109   0.23974   0.74657   0.00000  Uiso   1.00
H1072  H     0.57968   0.18929   0.84953   0.00000  Uiso   1.00
H1073  H     0.41341   0.10748   0.60391   0.00000  Uiso   1.00
H1074  H     0.42130   0.09356   0.89882   0.00000  Uiso   1.00
H1075  H     0.60034   0.16276   0.61935   0.00000  Uiso   1.00
H1076  H     0.36466   0.14593   0.95581   0.00000  Uiso   1.00
N1077  N     0.50000   0.28573   0.75000   0.00000  Uiso   1.00
N1078  N     0.50000   0.04760   0.75000   0.00000  Uiso   1.00
N1079  N     0.39020   0.16363   0.94610   0.00000  Uiso   1.00
N1080  N     0.60821   0.21339   0.54794   0.00000  Uiso   1.00
N1081  N     0.54344   0.04943   0.81577   0.00000  Uiso   1.00
N1082  N     0.45745   0.28403   0.68336   0.00000  Uiso   1.00
N1083  N     0.45398   0.04849   0.68622   0.00000  Uiso   1.00
N1084  N     0.53500   0.28639   0.82169   0.00000  Uiso   1.00
O1085  O     0.43892   0.20487   0.74999   0.00000  Uiso   1.00
O1086  O     0.41367   0.15762   0.64798   0.00000  Uiso   1.00
O1087  O     0.41985   0.13463   0.84660   0.00000  Uiso   1.00
O1088  O     0.57879   0.21692   0.64996   0.00000  Uiso   1.00
O1089  O     0.35770   0.13620   0.53506   0.00000  Uiso   1.00
O1090  O     0.62125   0.14233   0.93584   0.00000  Uiso   1.00
O1091  O     0.56108   0.12846   0.75000   0.00000  Uiso   1.00
O1092  O     0.56108   0.20487   0.75000   0.00000  Uiso   1.00
O1093  O     0.43892   0.12846   0.74999   0.00000  Uiso   1.00
O1094  O     0.49999   0.20489   0.68392   0.00000  Uiso   1.00
O1095  O     0.50001   0.12844   0.81607   0.00000  Uiso   1.00
O1096  O     0.50001   0.20489   0.81607   0.00000  Uiso   1.00
O1097  O     0.49999   0.12844   0.68392   0.00000  Uiso   1.00
O1098  O     0.59012   0.23523   0.89662   0.00000  Uiso   1.00
Zn1099 Zn    0.50000   0.21771   0.75000   0.00000  Uiso   1.00
Zn1100 Zn    0.50000   0.11563   0.75000   0.00000  Uiso   1.00
C1101  C     0.75332   0.16662   0.75014   0.00000  Uiso   1.00
C1102  C     0.70912   0.16677   0.75040   0.00000  Uiso   1.00
C1103  C     0.85474   0.02453   0.78228   0.00000  Uiso   1.00
C1104  C     0.81262   0.30896   0.71698   0.00000  Uiso   1.00
C1105  C     0.81116   0.02396   0.71815   0.00000  Uiso   1.00
C1106  C     0.85267   0.30972   0.78377   0.00000  Uiso   1.00
C1107  C     0.83332   0.16679   0.66375   0.00000  Uiso   1.00
C1108  C     0.83428   0.16649   0.83632   0.00000  Uiso   1.00
C1109  C     0.87106   0.18063   0.90747   0.00000  Uiso   1.00
C1110  C     0.79690   0.15778   0.59202   0.00000  Uiso   1.00
C1111  C     0.83549   0.16553   0.88409   0.00000  Uiso   1.00
C1112  C     0.91335   0.16680   0.74985   0.00000  Uiso   1.00
C1113  C     0.83342   0.16801   0.61602   0.00000  Uiso   1.00
C1114  C     0.80090   0.14945   0.90625   0.00000  Uiso   1.00
C1115  C     0.86995   0.18073   0.59532   0.00000  Uiso   1.00
C1116  C     0.79858   0.15769   0.95208   0.00000  Uiso   1.00
C1117  C     0.87060   0.18203   0.54840   0.00000  Uiso   1.00
C1118  C     0.83490   0.16894   0.97675   0.00000  Uiso   1.00
C1119  C     0.83388   0.17102   0.52355   0.00000  Uiso   1.00
C1120  C     0.87229   0.17706   0.95450   0.00000  Uiso   1.00
C1121  C     0.79605   0.16235   0.54526   0.00000  Uiso   1.00
C1122  C     0.76017   0.15823   0.97284   0.00000  Uiso   1.00
C1123  C     0.75861   0.15987   0.51945   0.00000  Uiso   1.00
C1124  C     0.90716   0.19243   0.52551   0.00000  Uiso   1.00
C1125  C     0.90512   0.20203   0.88210   0.00000  Uiso   1.00
C1126  C     0.76127   0.13835   0.61598   0.00000  Uiso   1.00
C1127  C     0.76774   0.12282   0.88258   0.00000  Uiso   1.00
C1128  C     0.90832   0.18596   0.62337   0.00000  Uiso   1.00
C1129  C     0.71597   0.20915   0.93088   0.00000  Uiso   1.00
C1130  C     0.94437   0.26153   0.54159   0.00000  Uiso   1.00
C1131  C     0.71780   0.16506   0.54002   0.00000  Uiso   1.00
C1132  C     0.95006   0.17376   0.96149   0.00000  Uiso   1.00
C1133  C     0.92102   0.04335   0.81920   0.00000  Uiso   1.00
C1134  C     0.90914   0.18309   0.97996   0.00000  Uiso   1.00
C1135  C     0.80642   0.28709   0.63864   0.00000  Uiso   1.00
C1136  C     0.74296   0.04205   0.68588   0.00000  Uiso   1.00
C1137  C     0.84834   0.29589   0.86347   0.00000  Uiso   1.00
C1138  C     0.68760   0.12598   0.75257   0.00000  Uiso   1.00
C1139  C     0.97903   0.20791   0.74815   0.00000  Uiso   1.00
C1140  C     0.97855   0.12604   0.75123   0.00000  Uiso   1.00
C1141  C     0.68816   0.20780   0.74820   0.00000  Uiso   1.00
C1142  C     0.95755   0.16697   0.74964   0.00000  Uiso   1.00
H1143  H     0.70336   0.09409   0.75527   0.00000  Uiso   1.00
H1144  H     0.68894   0.20933   0.90736   0.00000  Uiso   1.00
H1145  H     0.74304   0.22251   0.91297   0.00000  Uiso   1.00
H1146  H     0.70969   0.23140   0.95966   0.00000  Uiso   1.00
H1147  H     0.96923   0.19712   0.54530   0.00000  Uiso   1.00
H1148  H     0.97017   0.27532   0.56266   0.00000  Uiso   1.00
H1149  H     0.91528   0.27785   0.55166   0.00000  Uiso   1.00
H1150  H     0.95028   0.26944   0.50611   0.00000  Uiso   1.00
H1151  H     0.71236   0.19366   0.56156   0.00000  Uiso   1.00
H1152  H     0.97646   0.19409   0.97151   0.00000  Uiso   1.00
H1153  H     0.86232   0.05211   0.84583   0.00000  Uiso   1.00
H1154  H     0.96317   0.23988   0.74674   0.00000  Uiso   1.00
H1155  H     0.92903   0.02109   0.84780   0.00000  Uiso   1.00
H1156  H     0.93606   0.07652   0.82537   0.00000  Uiso   1.00
H1157  H     0.93327   0.02865   0.78816   0.00000  Uiso   1.00
H1158  H     0.75910   0.28529   0.68498   0.00000  Uiso   1.00
H1159  H     0.79587   0.31831   0.62192   0.00000  Uiso   1.00
H1160  H     0.79428   0.25827   0.61860   0.00000  Uiso   1.00
H1161  H     0.84072   0.28579   0.63924   0.00000  Uiso   1.00
H1162  H     0.80026   0.05240   0.65546   0.00000  Uiso   1.00
H1163  H     0.73297   0.02092   0.65699   0.00000  Uiso   1.00
H1164  H     0.72777   0.07516   0.68226   0.00000  Uiso   1.00
H1165  H     0.96240   0.09407   0.75153   0.00000  Uiso   1.00
H1166  H     0.73257   0.02616   0.71727   0.00000  Uiso   1.00
H1167  H     0.90003   0.28405   0.82375   0.00000  Uiso   1.00
H1168  H     0.86979   0.31464   0.88636   0.00000  Uiso   1.00
H1169  H     0.83955   0.26405   0.87989   0.00000  Uiso   1.00
H1170  H     0.81959   0.31567   0.85832   0.00000  Uiso   1.00
H1171  H     0.70443   0.23974   0.74657   0.00000  Uiso   1.00
H1172  H     0.91301   0.18929   0.84953   0.00000  Uiso   1.00
H1173  H     0.74674   0.10748   0.60391   0.00000  Uiso   1.00
H1174  H     0.75463   0.09356   0.89882   0.00000  Uiso   1.00
H1175  H     0.93368   0.16276   0.61935   0.00000  Uiso   1.00
H1176  H     0.69799   0.14593   0.95581   0.00000  Uiso   1.00
N1177  N     0.83333   0.28573   0.75000   0.00000  Uiso   1.00
N1178  N     0.83333   0.04760   0.75000   0.00000  Uiso   1.00
N1179  N     0.72353   0.16363   0.94610   0.00000  Uiso   1.00
N1180  N     0.94154   0.21339   0.54794   0.00000  Uiso   1.00
N1181  N     0.87678   0.04943   0.81577   0.00000  Uiso   1.00
N1182  N     0.79078   0.28403   0.68336   0.00000  Uiso   1.00
N1183  N     0.78731   0.04849   0.68622   0.00000  Uiso   1.00
N1184  N     0.86833   0.28639   0.82169   0.00000  Uiso   1.00
O1185  O     0.77226   0.20487   0.74999   0.00000  Uiso   1.00
O1186  O     0.74701   0.15762   0.64798   0.00000  Uiso   1.00
O1187  O     0.75318   0.13463   0.84660   0.00000  Uiso   1.00
O1188  O     0.91212   0.21692   0.64996   0.00000  Uiso   1.00
O1189  O     0.69104   0.13620   0.53506   0.00000  Uiso   1.00
O1190  O     0.95458   0.14233   0.93584   0.00000  Uiso   1.00
O1191  O     0.89441   0.12846   0.75000   0.00000  Uiso   1.00
O1192  O     0.89441   0.20487   0.75000   0.00000  Uiso   1.00
O1193  O     0.77226   0.12846   0.74999   0.00000  Uiso   1.00
O1194  O     0.83333   0.20489   0.68392   0.00000  Uiso   1.00
O1195  O     0.83334   0.12844   0.81607   0.00000  Uiso   1.00
O1196  O     0.83334   0.20489   0.81607   0.00000  Uiso   1.00
O1197  O     0.83333   0.12844   0.68392   0.00000  Uiso   1.00
O1198  O     0.92345   0.23523   0.89662   0.00000  Uiso   1.00
Zn1199 Zn    0.83333   0.21771   0.75000   0.00000  Uiso   1.00
Zn1200 Zn    0.83333   0.11563   0.75000   0.00000  Uiso   1.00
C1201  C     0.08665   0.49995   0.75014   0.00000  Uiso   1.00
C1202  C     0.04245   0.50010   0.75040   0.00000  Uiso   1.00
C1203  C     0.18807   0.35786   0.78228   0.00000  Uiso   1.00
C1204  C     0.14595   0.64230   0.71698   0.00000  Uiso   1.00
C1205  C     0.14450   0.35730   0.71815   0.00000  Uiso   1.00
C1206  C     0.18600   0.64306   0.78377   0.00000  Uiso   1.00
C1207  C     0.16665   0.50013   0.66375   0.00000  Uiso   1.00
C1208  C     0.16762   0.49982   0.83632   0.00000  Uiso   1.00
C1209  C     0.20440   0.51396   0.90747   0.00000  Uiso   1.00
C1210  C     0.13024   0.49111   0.59202   0.00000  Uiso   1.00
C1211  C     0.16882   0.49886   0.88409   0.00000  Uiso   1.00
C1212  C     0.24668   0.50013   0.74985   0.00000  Uiso   1.00
C1213  C     0.16675   0.50134   0.61602   0.00000  Uiso   1.00
C1214  C     0.13423   0.48279   0.90625   0.00000  Uiso   1.00
C1215  C     0.20328   0.51406   0.59532   0.00000  Uiso   1.00
C1216  C     0.13191   0.49103   0.95208   0.00000  Uiso   1.00
C1217  C     0.20393   0.51536   0.54840   0.00000  Uiso   1.00
C1218  C     0.16823   0.50227   0.97675   0.00000  Uiso   1.00
C1219  C     0.16721   0.50436   0.52355   0.00000  Uiso   1.00
C1220  C     0.20563   0.51039   0.95450   0.00000  Uiso   1.00
C1221  C     0.12939   0.49569   0.54526   0.00000  Uiso   1.00
C1222  C     0.09351   0.49157   0.97284   0.00000  Uiso   1.00
C1223  C     0.09194   0.49320   0.51945   0.00000  Uiso   1.00
C1224  C     0.24049   0.52577   0.52551   0.00000  Uiso   1.00
C1225  C     0.23845   0.53537   0.88210   0.00000  Uiso   1.00
C1226  C     0.09460   0.47169   0.61598   0.00000  Uiso   1.00
C1227  C     0.10107   0.45615   0.88258   0.00000  Uiso   1.00
C1228  C     0.24166   0.51929   0.62337   0.00000  Uiso   1.00
C1229  C     0.04931   0.54248   0.93088   0.00000  Uiso   1.00
C1230  C     0.27770   0.59486   0.54159   0.00000  Uiso   1.00
C1231  C     0.05114   0.49840   0.54002   0.00000  Uiso   1.00
C1232  C     0.28340   0.50709   0.96149   0.00000  Uiso   1.00
C1233  C     0.25435   0.37668   0.81920   0.00000  Uiso   1.00
C1234  C     0.24248   0.51643   0.97996   0.00000  Uiso   1.00
C1235  C     0.13975   0.62043   0.63864   0.00000  Uiso   1.00
C1236  C     0.07629   0.37539   0.68588   0.00000  Uiso   1.00
C1237  C     0.18168   0.62922   0.86347   0.00000  Uiso   1.00
C1238  C     0.02094   0.45931   0.75257   0.00000  Uiso   1.00
C1239  C     0.31236   0.54124   0.74815   0.00000  Uiso   1.00
C1240  C     0.31188   0.45937   0.75123   0.00000  Uiso   1.00
C1241  C     0.02150   0.54114   0.74820   0.00000  Uiso   1.00
C1242  C     0.29088   0.50030   0.74964   0.00000  Uiso   1.00
H1243  H     0.03669   0.42742   0.75527   0.00000  Uiso   1.00
H1244  H     0.02228   0.54267   0.90736   0.00000  Uiso   1.00
H1245  H     0.07638   0.55584   0.91297   0.00000  Uiso   1.00
H1246  H     0.04303   0.56473   0.95966   0.00000  Uiso   1.00
H1247  H     0.30256   0.53045   0.54530   0.00000  Uiso   1.00
H1248  H     0.30350   0.60866   0.56266   0.00000  Uiso   1.00
H1249  H     0.24862   0.61118   0.55166   0.00000  Uiso   1.00
H1250  H     0.28362   0.60278   0.50611   0.00000  Uiso   1.00
H1251  H     0.04569   0.52699   0.56156   0.00000  Uiso   1.00
H1252  H     0.30980   0.52742   0.97151   0.00000  Uiso   1.00
H1253  H     0.19565   0.38545   0.84583   0.00000  Uiso   1.00
H1254  H     0.29651   0.57321   0.74674   0.00000  Uiso   1.00
H1255  H     0.26236   0.35442   0.84780   0.00000  Uiso   1.00
H1256  H     0.26940   0.40986   0.82537   0.00000  Uiso   1.00
H1257  H     0.26661   0.36199   0.78816   0.00000  Uiso   1.00
H1258  H     0.09244   0.61862   0.68498   0.00000  Uiso   1.00
H1259  H     0.12920   0.65164   0.62192   0.00000  Uiso   1.00
H1260  H     0.12762   0.59160   0.61860   0.00000  Uiso   1.00
H1261  H     0.17405   0.61912   0.63924   0.00000  Uiso   1.00
H1262  H     0.13359   0.38573   0.65546   0.00000  Uiso   1.00
H1263  H     0.06630   0.35425   0.65699   0.00000  Uiso   1.00
H1264  H     0.06110   0.40849   0.68226   0.00000  Uiso   1.00
H1265  H     0.29574   0.42741   0.75153   0.00000  Uiso   1.00
H1266  H     0.06591   0.35949   0.71727   0.00000  Uiso   1.00
H1267  H     0.23336   0.61738   0.82375   0.00000  Uiso   1.00
H1268  H     0.20312   0.64797   0.88636   0.00000  Uiso   1.00
H1269  H     0.17289   0.59738   0.87989   0.00000  Uiso   1.00
H1270  H     0.15292   0.64901   0.85832   0.00000  Uiso   1.00
H1271  H     0.03776   0.57308   0.74657   0.00000  Uiso   1.00
H1272  H     0.24634   0.52262   0.84953   0.00000  Uiso   1.00
H1273  H     0.08007   0.44082   0.60391   0.00000  Uiso   1.00
H1274  H     0.08797   0.42689   0.89882   0.00000  Uiso   1.00
H1275  H     0.26701   0.49609   0.61935   0.00000  Uiso   1.00
H1276  H     0.03133   0.47926   0.95581   0.00000  Uiso   1.00
N1277  N     0.16667   0.61907   0.75000   0.00000  Uiso   1.00
N1278  N     0.16667   0.38093   0.75000   0.00000  Uiso   1.00
N1279  N     0.05687   0.49696   0.94610   0.00000  Uiso   1.00
N1280  N     0.27487   0.54672   0.54794   0.00000  Uiso   1.00
N1281  N     0.21011   0.38277   0.81577   0.00000  Uiso   1.00
N1282  N     0.12412   0.61737   0.68336   0.00000  Uiso   1.00
N1283  N     0.12065   0.38182   0.68622   0.00000  Uiso   1.00
N1284  N     0.20166   0.61972   0.82169   0.00000  Uiso   1.00
O1285  O     0.10559   0.53821   0.74999   0.00000  Uiso   1.00
O1286  O     0.08034   0.49095   0.64798   0.00000  Uiso   1.00
O1287  O     0.08652   0.46796   0.84660   0.00000  Uiso   1.00
O1288  O     0.24546   0.55025   0.64996   0.00000  Uiso   1.00
O1289  O     0.02437   0.46953   0.53506   0.00000  Uiso   1.00
O1290  O     0.28791   0.47566   0.93584   0.00000  Uiso   1.00
O1291  O     0.22774   0.46179   0.75000   0.00000  Uiso   1.00
O1292  O     0.22774   0.53821   0.75000   0.00000  Uiso   1.00
O1293  O     0.10559   0.46179   0.74999   0.00000  Uiso   1.00
O1294  O     0.16666   0.53823   0.68392   0.00000  Uiso   1.00
O1295  O     0.16667   0.46177   0.81607   0.00000  Uiso   1.00
O1296  O     0.16667   0.53823   0.81607   0.00000  Uiso   1.00
O1297  O     0.16666   0.46177   0.68392   0.00000  Uiso   1.00
O1298  O     0.25679   0.56856   0.89662   0.00000  Uiso   1.00
Zn1299 Zn    0.16667   0.55104   0.75000   0.00000  Uiso   1.00
Zn1300 Zn    0.16667   0.44896   0.75000   0.00000  Uiso   1.00
C1301  C     0.41998   0.49995   0.75014   0.00000  Uiso   1.00
C1302  C     0.37579   0.50010   0.75040   0.00000  Uiso   1.00
C1303  C     0.52140   0.35786   0.78228   0.00000  Uiso   1.00
C1304  C     0.47929   0.64230   0.71698   0.00000  Uiso   1.00
C1305  C     0.47783   0.35730   0.71815   0.00000  Uiso   1.00
C1306  C     0.51933   0.64306   0.78377   0.00000  Uiso   1.00
C1307  C     0.49998   0.50013   0.66375   0.00000  Uiso   1.00
C1308  C     0.50095   0.49982   0.83632   0.00000  Uiso   1.00
C1309  C     0.53773   0.51396   0.90747   0.00000  Uiso   1.00
C1310  C     0.46357   0.49111   0.59202   0.00000  Uiso   1.00
C1311  C     0.50216   0.49886   0.88409   0.00000  Uiso   1.00
C1312  C     0.58002   0.50013   0.74985   0.00000  Uiso   1.00
C1313  C     0.50009   0.50134   0.61602   0.00000  Uiso   1.00
C1314  C     0.46756   0.48279   0.90625   0.00000  Uiso   1.00
C1315  C     0.53662   0.51406   0.59532   0.00000  Uiso   1.00
C1316  C     0.46525   0.49103   0.95208   0.00000  Uiso   1.00
C1317  C     0.53726   0.51536   0.54840   0.00000  Uiso   1.00
C1318  C     0.50156   0.50227   0.97675   0.00000  Uiso   1.00
C1319  C     0.50055   0.50436   0.52355   0.00000  Uiso   1.00
C1320  C     0.53896   0.51039   0.95450   0.00000  Uiso   1.00
C1321  C     0.46272   0.49569   0.54526   0.00000  Uiso   1.00
C1322  C     0.42684   0.49157   0.97284   0.00000  Uiso   1.00
C1323  C     0.42528   0.49320   0.51945   0.00000  Uiso   1.00
C1324  C     0.57383   0.52577   0.52551   0.00000  Uiso   1.00
C1325  C     0.57179   0.53537   0.88210   0.00000  Uiso   1.00
C1326  C     0.42794   0.47169   0.61598   0.00000  Uiso   1.00
C1327  C     0.43440   0.45615   0.88258   0.00000  Uiso   1.00
C1328  C     0.57499   0.51929   0.62337   0.00000  Uiso   1.00
C1329  C     0.38264   0.54248   0.93088   0.00000  Uiso   1.00
C1330  C     0.61103   0.59486   0.54159   0.00000  Uiso   1.00
C1331  C     0.38447   0.49840   0.54002   0.00000  Uiso   1.00
C1332  C     0.61673   0.50709   0.96149   0.00000  Uiso   1.00
C1333  C     0.58769   0.37668   0.81920   0.00000  Uiso   1.00
C1334  C     0.57581   0.51643   0.97996   0.00000  Uiso   1.00
C1335  C     0.47308   0.62043   0.63864   0.00000  Uiso   1.00
C1336  C     0.40963   0.37539   0.68588   0.00000  Uiso   1.00
C1337  C     0.51501   0.62922   0.86347   0.00000  Uiso   1.00
C1338  C     0.35427   0.45931   0.75257   0.00000  Uiso   1.00
C1339  C     0.64570   0.54124   0.74815   0.00000  Uiso   1.00
C1340  C     0.64522   0.45937   0.75123   0.00000  Uiso   1.00
C1341  C     0.35483   0.54114   0.74820   0.00000  Uiso   1.00
C1342  C     0.62422   0.50030   0.74964   0.00000  Uiso   1.00
H1343  H     0.37002   0.42742   0.75527   0.00000  Uiso   1.00
H1344  H     0.35561   0.54267   0.90736   0.00000  Uiso   1.00
H1345  H     0.40971   0.55584   0.91297   0.00000  Uiso   1.00
H1346  H     0.37636   0.56473   0.95966   0.00000  Uiso   1.00
H1347  H     0.63590   0.53045   0.54530   0.00000  Uiso   1.00
H1348  H     0.63683   0.60866   0.56266   0.00000  Uiso   1.00
H1349  H     0.58195   0.61118   0.55166   0.00000  Uiso   1.00
H1350  H     0.61695   0.60278   0.50611   0.00000  Uiso   1.00
H1351  H     0.37903   0.52699   0.56156   0.00000  Uiso   1.00
H1352  H     0.64313   0.52742   0.97151   0.00000  Uiso   1.00
H1353  H     0.52899   0.38545   0.84583   0.00000  Uiso   1.00
H1354  H     0.62984   0.57321   0.74674   0.00000  Uiso   1.00
H1355  H     0.59569   0.35442   0.84780   0.00000  Uiso   1.00
H1356  H     0.60273   0.40986   0.82537   0.00000  Uiso   1.00
H1357  H     0.59994   0.36199   0.78816   0.00000  Uiso   1.00
H1358  H     0.42577   0.61862   0.68498   0.00000  Uiso   1.00
H1359  H     0.46253   0.65164   0.62192   0.00000  Uiso   1.00
H1360  H     0.46095   0.59160   0.61860   0.00000  Uiso   1.00
H1361  H     0.50739   0.61912   0.63924   0.00000  Uiso   1.00
H1362  H     0.46692   0.38573   0.65546   0.00000  Uiso   1.00
H1363  H     0.39963   0.35425   0.65699   0.00000  Uiso   1.00
H1364  H     0.39444   0.40849   0.68226   0.00000  Uiso   1.00
H1365  H     0.62907   0.42741   0.75153   0.00000  Uiso   1.00
H1366  H     0.39924   0.35949   0.71727   0.00000  Uiso   1.00
H1367  H     0.56669   0.61738   0.82375   0.00000  Uiso   1.00
H1368  H     0.53645   0.64797   0.88636   0.00000  Uiso   1.00
H1369  H     0.50622   0.59738   0.87989   0.00000  Uiso   1.00
H1370  H     0.48625   0.64901   0.85832   0.00000  Uiso   1.00
H1371  H     0.37109   0.57308   0.74657   0.00000  Uiso   1.00
H1372  H     0.57968   0.52262   0.84953   0.00000  Uiso   1.00
H1373  H     0.41341   0.44082   0.60391   0.00000  Uiso   1.00
H1374  H     0.42130   0.42689   0.89882   0.00000  Uiso   1.00
H1375  H     0.60034   0.49609   0.61935   0.00000  Uiso   1.00
H1376  H     0.36466   0.47926   0.95581   0.00000  Uiso   1.00
N1377  N     0.50000   0.61907   0.75000   0.00000  Uiso   1.00
N1378  N     0.50000   0.38093   0.75000   0.00000  Uiso   1.00
N1379  N     0.39020   0.49696   0.94610   0.00000  Uiso   1.00
N1380  N     0.60821   0.54672   0.54794   0.00000  Uiso   1.00
N1381  N     0.54344   0.38277   0.81577   0.00000  Uiso   1.00
N1382  N     0.45745   0.61737   0.68336   0.00000  Uiso   1.00
N1383  N     0.45398   0.38182   0.68622   0.00000  Uiso   1.00
N1384  N     0.53500   0.61972   0.82169   0.00000  Uiso   1.00
O1385  O     0.43892   0.53821   0.74999   0.00000  Uiso   1.00
O1386  O     0.41367   0.49095   0.64798   0.00000  Uiso   1.00
O1387  O     0.41985   0.46796   0.84660   0.00000  Uiso   1.00
O1388  O     0.57879   0.55025   0.64996   0.00000  Uiso   1.00
O1389  O     0.35770   0.46953   0.53506   0.00000  Uiso   1.00
O1390  O     0.62125   0.47566   0.93584   0.00000  Uiso   1.00
O1391  O     0.56108   0.46179   0.75000   0.00000  Uiso   1.00
O1392  O     0.56108   0.53821   0.75000   0.00000  Uiso   1.00
O1393  O     0.43892   0.46179   0.74999   0.00000  Uiso   1.00
O1394  O     0.49999   0.53823   0.68392   0.00000  Uiso   1.00
O1395  O     0.50001   0.46177   0.81607   0.00000  Uiso   1.00
O1396  O     0.50001   0.53823   0.81607   0.00000  Uiso   1.00
O1397  O     0.49999   0.46177   0.68392   0.00000  Uiso   1.00
O1398  O     0.59012   0.56856   0.89662   0.00000  Uiso   1.00
Zn1399 Zn    0.50000   0.55104   0.75000   0.00000  Uiso   1.00
Zn1400 Zn    0.50000   0.44896   0.75000   0.00000  Uiso   1.00
C1401  C     0.75332   0.49995   0.75014   0.00000  Uiso   1.00
C1402  C     0.70912   0.50010   0.75040   0.00000  Uiso   1.00
C1403  C     0.85474   0.35786   0.78228   0.00000  Uiso   1.00
C1404  C     0.81262   0.64230   0.71698   0.00000  Uiso   1.00
C1405  C     0.81116   0.35730   0.71815   0.00000  Uiso   1.00
C1406  C     0.85267   0.64306   0.78377   0.00000  Uiso   1.00
C1407  C     0.83332   0.50013   0.66375   0.00000  Uiso   1.00
C1408  C     0.83428   0.49982   0.83632   0.00000  Uiso   1.00
C1409  C     0.87106   0.51396   0.90747   0.00000  Uiso   1.00
C1410  C     0.79690   0.49111   0.59202   0.00000  Uiso   1.00
C1411  C     0.83549   0.49886   0.88409   0.00000  Uiso   1.00
C1412  C     0.91335   0.50013   0.74985   0.00000  Uiso   1.00
C1413  C     0.83342   0.50134   0.61602   0.00000  Uiso   1.00
C1414  C     0.80090   0.48279   0.90625   0.00000  Uiso   1.00
C1415  C     0.86995   0.51406   0.59532   0.00000  Uiso   1.00
C1416  C     0.79858   0.49103   0.95208   0.00000  Uiso   1.00
C1417  C     0.87060   0.51536   0.54840   0.00000  Uiso   1.00
C1418  C     0.83490   0.50227   0.97675   0.00000  Uiso   1.00
C1419  C     0.83388   0.50436   0.52355   0.00000  Uiso   1.00
C1420  C     0.87229   0.51039   0.95450   0.00000  Uiso   1.00
C1421  C     0.79605   0.49569   0.54526   0.00000  Uiso   1.00
C1422  C     0.76017   0.49157   0.97284   0.00000  Uiso   1.00
C1423  C     0.75861   0.49320   0.51945   0.00000  Uiso   1.00
C1424  C     0.90716   0.52577   0.52551   0.00000  Uiso   1.00
C1425  C     0.90512   0.53537   0.88210   0.00000  Uiso   1.00
C1426  C     0.76127   0.47169   0.61598   0.00000  Uiso   1.00
C1427  C     0.76774   0.45615   0.88258   0.00000  Uiso   1.00
C1428  C     0.90832   0.51929   0.62337   0.00000  Uiso   1.00
C1429  C     0.71597   0.54248   0.93088   0.00000  Uiso   1.00
C1430  C     0.94437   0.59486   0.54159   0.00000  Uiso   1.00
C1431  C     0.71780   0.49840   0.54002   0.00000  Uiso   1.00
C1432  C     0.95006   0.50709   0.96149   0.00000  Uiso   1.00
C1433  C     0.92102   0.37668   0.81920   0.00000  Uiso   1.00
C1434  C     0.90914   0.51643   0.97996   0.00000  Uiso   1.00
C1435  C     0.80642   0.62043   0.63864   0.00000  Uiso   1.00
C1436  C     0.74296   0.37539   0.68588   0.00000  Uiso   1.00
C1437  C     0.84834   0.62922   0.86347   0.00000  Uiso   1.00
C1438  C     0.68760   0.45931   0.75257   0.00000  Uiso   1.00
C1439  C     0.97903   0.54124   0.74815   0.00000  Uiso   1.00
C1440  C     0.97855   0.45937   0.75123   0.00000  Uiso   1.00
C1441  C     0.68816   0.54114   0.74820   0.00000  Uiso   1.00
C1442  C     0.95755   0.50030   0.74964   0.00000  Uiso   1.00
H1443  H     0.70336   0.42742   0.75527   0.00000  Uiso   1.00
H1444  H     0.68894   0.54267   0.90736   0.00000  Uiso   1.00
H1445  H     0.74304   0.55584   0.91297   0.00000  Uiso   1.00
H1446  H     0.70969   0.56473   0.95966   0.00000  Uiso   1.00
H1447  H     0.96923   0.53045   0.54530   0.00000  Uiso   1.00
H1448  H     0.97017   0.60866   0.56266   0.00000  Uiso   1.00
H1449  H     0.91528   0.61118   0.55166   0.00000  Uiso   1.00
H1450  H     0.95028   0.60278   0.50611   0.00000  Uiso   1.00
H1451  H     0.71236   0.52699   0.56156   0.00000  Uiso   1.00
H1452  H     0.97646   0.52742   0.97151   0.00000  Uiso   1.00
H1453  H     0.86232   0.38545   0.84583   0.00000  Uiso   1.00
H1454  H     0.96317   0.57321   0.74674   0.00000  Uiso   1.00
H1455  H     0.92903   0.35442   0.84780   0.00000  Uiso   1.00
H1456  H     0.93606   0.40986   0.82537   0.00000  Uiso   1.00
H1457  H     0.93327   0.36199   0.78816   0.00000  Uiso   1.00
H1458  H     0.75910   0.61862   0.68498   0.00000  Uiso   1.00
H1459  H     0.79587   0.65164   0.62192   0.00000  Uiso   1.00
H1460  H     0.79428   0.59160   0.61860   0.00000  Uiso   1.00
H1461  H     0.84072   0.61912   0.63924   0.00000  Uiso   1.00
H1462  H     0.80026   0.38573   0.65546   0.00000  Uiso   1.00
H1463  H     0.73297   0.35425   0.65699   0.00000  Uiso   1.00
H1464  H     0.72777   0.40849   0.68226   0.00000  Uiso   1.00
H1465  H     0.96240   0.42741   0.75153   0.00000  Uiso   1.00
H1466  H     0.73257   0.35949   0.71727   0.00000  Uiso   1.00
H1467  H     0.90003   0.61738   0.82375   0.00000  Uiso   1.00
H1468  H     0.86979   0.64797   0.88636   0.00000  Uiso   1.00
H1469  H     0.83955   0.59738   0.87989   0.00000  Uiso   1.00
H1470  H     0.81959   0.64901   0.85832   0.00000  Uiso   1.00
H1471  H     0.70443   0.57308   0.74657   0.00000  Uiso   1.00
H1472  H     0.91301   0.52262   0.84953   0.00000  Uiso   1.00
H1473  H     0.74674   0.44082   0.60391   0.00000  Uiso   1.00
H1474  H     0.75463   0.42689   0.89882   0.00000  Uiso   1.00
H1475  H     0.93368   0.49609   0.61935   0.00000  Uiso   1.00
H1476  H     0.69799   0.47926   0.95581   0.00000  Uiso   1.00
N1477  N     0.83333   0.61907   0.75000   0.00000  Uiso   1.00
N1478  N     0.83333   0.38093   0.75000   0.00000  Uiso   1.00
N1479  N     0.72353   0.49696   0.94610   0.00000  Uiso   1.00
N1480  N     0.94154   0.54672   0.54794   0.00000  Uiso   1.00
N1481  N     0.87678   0.38277   0.81577   0.00000  Uiso   1.00
N1482  N     0.79078   0.61737   0.68336   0.00000  Uiso   1.00
N1483  N     0.78731   0.38182   0.68622   0.00000  Uiso   1.00
N1484  N     0.86833   0.61972   0.82169   0.00000  Uiso   1.00
O1485  O     0.77226   0.53821   0.74999   0.00000  Uiso   1.00
O1486  O     0.74701   0.49095   0.64798   0.00000  Uiso   1.00
O1487  O     0.75318   0.46796   0.84660   0.00000  Uiso   1.00
O1488  O     0.91212   0.55025   0.64996   0.00000  Uiso   1.00
O1489  O     0.69104   0.46953   0.53506   0.00000  Uiso   1.00
O1490  O     0.95458   0.47566   0.93584   0.00000  Uiso   1.00
O1491  O     0.89441   0.46179   0.75000   0.00000  Uiso   1.00
O1492  O     0.89441   0.53821   0.75000   0.00000  Uiso   1.00
O1493  O     0.77226   0.46179   0.74999   0.00000  Uiso   1.00
O1494  O     0.83333   0.53823   0.68392   0.00000  Uiso   1.00
O1495  O     0.83334   0.46177   0.81607   0.00000  Uiso   1.00
O1496  O     0.83334   0.53823   0.81607   0.00000  Uiso   1.00
O1497  O     0.83333   0.46177   0.68392   0.00000  Uiso   1.00
O1498  O     0.92345   0.56856   0.89662   0.00000  Uiso   1.00
Zn1499 Zn    0.83333   0.55104   0.75000   0.00000  Uiso   1.00
Zn1500 Zn    0.83333   0.44896   0.75000   0.00000  Uiso   1.00
C1501  C     0.08665   0.83328   0.75014   0.00000  Uiso   1.00
C1502  C     0.04245   0.83344   0.75040   0.00000  Uiso   1.00
C1503  C     0.18807   0.69119   0.78228   0.00000  Uiso   1.00
C1504  C     0.14595   0.97563   0.71698   0.00000  Uiso   1.00
C1505  C     0.14450   0.69063   0.71815   0.00000  Uiso   1.00
C1506  C     0.18600   0.97639   0.78377   0.00000  Uiso   1.00
C1507  C     0.16665   0.83346   0.66375   0.00000  Uiso   1.00
C1508  C     0.16762   0.83316   0.83632   0.00000  Uiso   1.00
C1509  C     0.20440   0.84730   0.90747   0.00000  Uiso   1.00
C1510  C     0.13024   0.82444   0.59202   0.00000  Uiso   1.00
C1511  C     0.16882   0.83219   0.88409   0.00000  Uiso   1.00
C1512  C     0.24668   0.83347   0.74985   0.00000  Uiso   1.00
C1513  C     0.16675   0.83468   0.61602   0.00000  Uiso   1.00
C1514  C     0.13423   0.81612   0.90625   0.00000  Uiso   1.00
C1515  C     0.20328   0.84739   0.59532   0.00000  Uiso   1.00
C1516  C     0.13191   0.82436   0.95208   0.00000  Uiso   1.00
C1517  C     0.20393   0.84869   0.54840   0.00000  Uiso   1.00
C1518  C     0.16823   0.83561   0.97675   0.00000  Uiso   1.00
C1519  C     0.16721   0.83769   0.52355   0.00000  Uiso   1.00
C1520  C     0.20563   0.84373   0.95450   0.00000  Uiso   1.00
C1521  C     0.12939   0.82902   0.54526   0.00000  Uiso   1.00
C1522  C     0.09351   0.82490   0.97284   0.00000  Uiso   1.00
C1523  C     0.09194   0.82654   0.51945   0.00000  Uiso   1.00
C1524  C     0.24049   0.85910   0.52551   0.00000  Uiso   1.00
C1525  C     0.23845   0.86870   0.88210   0.00000  Uiso   1.00
C1526  C     0.09460   0.80502   0.61598   0.00000  Uiso   1.00
C1527  C     0.10107   0.78948   0.88258   0.00000  Uiso   1.00
C1528  C     0.24166   0.85262   0.62337   0.00000  Uiso   1.00
C1529  C     0.04931   0.87581   0.93088   0.00000  Uiso   1.00
C1530  C     0.27770   0.92820   0.54159   0.00000  Uiso   1.00
C1531  C     0.05114   0.83173   0.54002   0.00000  Uiso   1.00
C1532  C     0.28340   0.84042   0.96149   0.00000  Uiso   1.00
C1533  C     0.25435   0.71001   0.81920   0.00000  Uiso   1.00
C1534  C     0.24248   0.84976   0.97996   0.00000  Uiso   1.00
C1535  C     0.13975   0.95376   0.63864   0.00000  Uiso   1.00
C1536  C     0.07629   0.70872   0.68588   0.00000  Uiso   1.00
C1537  C     0.18168   0.96256   0.86347   0.00000  Uiso   1.00
C1538  C     0.02094   0.79265   0.75257   0.00000  Uiso   1.00
C1539  C     0.31236   0.87458   0.74815   0.00000  Uiso   1.00
C1540  C     0.31188   0.79270   0.75123   0.00000  Uiso   1.00
C1541  C     0.02150   0.87447   0.74820   0.00000  Uiso   1.00
C1542  C     0.29088   0.83364   0.74964   0.00000  Uiso   1.00
H1543  H     0.03669   0.76076   0.75527   0.00000  Uiso   1.00
H1544  H     0.02228   0.87600   0.90736   0.00000  Uiso   1.00
H1545  H     0.07638   0.88918   0.91297   0.00000  Uiso   1.00
H1546  H     0.04303   0.89806   0.95966   0.00000  Uiso   1.00
H1547  H     0.30256   0.86378   0.54530   0.00000  Uiso   1.00
H1548  H     0.30350   0.94199   0.56266   0.00000  Uiso   1.00
H1549  H     0.24862   0.94451   0.55166   0.00000  Uiso   1.00
H1550  H     0.28362   0.93611   0.50611   0.00000  Uiso   1.00
H1551  H     0.04569   0.86033   0.56156   0.00000  Uiso   1.00
H1552  H     0.30980   0.86076   0.97151   0.00000  Uiso   1.00
H1553  H     0.19565   0.71878   0.84583   0.00000  Uiso   1.00
H1554  H     0.29651   0.90654   0.74674   0.00000  Uiso   1.00
H1555  H     0.26236   0.68776   0.84780   0.00000  Uiso   1.00
H1556  H     0.26940   0.74319   0.82537   0.00000  Uiso   1.00
H1557  H     0.26661   0.69532   0.78816   0.00000  Uiso   1.00
H1558  H     0.09244   0.95195   0.68498   0.00000  Uiso   1.00
H1559  H     0.12920   0.98497   0.62192   0.00000  Uiso   1.00
H1560  H     0.12762   0.92494   0.61860   0.00000  Uiso   1.00
H1561  H     0.17405   0.95245   0.63924   0.00000  Uiso   1.00
H1562  H     0.13359   0.71907   0.65546   0.00000  Uiso   1.00
H1563  H     0.06630   0.68759   0.65699   0.00000  Uiso   1.00
H1564  H     0.06110   0.74182   0.68226   0.00000  Uiso   1.00
H1565  H     0.29574   0.76074   0.75153   0.00000  Uiso   1.00
H1566  H     0.06591   0.69282   0.71727   0.00000  Uiso   1.00
H1567  H     0.23336   0.95071   0.82375   0.00000  Uiso   1.00
H1568  H     0.20312   0.98130   0.88636   0.00000  Uiso   1.00
H1569  H     0.17289   0.93071   0.87989   0.00000  Uiso   1.00
H1570  H     0.15292   0.98234   0.85832   0.00000  Uiso   1.00
H1571  H     0.03776   0.90641   0.74657   0.00000  Uiso   1.00
H1572  H     0.24634   0.85595   0.84953   0.00000  Uiso   1.00
H1573  H     0.08007   0.77415   0.60391   0.00000  Uiso   1.00
H1574  H     0.08797   0.76022   0.89882   0.00000  Uiso   1.00
H1575  H     0.26701   0.82942   0.61935   0.00000  Uiso   1.00
H1576  H     0.03133   0.81259   0.95581   0.00000  Uiso   1.00
N1577  N     0.16667   0.95240   0.75000   0.00000  Uiso   1.00
N1578  N     0.16667   0.71427   0.75000   0.00000  Uiso   1.00
N1579  N     0.05687   0.83029   0.94610   0.00000  Uiso   1.00
N1580  N     0.27487   0.88006   0.54794   0.00000  Uiso   1.00
N1581  N     0.21011   0.71610   0.81577   0.00000  Uiso   1.00
N1582  N     0.12412   0.95070   0.68336   0.00000  Uiso   1.00
N1583  N     0.12065   0.71515   0.68622   0.00000  Uiso   1.00
N1584  N     0.20166   0.95305   0.82169   0.00000  Uiso   1.00
O1585  O     0.10559   0.87154   0.74999   0.00000  Uiso   1.00
O1586  O     0.08034   0.82429   0.64798   0.00000  Uiso   1.00
O1587  O     0.08652   0.80129   0.84660   0.00000  Uiso   1.00
O1588  O     0.24546   0.88358   0.64996   0.00000  Uiso   1.00
O1589  O     0.02437   0.80286   0.53506   0.00000  Uiso   1.00
O1590  O     0.28791   0.80899   0.93584   0.00000  Uiso   1.00
O1591  O     0.22774   0.79513   0.75000   0.00000  Uiso   1.00
O1592  O     0.22774   0.87154   0.75000   0.00000  Uiso   1.00
O1593  O     0.10559   0.79513   0.74999   0.00000  Uiso   1.00
O1594  O     0.16666   0.87156   0.68392   0.00000  Uiso   1.00
O1595  O     0.16667   0.79511   0.81607   0.00000  Uiso   1.00
O1596  O     0.16667   0.87156   0.81607   0.00000  Uiso   1.00
O1597  O     0.16666   0.79511   0.68392   0.00000  Uiso   1.00
O1598  O     0.25679   0.90190   0.89662   0.00000  Uiso   1.00
Zn1599 Zn    0.16667   0.88437   0.75000   0.00000  Uiso   1.00
Zn1600 Zn    0.16667   0.78229   0.75000   0.00000  Uiso   1.00
C1601  C     0.41998   0.83328   0.75014   0.00000  Uiso   1.00
C1602  C     0.37579   0.83344   0.75040   0.00000  Uiso   1.00
C1603  C     0.52140   0.69119   0.78228   0.00000  Uiso   1.00
C1604  C     0.47929   0.97563   0.71698   0.00000  Uiso   1.00
C1605  C     0.47783   0.69063   0.71815   0.00000  Uiso   1.00
C1606  C     0.51933   0.97639   0.78377   0.00000  Uiso   1.00
C1607  C     0.49998   0.83346   0.66375   0.00000  Uiso   1.00
C1608  C     0.50095   0.83316   0.83632   0.00000  Uiso   1.00
C1609  C     0.53773   0.84730   0.90747   0.00000  Uiso   1.00
C1610  C     0.46357   0.82444   0.59202   0.00000  Uiso   1.00
C1611  C     0.50216   0.83219   0.88409   0.00000  Uiso   1.00
C1612  C     0.58002   0.83347   0.74985   0.00000  Uiso   1.00
C1613  C     0.50009   0.83468   0.61602   0.00000  Uiso   1.00
C1614  C     0.46756   0.81612   0.90625   0.00000  Uiso   1.00
C1615  C     0.53662   0.84739   0.59532   0.00000  Uiso   1.00
C1616  C     0.46525   0.82436   0.95208   0.00000  Uiso   1.00
C1617  C     0.53726   0.84869   0.54840   0.00000  Uiso   1.00
C1618  C     0.50156   0.83561   0.97675   0.00000  Uiso   1.00
C1619  C     0.50055   0.83769   0.52355   0.00000  Uiso   1.00
C1620  C     0.53896   0.84373   0.95450   0.00000  Uiso   1.00
C1621  C     0.46272   0.82902   0.54526   0.00000  Uiso   1.00
C1622  C     0.42684   0.82490   0.97284   0.00000  Uiso   1.00
C1623  C     0.42528   0.82654   0.51945   0.00000  Uiso   1.00
C1624  C     0.57383   0.85910   0.52551   0.00000  Uiso   1.00
C1625  C     0.57179   0.86870   0.88210   0.00000  Uiso   1.00
C1626  C     0.42794   0.80502   0.61598   0.00000  Uiso   1.00
C1627  C     0.43440   0.78948   0.88258   0.00000  Uiso   1.00
C1628  C     0.57499   0.85262   0.62337   0.00000  Uiso   1.00
C1629  C     0.38264   0.87581   0.93088   0.00000  Uiso   1.00
C1630  C     0.61103   0.92820   0.54159   0.00000  Uiso   1.00
C1631  C     0.38447   0.83173   0.54002   0.00000  Uiso   1.00
C1632  C     0.61673   0.84042   0.96149   0.00000  Uiso   1.00
C1633  C     0.58769   0.71001   0.81920   0.00000  Uiso   1.00
C1634  C     0.57581   0.84976   0.97996   0.00000  Uiso   1.00
C1635  C     0.47308   0.95376   0.63864   0.00000  Uiso   1.00
C1636  C     0.40963   0.70872   0.68588   0.00000  Uiso   1.00
C1637  C     0.51501   0.96256   0.86347   0.00000  Uiso   1.00
C1638  C     0.35427   0.79265   0.75257   0.00000  Uiso   1.00
C1639  C     0.64570   0.87458   0.74815   0.00000  Uiso   1.00
C1640  C     0.64522   0.79270   0.75123   0.00000  Uiso   1.00
C1641  C     0.35483   0.87447   0.74820   0.00000  Uiso   1.00
C1642  C     0.62422   0.83364   0.74964   0.00000  Uiso   1.00
H1643  H     0.37002   0.76076   0.75527   0.00000  Uiso   1.00
H1644  H     0.35561   0.87600   0.90736   0.00000  Uiso   1.00
H1645  H     0.40971   0.88918   0.91297   0.00000  Uiso   1.00
H1646  H     0.37636   0.89806   0.95966   0.00000  Uiso   1.00
H1647  H     0.63590   0.86378   0.54530   0.00000  Uiso   1.00
H1648  H     0.63683   0.94199   0.56266   0.00000  Uiso   1.00
H1649  H     0.58195   0.94451   0.55166   0.00000  Uiso   1.00
H1650  H     0.61695   0.93611   0.50611   0.00000  Uiso   1.00
H1651  H     0.37903   0.86033   0.56156   0.00000  Uiso   1.00
H1652  H     0.64313   0.86076   0.97151   0.00000  Uiso   1.00
H1653  H     0.52899   0.71878   0.84583   0.00000  Uiso   1.00
H1654  H     0.62984   0.90654   0.74674   0.00000  Uiso   1.00
H1655  H     0.59569   0.68776   0.84780   0.00000  Uiso   1.00
H1656  H     0.60273   0.74319   0.82537   0.00000  Uiso   1.00
H1657  H     0.59994   0.69532   0.78816   0.00000  Uiso   1.00
H1658  H     0.42577   0.95195   0.68498   0.00000  Uiso   1.00
H1659  H     0.46253   0.98497   0.62192   0.00000  Uiso   1.00
H1660  H     0.46095   0.92494   0.61860   0.00000  Uiso   1.00
H1661  H     0.50739   0.95245   0.63924   0.00000  Uiso   1.00
H1662  H     0.46692   0.71907   0.65546   0.00000  Uiso   1.00
H1663  H     0.39963   0.68759   0.65699   0.00000  Uiso   1.00
H1664  H     0.39444   0.74182   0.68226   0.00000  Uiso   1.00
H1665  H     0.62907   0.76074   0.75153   0.00000  Uiso   1.00
H1666  H     0.39924   0.69282   0.71727   0.00000  Uiso   1.00
H1667  H     0.56669   0.95071   0.82375   0.00000  Uiso   1.00
H1668  H     0.53645   0.98130   0.88636   0.00000  Uiso   1.00
H1669  H     0.50622   0.93071   0.87989   0.00000  Uiso   1.00
H1670  H     0.48625   0.98234   0.85832   0.00000  Uiso   1.00
H1671  H     0.37109   0.90641   0.74657   0.00000  Uiso   1.00
H1672  H     0.57968   0.85595   0.84953   0.00000  Uiso   1.00
H1673  H     0.41341   0.77415   0.60391   0.00000  Uiso   1.00
H1674  H     0.42130   0.76022   0.89882   0.00000  Uiso   1.00
H1675  H     0.60034   0.82942   0.61935   0.00000  Uiso   1.00
H1676  H     0.36466   0.81259   0.95581   0.00000  Uiso   1.00
N1677  N     0.50000   0.95240   0.75000   0.00000  Uiso   1.00
N1678  N     0.50000   0.71427   0.75000   0.00000  Uiso   1.00
N1679  N     0.39020   0.83029   0.94610   0.00000  Uiso   1.00
N1680  N     0.60821   0.88006   0.54794   0.00000  Uiso   1.00
N1681  N     0.54344   0.71610   0.81577   0.00000  Uiso   1.00
N1682  N     0.45745   0.95070   0.68336   0.00000  Uiso   1.00
N1683  N     0.45398   0.71515   0.68622   0.00000  Uiso   1.00
N1684  N     0.53500   0.95305   0.82169   0.00000  Uiso   1.00
O1685  O     0.43892   0.87154   0.74999   0.00000  Uiso   1.00
O1686  O     0.41367   0.82429   0.64798   0.00000  Uiso   1.00
O1687  O     0.41985   0.80129   0.84660   0.00000  Uiso   1.00
O1688  O     0.57879   0.88358   0.64996   0.00000  Uiso   1.00
O1689  O     0.35770   0.80286   0.53506   0.00000  Uiso   1.00
O1690  O     0.62125   0.80899   0.93584   0.00000  Uiso   1.00
O1691  O     0.56108   0.79513   0.75000   0.00000  Uiso   1.00
O1692  O     0.56108   0.87154   0.75000   0.00000  Uiso   1.00
O1693  O     0.43892   0.79513   0.74999   0.00000  Uiso   1.00
O1694  O     0.49999   0.87156   0.68392   0.00000  Uiso   1.00
O1695  O     0.50001   0.79511   0.81607   0.00000  Uiso   1.00
O1696  O     0.50001   0.87156   0.81607   0.00000  Uiso   1.00
O1697  O     0.49999   0.79511   0.68392   0.00000  Uiso   1.00
O1698  O     0.59012   0.90190   0.89662   0.00000  Uiso   1.00
Zn1699 Zn    0.50000   0.88437   0.75000   0.00000  Uiso   1.00
Zn1700 Zn    0.50000   0.78229   0.75000   0.00000  Uiso   1.00
C1701  C     0.75332   0.83328   0.75014   0.00000  Uiso   1.00
C1702  C     0.70912   0.83344   0.75040   0.00000  Uiso   1.00
C1703  C     0.85474   0.69119   0.78228   0.00000  Uiso   1.00
C1704  C     0.81262   0.97563   0.71698   0.00000  Uiso   1.00
C1705  C     0.81116   0.69063   0.71815   0.00000  Uiso   1.00
C1706  C     0.85267   0.97639   0.78377   0.00000  Uiso   1.00
C1707  C     0.83332   0.83346   0.66375   0.00000  Uiso   1.00
C1708  C     0.83428   0.83316   0.83632   0.00000  Uiso   1.00
C1709  C     0.87106   0.84730   0.90747   0.00000  Uiso   1.00
C1710  C     0.79690   0.82444   0.59202   0.00000  Uiso   1.00
C1711  C     0.83549   0.83219   0.88409   0.00000  Uiso   1.00
C1712  C     0.91335   0.83347   0.74985   0.00000  Uiso   1.00
C1713  C     0.83342   0.83468   0.61602   0.00000  Uiso   1.00
C1714  C     0.80090   0.81612   0.90625   0.00000  Uiso   1.00
C1715  C     0.86995   0.84739   0.59532   0.00000  Uiso   1.00
C1716  C     0.79858   0.82436   0.95208   0.00000  Uiso   1.00
C1717  C     0.87060   0.84869   0.54840   0.00000  Uiso   1.00
C1718  C     0.83490   0.83561   0.97675   0.00000  Uiso   1.00
C1719  C     0.83388   0.83769   0.52355   0.00000  Uiso   1.00
C1720  C     0.87229   0.84373   0.95450   0.00000  Uiso   1.00
C1721  C     0.79605   0.82902   0.54526   0.00000  Uiso   1.00
C1722  C     0.76017   0.82490   0.97284   0.00000  Uiso   1.00
C1723  C     0.75861   0.82654   0.51945   0.00000  Uiso   1.00
C1724  C     0.90716   0.85910   0.52551   0.00000  Uiso   1.00
C1725  C     0.90512   0.86870   0.88210   0.00000  Uiso   1.00
C1726  C     0.76127   0.80502   0.61598   0.00000  Uiso   1.00
C1727  C     0.76774   0.78948   0.88258   0.00000  Uiso   1.00
C1728  C     0.90832   0.85262   0.62337   0.00000  Uiso   1.00
C1729  C     0.71597   0.87581   0.93088   0.00000  Uiso   1.00
C1730  C     0.94437   0.92820   0.54159   0.00000  Uiso   1.00
C1731  C     0.71780   0.83173   0.54002   0.00000  Uiso   1.00
C1732  C     0.95006   0.84042   0.96149   0.00000  Uiso   1.00
C1733  C     0.92102   0.71001   0.81920   0.00000  Uiso   1.00
C1734  C     0.90914   0.84976   0.97996   0.00000  Uiso   1.00
C1735  C     0.80642   0.95376   0.63864   0.00000  Uiso   1.00
C1736  C     0.74296   0.70872   0.68588   0.00000  Uiso   1.00
C1737  C     0.84834   0.96256   0.86347   0.00000  Uiso   1.00
C1738  C     0.68760   0.79265   0.75257   0.00000  Uiso   1.00
C1739  C     0.97903   0.87458   0.74815   0.00000  Uiso   1.00
C1740  C     0.97855   0.79270   0.75123   0.00000  Uiso   1.00
C1741  C     0.68816   0.87447   0.74820   0.00000  Uiso   1.00
C1742  C     0.95755   0.83364   0.74964   0.00000  Uiso   1.00
H1743  H     0.70336   0.76076   0.75527   0.00000  Uiso   1.00
H1744  H     0.68894   0.87600   0.90736   0.00000  Uiso   1.00
H1745  H     0.74304   0.88918   0.91297   0.00000  Uiso   1.00
H1746  H     0.70969   0.89806   0.95966   0.00000  Uiso   1.00
H1747  H     0.96923   0.86378   0.54530   0.00000  Uiso   1.00
H1748  H     0.97017   0.94199   0.56266   0.00000  Uiso   1.00
H1749  H     0.91528   0.94451   0.55166   0.00000  Uiso   1.00
H1750  H     0.95028   0.93611   0.50611   0.00000  Uiso   1.00
H1751  H     0.71236   0.86033   0.56156   0.00000  Uiso   1.00
H1752  H     0.97646   0.86076   0.97151   0.00000  Uiso   1.00
H1753  H     0.86232   0.71878   0.84583   0.00000  Uiso   1.00
H1754  H     0.96317   0.90654   0.74674   0.00000  Uiso   1.00
H1755  H     0.92903   0.68776   0.84780   0.00000  Uiso   1.00
H1756  H     0.93606   0.74319   0.82537   0.00000  Uiso   1.00
H1757  H     0.93327   0.69532   0.78816   0.00000  Uiso   1.00
H1758  H     0.75910   0.95195   0.68498   0.00000  Uiso   1.00
H1759  H     0.79587   0.98497   0.62192   0.00000  Uiso   1.00
H1760  H     0.79428   0.92494   0.61860   0.00000  Uiso   1.00
H1761  H     0.84072   0.95245   0.63924   0.00000  Uiso   1.00
H1762  H     0.80026   0.71907   0.65546   0.00000  Uiso   1.00
H1763  H     0.73297   0.68759   0.65699   0.00000  Uiso   1.00
H1764  H     0.72777   0.74182   0.68226   0.00000  Uiso   1.00
H1765  H     0.96240   0.76074   0.75153   0.00000  Uiso   1.00
H1766  H     0.73257   0.69282   0.71727   0.00000  Uiso   1.00
H1767  H     0.90003   0.95071   0.82375   0.00000  Uiso   1.00
H1768  H     0.86979   0.98130   0.88636   0.00000  Uiso   1.00
H1769  H     0.83955   0.93071   0.87989   0.00000  Uiso   1.00
H1770  H     0.81959   0.98234   0.85832   0.00000  Uiso   1.00
H1771  H     0.70443   0.90641   0.74657   0.00000  Uiso   1.00
H1772  H     0.91301   0.85595   0.84953   0.00000  Uiso   1.00
H1773  H     0.74674   0.77415   0.60391   0.00000  Uiso   1.00
H1774  H     0.75463   0.76022   0.89882   0.00000  Uiso   1.00
H1775  H     0.93368   0.82942   0.61935   0.00000  Uiso   1.00
H1776  H     0.69799   0.81259   0.95581   0.00000  Uiso   1.00
N1777  N     0.83333   0.95240   0.75000   0.00000  Uiso   1.00
N1778  N     0.83333   0.71427   0.75000   0.00000  Uiso   1.00
N1779  N     0.72353   0.83029   0.94610   0.00000  Uiso   1.00
N1780  N     0.94154   0.88006   0.54794   0.00000  Uiso   1.00
N1781  N     0.87678   0.71610   0.81577   0.00000  Uiso   1.00
N1782  N     0.79078   0.95070   0.68336   0.00000  Uiso   1.00
N1783  N     0.78731   0.71515   0.68622   0.00000  Uiso   1.00
N1784  N     0.86833   0.95305   0.82169   0.00000  Uiso   1.00
O1785  O     0.77226   0.87154   0.74999   0.00000  Uiso   1.00
O1786  O     0.74701   0.82429   0.64798   0.00000  Uiso   1.00
O1787  O     0.75318   0.80129   0.84660   0.00000  Uiso   1.00
O1788  O     0.91212   0.88358   0.64996   0.00000  Uiso   1.00
O1789  O     0.69104   0.80286   0.53506   0.00000  Uiso   1.00
O1790  O     0.95458   0.80899   0.93584   0.00000  Uiso   1.00
O1791  O     0.89441   0.79513   0.75000   0.00000  Uiso   1.00
O1792  O     0.89441   0.87154   0.75000   0.00000  Uiso   1.00
O1793  O     0.77226   0.79513   0.74999   0.00000  Uiso   1.00
O1794  O     0.83333   0.87156   0.68392   0.00000  Uiso   1.00
O1795  O     0.83334   0.79511   0.81607   0.00000  Uiso   1.00
O1796  O     0.83334   0.87156   0.81607   0.00000  Uiso   1.00
O1797  O     0.83333   0.79511   0.68392   0.00000  Uiso   1.00
O1798  O     0.92345   0.90190   0.89662   0.00000  Uiso   1.00
Zn1799 Zn    0.83333   0.88437   0.75000   0.00000  Uiso   1.00
Zn1800 Zn    0.83333   0.78229   0.75000   0.00000  Uiso   1.00
loop_
_geom_bond_atom_site_label_1
_geom_bond_atom_site_label_2
_geom_bond_distance
_geom_bond_site_symmetry_2
_ccdc_geom_bond_type
C1     C2      1.432   .     S
C1     O85     1.287   .     A
C1     O93     1.293   .     A
C2     C38     1.396   .     A
C2     C41     1.401   .     A
C3     N81     1.421   .     S
C3     N78     1.364   .     A
C3     C606    1.432   1_545 S
C4     N77     1.371   .     A
C4     N82     1.421   .     S
C4     C305    1.437   .     S
C5     N83     1.420   .     S
C5     N78     1.370   .     A
C5     C604    1.437   1_545 S
C6     N84     1.417   .     S
C6     N77     1.373   .     A
C6     C303    1.432   .     S
C7     O94     1.283   .     A
C7     O97     1.290   .     A
C7     C13     1.432   .     S
C8     O96     1.293   .     A
C8     O95     1.283   .     A
C8     C11     1.433   .     S
C9     C25     1.495   .     S
C9     C20     1.415   .     A
C9     C11     1.404   .     A
C10    C26     1.488   .     S
C10    C21     1.409   .     A
C10    C13     1.400   .     A
C11    C14     1.399   .     A
C12    O91     1.290   .     A
C12    C42     1.432   .     S
C12    O92     1.291   .     A
C13    C15     1.400   .     A
C14    C27     1.493   .     S
C14    C16     1.400   .     A
C15    C17     1.409   .     A
C15    C28     1.490   .     S
C16    C22     1.406   .     A
C16    C18     1.411   .     A
C17    C24     1.417   .     A
C17    C19     1.423   .     A
C18    C20     1.417   .     A
C18    C919    1.407   .     S
C19    C21     1.424   .     A
C19    C918    1.407   1_554 S
C20    C34     1.410   .     A
C21    C23     1.423   .     A
C22    N79     1.425   .     S
C22    C923    1.401   .     S
C23    C31     1.482   .     S
C23    C922    1.401   1_554 S
C24    N80     1.425   .     S
C24    C934    1.397   1_554 S
C25    H72     1.085   .     S
C25    O98     1.221   .     D
C26    H73     1.085   .     S
C26    O86     1.220   .     D
C27    O87     1.219   .     D
C27    H74     1.085   .     S
C28    O88     1.221   .     D
C28    H75     1.085   .     S
C29    H45     1.111   .     S
C29    N79     1.448   .     S
C29    H44     1.110   .     S
C29    H46     1.111   .     S
C30    H48     1.110   .     S
C30    H50     1.111   .     S
C30    H49     1.112   .     S
C30    N80     1.445   .     S
C31    O89     1.221   .     D
C31    H51     1.085   .     S
C32    H52     1.079   .     S
C32    O90     1.222   .     D
C32    C34     1.478   .     S
C33    H55     1.110   .     S
C33    H56     1.109   .     S
C33    H57     1.112   .     S
C33    N81     1.447   .     S
C34    C924    1.397   .     S
C35    H59     1.107   .     S
C35    N82     1.449   .     S
C35    H60     1.110   .     S
C35    H61     1.112   .     S
C36    H66     1.112   .     S
C36    N83     1.448   .     S
C36    H63     1.110   .     S
C36    H64     1.107   .     S
C37    H68     1.110   .     S
C37    H69     1.106   .     S
C37    N84     1.454   .     S
C37    H70     1.113   .     S
C38    H43     1.082   .     S
C38    C240    1.373   1_455 S
C39    H54     1.083   .     S
C39    C42     1.398   .     A
C39    C141    1.376   .     S
C40    C42     1.398   .     A
C40    H65     1.081   .     S
C40    C138    1.373   .     S
C41    H71     1.083   .     S
C41    C239    1.376   1_455 S
H47    N80     1.027   .     S
H53    N81     1.030   .     S
H58    N82     1.030   .     S
H62    N83     1.030   .     S
H67    N84     1.030   .     S
H76    N79     1.026   .     S
N77    Zn99    2.021   .     S
N78    Zn100   2.021   .     S
O85    Zn99    2.012   .     S
O91    Zn100   2.012   .     S
O92    Zn99    2.018   .     S
O93    Zn100   2.018   .     S
O94    Zn99    2.018   .     S
O95    Zn100   2.018   .     S
O96    Zn99    2.019   .     S
O97    Zn100   2.019   .     S
C101   C102    1.432   .     S
C101   O185    1.287   .     A
C101   O193    1.293   .     A
C102   C138    1.396   .     A
C102   C141    1.401   .     A
C103   N181    1.421   .     S
C103   N178    1.364   .     A
C103   C706    1.432   1_545 S
C104   N177    1.371   .     A
C104   N182    1.421   .     S
C104   C405    1.437   .     S
C105   N183    1.420   .     S
C105   N178    1.370   .     A
C105   C704    1.437   1_545 S
C106   N184    1.417   .     S
C106   N177    1.373   .     A
C106   C403    1.432   .     S
C107   O194    1.283   .     A
C107   O197    1.290   .     A
C107   C113    1.432   .     S
C108   O196    1.293   .     A
C108   O195    1.283   .     A
C108   C111    1.433   .     S
C109   C125    1.495   .     S
C109   C120    1.415   .     A
C109   C111    1.404   .     A
C110   C126    1.488   .     S
C110   C121    1.409   .     A
C110   C113    1.400   .     A
C111   C114    1.399   .     A
C112   O191    1.290   .     A
C112   C142    1.432   .     S
C112   O192    1.291   .     A
C113   C115    1.400   .     A
C114   C127    1.493   .     S
C114   C116    1.400   .     A
C115   C117    1.409   .     A
C115   C128    1.490   .     S
C116   C122    1.406   .     A
C116   C118    1.411   .     A
C117   C124    1.417   .     A
C117   C119    1.423   .     A
C118   C120    1.417   .     A
C118   C1019   1.407   .     S
C119   C121    1.424   .     A
C119   C1018   1.407   1_554 S
C120   C134    1.410   .     A
C121   C123    1.423   .     A
C122   N179    1.425   .     S
C122   C1023   1.401   .     S
C123   C131    1.482   .     S
C123   C1022   1.401   1_554 S
C124   N180    1.425   .     S
C124   C1034   1.397   1_554 S
C125   H172    1.085   .     S
C125   O198    1.221   .     D
C126   H173    1.085   .     S
C126   O186    1.220   .     D
C127   O187    1.219   .     D
C127   H174    1.085   .     S
C128   O188    1.221   .     D
C128   H175    1.085   .     S
C129   H145    1.111   .     S
C129   N179    1.448   .     S
C129   H144    1.110   .     S
C129   H146    1.111   .     S
C130   H148    1.110   .     S
C130   H150    1.111   .     S
C130   H149    1.112   .     S
C130   N180    1.445   .     S
C131   O189    1.221   .     D
C131   H151    1.085   .     S
C132   H152    1.079   .     S
C132   O190    1.222   .     D
C132   C134    1.478   .     S
C133   H155    1.110   .     S
C133   H156    1.109   .     S
C133   H157    1.112   .     S
C133   N181    1.447   .     S
C134   C1024   1.397   .     S
C135   H159    1.107   .     S
C135   N182    1.449   .     S
C135   H160    1.110   .     S
C135   H161    1.112   .     S
C136   H166    1.112   .     S
C136   N183    1.448   .     S
C136   H163    1.110   .     S
C136   H164    1.107   .     S
C137   H168    1.110   .     S
C137   H169    1.106   .     S
C137   N184    1.454   .     S
C137   H170    1.113   .     S
C138   H143    1.082   .     S
C139   H154    1.083   .     S
C139   C142    1.398   .     A
C139   C241    1.376   .     S
C140   C142    1.398   .     A
C140   H165    1.081   .     S
C140   C238    1.373   .     S
C141   H171    1.083   .     S
H147   N180    1.027   .     S
H153   N181    1.030   .     S
H158   N182    1.030   .     S
H162   N183    1.030   .     S
H167   N184    1.030   .     S
H176   N179    1.026   .     S
N177   Zn199   2.021   .     S
N178   Zn200   2.021   .     S
O185   Zn199   2.012   .     S
O191   Zn200   2.012   .     S
O192   Zn199   2.018   .     S
O193   Zn200   2.018   .     S
O194   Zn199   2.018   .     S
O195   Zn200   2.018   .     S
O196   Zn199   2.019   .     S
O197   Zn200   2.019   .     S
C201   C202    1.432   .     S
C201   O285    1.287   .     A
C201   O293    1.293   .     A
C202   C238    1.396   .     A
C202   C241    1.401   .     A
C203   N281    1.421   .     S
C203   N278    1.364   .     A
C203   C806    1.432   1_545 S
C204   N277    1.371   .     A
C204   N282    1.421   .     S
C204   C505    1.437   .     S
C205   N283    1.420   .     S
C205   N278    1.370   .     A
C205   C804    1.437   1_545 S
C206   N284    1.417   .     S
C206   N277    1.373   .     A
C206   C503    1.432   .     S
C207   O294    1.283   .     A
C207   O297    1.290   .     A
C207   C213    1.432   .     S
C208   O296    1.293   .     A
C208   O295    1.283   .     A
C208   C211    1.433   .     S
C209   C225    1.495   .     S
C209   C220    1.415   .     A
C209   C211    1.404   .     A
C210   C226    1.488   .     S
C210   C221    1.409   .     A
C210   C213    1.400   .     A
C211   C214    1.399   .     A
C212   O291    1.290   .     A
C212   C242    1.432   .     S
C212   O292    1.291   .     A
C213   C215    1.400   .     A
C214   C227    1.493   .     S
C214   C216    1.400   .     A
C215   C217    1.409   .     A
C215   C228    1.490   .     S
C216   C222    1.406   .     A
C216   C218    1.411   .     A
C217   C224    1.417   .     A
C217   C219    1.423   .     A
C218   C220    1.417   .     A
C218   C1119   1.407   .     S
C219   C221    1.424   .     A
C219   C1118   1.407   1_554 S
C220   C234    1.410   .     A
C221   C223    1.423   .     A
C222   N279    1.425   .     S
C222   C1123   1.401   .     S
C223   C231    1.482   .     S
C223   C1122   1.401   1_554 S
C224   N280    1.425   .     S
C224   C1134   1.397   1_554 S
C225   H272    1.085   .     S
C225   O298    1.221   .     D
C226   H273    1.085   .     S
C226   O286    1.220   .     D
C227   O287    1.219   .     D
C227   H274    1.085   .     S
C228   O288    1.221   .     D
C228   H275    1.085   .     S
C229   H245    1.111   .     S
C229   N279    1.448   .     S
C229   H244    1.110   .     S
C229   H246    1.111   .     S
C230   H248    1.110   .     S
C230   H250    1.111   .     S
C230   H249    1.112   .     S
C230   N280    1.445   .     S
C231   O289    1.221   .     D
C231   H251    1.085   .     S
C232   H252    1.079   .     S
C232   O290    1.222   .     D
C232   C234    1.478   .     S
C233   H255    1.110   .     S
C233   H256    1.109   .     S
C233   H257    1.112   .     S
C233   N281    1.447   .     S
C234   C1124   1.397   .     S
C235   H259    1.107   .     S
C235   N282    1.449   .     S
C235   H260    1.110   .     S
C235   H261    1.112   .     S
C236   H266    1.112   .     S
C236   N283    1.448   .     S
C236   H263    1.110   .     S
C236   H264    1.107   .     S
C237   H268    1.110   .     S
C237   H269    1.106   .     S
C237   N284    1.454   .     S
C237   H270    1.113   .     S
C238   H243    1.082   .     S
C239   H254    1.083   .     S
C239   C242    1.398   .     A
C239   C41     1.376   1_655 S
C240   C242    1.398   .     A
C240   H265    1.081   .     S
C240   C38     1.373   1_655 S
C241   H271    1.083   .     S
H247   N280    1.027   .     S
H253   N281    1.030   .     S
H258   N282    1.030   .     S
H262   N283    1.030   .     S
H267   N284    1.030   .     S
H276   N279    1.026   .     S
N277   Zn299   2.021   .     S
N278   Zn300   2.021   .     S
O285   Zn299   2.012   .     S
O291   Zn300   2.012   .     S
O292   Zn299   2.018   .     S
O293   Zn300   2.018   .     S
O294   Zn299   2.018   .     S
O295   Zn300   2.018   .     S
O296   Zn299   2.019   .     S
O297   Zn300   2.019   .     S
C301   C302    1.432   .     S
C301   O385    1.287   .     A
C301   O393    1.293   .     A
C302   C338    1.396   .     A
C302   C341    1.401   .     A
C303   N381    1.421   .     S
C303   N378    1.364   .     A
C304   N377    1.371   .     A
C304   N382    1.421   .     S
C304   C605    1.437   .     S
C305   N383    1.420   .     S
C305   N378    1.370   .     A
C306   N384    1.417   .     S
C306   N377    1.373   .     A
C306   C603    1.432   .     S
C307   O394    1.283   .     A
C307   O397    1.290   .     A
C307   C313    1.432   .     S
C308   O396    1.293   .     A
C308   O395    1.283   .     A
C308   C311    1.433   .     S
C309   C325    1.495   .     S
C309   C320    1.415   .     A
C309   C311    1.404   .     A
C310   C326    1.488   .     S
C310   C321    1.409   .     A
C310   C313    1.400   .     A
C311   C314    1.399   .     A
C312   O391    1.290   .     A
C312   C342    1.432   .     S
C312   O392    1.291   .     A
C313   C315    1.400   .     A
C314   C327    1.493   .     S
C314   C316    1.400   .     A
C315   C317    1.409   .     A
C315   C328    1.490   .     S
C316   C322    1.406   .     A
C316   C318    1.411   .     A
C317   C324    1.417   .     A
C317   C319    1.423   .     A
C318   C320    1.417   .     A
C318   C1219   1.407   .     S
C319   C321    1.424   .     A
C319   C1218   1.407   1_554 S
C320   C334    1.410   .     A
C321   C323    1.423   .     A
C322   N379    1.425   .     S
C322   C1223   1.401   .     S
C323   C331    1.482   .     S
C323   C1222   1.401   1_554 S
C324   N380    1.425   .     S
C324   C1234   1.397   1_554 S
C325   H372    1.085   .     S
C325   O398    1.221   .     D
C326   H373    1.085   .     S
C326   O386    1.220   .     D
C327   O387    1.219   .     D
C327   H374    1.085   .     S
C328   O388    1.221   .     D
C328   H375    1.085   .     S
C329   H345    1.111   .     S
C329   N379    1.448   .     S
C329   H344    1.110   .     S
C329   H346    1.111   .     S
C330   H348    1.110   .     S
C330   H350    1.111   .     S
C330   H349    1.112   .     S
C330   N380    1.445   .     S
C331   O389    1.221   .     D
C331   H351    1.085   .     S
C332   H352    1.079   .     S
C332   O390    1.222   .     D
C332   C334    1.478   .     S
C333   H355    1.110   .     S
C333   H356    1.109   .     S
C333   H357    1.112   .     S
C333   N381    1.447   .     S
C334   C1224   1.397   .     S
C335   H359    1.107   .     S
C335   N382    1.449   .     S
C335   H360    1.110   .     S
C335   H361    1.112   .     S
C336   H366    1.112   .     S
C336   N383    1.448   .     S
C336   H363    1.110   .     S
C336   H364    1.107   .     S
C337   H368    1.110   .     S
C337   H369    1.106   .     S
C337   N384    1.454   .     S
C337   H370    1.113   .     S
C338   H343    1.082   .     S
C338   C540    1.373   1_455 S
C339   H354    1.083   .     S
C339   C342    1.398   .     A
C339   C441    1.376   .     S
C340   C342    1.398   .     A
C340   H365    1.081   .     S
C340   C438    1.373   .     S
C341   H371    1.083   .     S
C341   C539    1.376   1_455 S
H347   N380    1.027   .     S
H353   N381    1.030   .     S
H358   N382    1.030   .     S
H362   N383    1.030   .     S
H367   N384    1.030   .     S
H376   N379    1.026   .     S
N377   Zn399   2.021   .     S
N378   Zn400   2.021   .     S
O385   Zn399   2.012   .     S
O391   Zn400   2.012   .     S
O392   Zn399   2.018   .     S
O393   Zn400   2.018   .     S
O394   Zn399   2.018   .     S
O395   Zn400   2.018   .     S
O396   Zn399   2.019   .     S
O397   Zn400   2.019   .     S
C401   C402    1.432   .     S
C401   O485    1.287   .     A
C401   O493    1.293   .     A
C402   C438    1.396   .     A
C402   C441    1.401   .     A
C403   N481    1.421   .     S
C403   N478    1.364   .     A
C404   N477    1.371   .     A
C404   N482    1.421   .     S
C404   C705    1.437   .     S
C405   N483    1.420   .     S
C405   N478    1.370   .     A
C406   N484    1.417   .     S
C406   N477    1.373   .     A
C406   C703    1.432   .     S
C407   O494    1.283   .     A
C407   O497    1.290   .     A
C407   C413    1.432   .     S
C408   O496    1.293   .     A
C408   O495    1.283   .     A
C408   C411    1.433   .     S
C409   C425    1.495   .     S
C409   C420    1.415   .     A
C409   C411    1.404   .     A
C410   C426    1.488   .     S
C410   C421    1.409   .     A
C410   C413    1.400   .     A
C411   C414    1.399   .     A
C412   O491    1.290   .     A
C412   C442    1.432   .     S
C412   O492    1.291   .     A
C413   C415    1.400   .     A
C414   C427    1.493   .     S
C414   C416    1.400   .     A
C415   C417    1.409   .     A
C415   C428    1.490   .     S
C416   C422    1.406   .     A
C416   C418    1.411   .     A
C417   C424    1.417   .     A
C417   C419    1.423   .     A
C418   C420    1.417   .     A
C418   C1319   1.407   .     S
C419   C421    1.424   .     A
C419   C1318   1.407   1_554 S
C420   C434    1.410   .     A
C421   C423    1.423   .     A
C422   N479    1.425   .     S
C422   C1323   1.401   .     S
C423   C431    1.482   .     S
C423   C1322   1.401   1_554 S
C424   N480    1.425   .     S
C424   C1334   1.397   1_554 S
C425   H472    1.085   .     S
C425   O498    1.221   .     D
C426   H473    1.085   .     S
C426   O486    1.220   .     D
C427   O487    1.219   .     D
C427   H474    1.085   .     S
C428   O488    1.221   .     D
C428   H475    1.085   .     S
C429   H445    1.111   .     S
C429   N479    1.448   .     S
C429   H444    1.110   .     S
C429   H446    1.111   .     S
C430   H448    1.110   .     S
C430   H450    1.111   .     S
C430   H449    1.112   .     S
C430   N480    1.445   .     S
C431   O489    1.221   .     D
C431   H451    1.085   .     S
C432   H452    1.079   .     S
C432   O490    1.222   .     D
C432   C434    1.478   .     S
C433   H455    1.110   .     S
C433   H456    1.109   .     S
C433   H457    1.112   .     S
C433   N481    1.447   .     S
C434   C1324   1.397   .     S
C435   H459    1.107   .     S
C435   N482    1.449   .     S
C435   H460    1.110   .     S
C435   H461    1.112   .     S
C436   H466    1.112   .     S
C436   N483    1.448   .     S
C436   H463    1.110   .     S
C436   H464    1.107   .     S
C437   H468    1.110   .     S
C437   H469    1.106   .     S
C437   N484    1.454   .     S
C437   H470    1.113   .     S
C438   H443    1.082   .     S
C439   H454    1.083   .     S
C439   C442    1.398   .     A
C439   C541    1.376   .     S
C440   C442    1.398   .     A
C440   H465    1.081   .     S
C440   C538    1.373   .     S
C441   H471    1.083   .     S
H447   N480    1.027   .     S
H453   N481    1.030   .     S
H458   N482    1.030   .     S
H462   N483    1.030   .     S
H467   N484    1.030   .     S
H476   N479    1.026   .     S
N477   Zn499   2.021   .     S
N478   Zn500   2.021   .     S
O485   Zn499   2.012   .     S
O491   Zn500   2.012   .     S
O492   Zn499   2.018   .     S
O493   Zn500   2.018   .     S
O494   Zn499   2.018   .     S
O495   Zn500   2.018   .     S
O496   Zn499   2.019   .     S
O497   Zn500   2.019   .     S
C501   C502    1.432   .     S
C501   O585    1.287   .     A
C501   O593    1.293   .     A
C502   C538    1.396   .     A
C502   C541    1.401   .     A
C503   N581    1.421   .     S
C503   N578    1.364   .     A
C504   N577    1.371   .     A
C504   N582    1.421   .     S
C504   C805    1.437   .     S
C505   N583    1.420   .     S
C505   N578    1.370   .     A
C506   N584    1.417   .     S
C506   N577    1.373   .     A
C506   C803    1.432   .     S
C507   O594    1.283   .     A
C507   O597    1.290   .     A
C507   C513    1.432   .     S
C508   O596    1.293   .     A
C508   O595    1.283   .     A
C508   C511    1.433   .     S
C509   C525    1.495   .     S
C509   C520    1.415   .     A
C509   C511    1.404   .     A
C510   C526    1.488   .     S
C510   C521    1.409   .     A
C510   C513    1.400   .     A
C511   C514    1.399   .     A
C512   O591    1.290   .     A
C512   C542    1.432   .     S
C512   O592    1.291   .     A
C513   C515    1.400   .     A
C514   C527    1.493   .     S
C514   C516    1.400   .     A
C515   C517    1.409   .     A
C515   C528    1.490   .     S
C516   C522    1.406   .     A
C516   C518    1.411   .     A
C517   C524    1.417   .     A
C517   C519    1.423   .     A
C518   C520    1.417   .     A
C518   C1419   1.407   .     S
C519   C521    1.424   .     A
C519   C1418   1.407   1_554 S
C520   C534    1.410   .     A
C521   C523    1.423   .     A
C522   N579    1.425   .     S
C522   C1423   1.401   .     S
C523   C531    1.482   .     S
C523   C1422   1.401   1_554 S
C524   N580    1.425   .     S
C524   C1434   1.397   1_554 S
C525   H572    1.085   .     S
C525   O598    1.221   .     D
C526   H573    1.085   .     S
C526   O586    1.220   .     D
C527   O587    1.219   .     D
C527   H574    1.085   .     S
C528   O588    1.221   .     D
C528   H575    1.085   .     S
C529   H545    1.111   .     S
C529   N579    1.448   .     S
C529   H544    1.110   .     S
C529   H546    1.111   .     S
C530   H548    1.110   .     S
C530   H550    1.111   .     S
C530   H549    1.112   .     S
C530   N580    1.445   .     S
C531   O589    1.221   .     D
C531   H551    1.085   .     S
C532   H552    1.079   .     S
C532   O590    1.222   .     D
C532   C534    1.478   .     S
C533   H555    1.110   .     S
C533   H556    1.109   .     S
C533   H557    1.112   .     S
C533   N581    1.447   .     S
C534   C1424   1.397   .     S
C535   H559    1.107   .     S
C535   N582    1.449   .     S
C535   H560    1.110   .     S
C535   H561    1.112   .     S
C536   H566    1.112   .     S
C536   N583    1.448   .     S
C536   H563    1.110   .     S
C536   H564    1.107   .     S
C537   H568    1.110   .     S
C537   H569    1.106   .     S
C537   N584    1.454   .     S
C537   H570    1.113   .     S
C538   H543    1.082   .     S
C539   H554    1.083   .     S
C539   C542    1.398   .     A
C539   C341    1.376   1_655 S
C540   C542    1.398   .     A
C540   H565    1.081   .     S
C540   C338    1.373   1_655 S
C541   H571    1.083   .     S
H547   N580    1.027   .     S
H553   N581    1.030   .     S
H558   N582    1.030   .     S
H562   N583    1.030   .     S
H567   N584    1.030   .     S
H576   N579    1.026   .     S
N577   Zn599   2.021   .     S
N578   Zn600   2.021   .     S
O585   Zn599   2.012   .     S
O591   Zn600   2.012   .     S
O592   Zn599   2.018   .     S
O593   Zn600   2.018   .     S
O594   Zn599   2.018   .     S
O595   Zn600   2.018   .     S
O596   Zn599   2.019   .     S
O597   Zn600   2.019   .     S
C601   C602    1.432   .     S
C601   O685    1.287   .     A
C601   O693    1.293   .     A
C602   C638    1.396   .     A
C602   C641    1.401   .     A
C603   N681    1.421   .     S
C603   N678    1.364   .     A
C604   N677    1.371   .     A
C604   N682    1.421   .     S
C604   C5      1.437   1_565 S
C605   N683    1.420   .     S
C605   N678    1.370   .     A
C606   N684    1.417   .     S
C606   N677    1.373   .     A
C606   C3      1.432   1_565 S
C607   O694    1.283   .     A
C607   O697    1.290   .     A
C607   C613    1.432   .     S
C608   O696    1.293   .     A
C608   O695    1.283   .     A
C608   C611    1.433   .     S
C609   C625    1.495   .     S
C609   C620    1.415   .     A
C609   C611    1.404   .     A
C610   C626    1.488   .     S
C610   C621    1.409   .     A
C610   C613    1.400   .     A
C611   C614    1.399   .     A
C612   O691    1.290   .     A
C612   C642    1.432   .     S
C612   O692    1.291   .     A
C613   C615    1.400   .     A
C614   C627    1.493   .     S
C614   C616    1.400   .     A
C615   C617    1.409   .     A
C615   C628    1.490   .     S
C616   C622    1.406   .     A
C616   C618    1.411   .     A
C617   C624    1.417   .     A
C617   C619    1.423   .     A
C618   C620    1.417   .     A
C618   C1519   1.407   .     S
C619   C621    1.424   .     A
C619   C1518   1.407   1_554 S
C620   C634    1.410   .     A
C621   C623    1.423   .     A
C622   N679    1.425   .     S
C622   C1523   1.401   .     S
C623   C631    1.482   .     S
C623   C1522   1.401   1_554 S
C624   N680    1.425   .     S
C624   C1534   1.397   1_554 S
C625   H672    1.085   .     S
C625   O698    1.221   .     D
C626   H673    1.085   .     S
C626   O686    1.220   .     D
C627   O687    1.219   .     D
C627   H674    1.085   .     S
C628   O688    1.221   .     D
C628   H675    1.085   .     S
C629   H645    1.111   .     S
C629   N679    1.448   .     S
C629   H644    1.110   .     S
C629   H646    1.111   .     S
C630   H648    1.110   .     S
C630   H650    1.111   .     S
C630   H649    1.112   .     S
C630   N680    1.445   .     S
C631   O689    1.221   .     D
C631   H651    1.085   .     S
C632   H652    1.079   .     S
C632   O690    1.222   .     D
C632   C634    1.478   .     S
C633   H655    1.110   .     S
C633   H656    1.109   .     S
C633   H657    1.112   .     S
C633   N681    1.447   .     S
C634   C1524   1.397   .     S
C635   H659    1.107   .     S
C635   N682    1.449   .     S
C635   H660    1.110   .     S
C635   H661    1.112   .     S
C636   H666    1.112   .     S
C636   N683    1.448   .     S
C636   H663    1.110   .     S
C636   H664    1.107   .     S
C637   H668    1.110   .     S
C637   H669    1.106   .     S
C637   N684    1.454   .     S
C637   H670    1.113   .     S
C638   H643    1.082   .     S
C638   C840    1.373   1_455 S
C639   H654    1.083   .     S
C639   C642    1.398   .     A
C639   C741    1.376   .     S
C640   C642    1.398   .     A
C640   H665    1.081   .     S
C640   C738    1.373   .     S
C641   H671    1.083   .     S
C641   C839    1.376   1_455 S
H647   N680    1.027   .     S
H653   N681    1.030   .     S
H658   N682    1.030   .     S
H662   N683    1.030   .     S
H667   N684    1.030   .     S
H676   N679    1.026   .     S
N677   Zn699   2.021   .     S
N678   Zn700   2.021   .     S
O685   Zn699   2.012   .     S
O691   Zn700   2.012   .     S
O692   Zn699   2.018   .     S
O693   Zn700   2.018   .     S
O694   Zn699   2.018   .     S
O695   Zn700   2.018   .     S
O696   Zn699   2.019   .     S
O697   Zn700   2.019   .     S
C701   C702    1.432   .     S
C701   O785    1.287   .     A
C701   O793    1.293   .     A
C702   C738    1.396   .     A
C702   C741    1.401   .     A
C703   N781    1.421   .     S
C703   N778    1.364   .     A
C704   N777    1.371   .     A
C704   N782    1.421   .     S
C704   C105    1.437   1_565 S
C705   N783    1.420   .     S
C705   N778    1.370   .     A
C706   N784    1.417   .     S
C706   N777    1.373   .     A
C706   C103    1.432   1_565 S
C707   O794    1.283   .     A
C707   O797    1.290   .     A
C707   C713    1.432   .     S
C708   O796    1.293   .     A
C708   O795    1.283   .     A
C708   C711    1.433   .     S
C709   C725    1.495   .     S
C709   C720    1.415   .     A
C709   C711    1.404   .     A
C710   C726    1.488   .     S
C710   C721    1.409   .     A
C710   C713    1.400   .     A
C711   C714    1.399   .     A
C712   O791    1.290   .     A
C712   C742    1.432   .     S
C712   O792    1.291   .     A
C713   C715    1.400   .     A
C714   C727    1.493   .     S
C714   C716    1.400   .     A
C715   C717    1.409   .     A
C715   C728    1.490   .     S
C716   C722    1.406   .     A
C716   C718    1.411   .     A
C717   C724    1.417   .     A
C717   C719    1.423   .     A
C718   C720    1.417   .     A
C718   C1619   1.407   .     S
C719   C721    1.424   .     A
C719   C1618   1.407   1_554 S
C720   C734    1.410   .     A
C721   C723    1.423   .     A
C722   N779    1.425   .     S
C722   C1623   1.401   .     S
C723   C731    1.482   .     S
C723   C1622   1.401   1_554 S
C724   N780    1.425   .     S
C724   C1634   1.397   1_554 S
C725   H772    1.085   .     S
C725   O798    1.221   .     D
C726   H773    1.085   .     S
C726   O786    1.220   .     D
C727   O787    1.219   .     D
C727   H774    1.085   .     S
C728   O788    1.221   .     D
C728   H775    1.085   .     S
C729   H745    1.111   .     S
C729   N779    1.448   .     S
C729   H744    1.110   .     S
C729   H746    1.111   .     S
C730   H748    1.110   .     S
C730   H750    1.111   .     S
C730   H749    1.112   .     S
C730   N780    1.445   .     S
C731   O789    1.221   .     D
C731   H751    1.085   .     S
C732   H752    1.079   .     S
C732   O790    1.222   .     D
C732   C734    1.478   .     S
C733   H755    1.110   .     S
C733   H756    1.109   .     S
C733   H757    1.112   .     S
C733   N781    1.447   .     S
C734   C1624   1.397   .     S
C735   H759    1.107   .     S
C735   N782    1.449   .     S
C735   H760    1.110   .     S
C735   H761    1.112   .     S
C736   H766    1.112   .     S
C736   N783    1.448   .     S
C736   H763    1.110   .     S
C736   H764    1.107   .     S
C737   H768    1.110   .     S
C737   H769    1.106   .     S
C737   N784    1.454   .     S
C737   H770    1.113   .     S
C738   H743    1.082   .     S
C739   H754    1.083   .     S
C739   C742    1.398   .     A
C739   C841    1.376   .     S
C740   C742    1.398   .     A
C740   H765    1.081   .     S
C740   C838    1.373   .     S
C741   H771    1.083   .     S
H747   N780    1.027   .     S
H753   N781    1.030   .     S
H758   N782    1.030   .     S
H762   N783    1.030   .     S
H767   N784    1.030   .     S
H776   N779    1.026   .     S
N777   Zn799   2.021   .     S
N778   Zn800   2.021   .     S
O785   Zn799   2.012   .     S
O791   Zn800   2.012   .     S
O792   Zn799   2.018   .     S
O793   Zn800   2.018   .     S
O794   Zn799   2.018   .     S
O795   Zn800   2.018   .     S
O796   Zn799   2.019   .     S
O797   Zn800   2.019   .     S
C801   C802    1.432   .     S
C801   O885    1.287   .     A
C801   O893    1.293   .     A
C802   C838    1.396   .     A
C802   C841    1.401   .     A
C803   N881    1.421   .     S
C803   N878    1.364   .     A
C804   N877    1.371   .     A
C804   N882    1.421   .     S
C804   C205    1.437   1_565 S
C805   N883    1.420   .     S
C805   N878    1.370   .     A
C806   N884    1.417   .     S
C806   N877    1.373   .     A
C806   C203    1.432   1_565 S
C807   O894    1.283   .     A
C807   O897    1.290   .     A
C807   C813    1.432   .     S
C808   O896    1.293   .     A
C808   O895    1.283   .     A
C808   C811    1.433   .     S
C809   C825    1.495   .     S
C809   C820    1.415   .     A
C809   C811    1.404   .     A
C810   C826    1.488   .     S
C810   C821    1.409   .     A
C810   C813    1.400   .     A
C811   C814    1.399   .     A
C812   O891    1.290   .     A
C812   C842    1.432   .     S
C812   O892    1.291   .     A
C813   C815    1.400   .     A
C814   C827    1.493   .     S
C814   C816    1.400   .     A
C815   C817    1.409   .     A
C815   C828    1.490   .     S
C816   C822    1.406   .     A
C816   C818    1.411   .     A
C817   C824    1.417   .     A
C817   C819    1.423   .     A
C818   C820    1.417   .     A
C818   C1719   1.407   .     S
C819   C821    1.424   .     A
C819   C1718   1.407   1_554 S
C820   C834    1.410   .     A
C821   C823    1.423   .     A
C822   N879    1.425   .     S
C822   C1723   1.401   .     S
C823   C831    1.482   .     S
C823   C1722   1.401   1_554 S
C824   N880    1.425   .     S
C824   C1734   1.397   1_554 S
C825   H872    1.085   .     S
C825   O898    1.221   .     D
C826   H873    1.085   .     S
C826   O886    1.220   .     D
C827   O887    1.219   .     D
C827   H874    1.085   .     S
C828   O888    1.221   .     D
C828   H875    1.085   .     S
C829   H845    1.111   .     S
C829   N879    1.448   .     S
C829   H844    1.110   .     S
C829   H846    1.111   .     S
C830   H848    1.110   .     S
C830   H850    1.111   .     S
C830   H849    1.112   .     S
C830   N880    1.445   .     S
C831   O889    1.221   .     D
C831   H851    1.085   .     S
C832   H852    1.079   .     S
C832   O890    1.222   .     D
C832   C834    1.478   .     S
C833   H855    1.110   .     S
C833   H856    1.109   .     S
C833   H857    1.112   .     S
C833   N881    1.447   .     S
C834   C1724   1.397   .     S
C835   H859    1.107   .     S
C835   N882    1.449   .     S
C835   H860    1.110   .     S
C835   H861    1.112   .     S
C836   H866    1.112   .     S
C836   N883    1.448   .     S
C836   H863    1.110   .     S
C836   H864    1.107   .     S
C837   H868    1.110   .     S
C837   H869    1.106   .     S
C837   N884    1.454   .     S
C837   H870    1.113   .     S
C838   H843    1.082   .     S
C839   H854    1.083   .     S
C839   C842    1.398   .     A
C839   C641    1.376   1_655 S
C840   C842    1.398   .     A
C840   H865    1.081   .     S
C840   C638    1.373   1_655 S
C841   H871    1.083   .     S
H847   N880    1.027   .     S
H853   N881    1.030   .     S
H858   N882    1.030   .     S
H862   N883    1.030   .     S
H867   N884    1.030   .     S
H876   N879    1.026   .     S
N877   Zn899   2.021   .     S
N878   Zn900   2.021   .     S
O885   Zn899   2.012   .     S
O891   Zn900   2.012   .     S
O892   Zn899   2.018   .     S
O893   Zn900   2.018   .     S
O894   Zn899   2.018   .     S
O895   Zn900   2.018   .     S
O896   Zn899   2.019   .     S
O897   Zn900   2.019   .     S
C901   C902    1.432   .     S
C901   O985    1.287   .     A
C901   O993    1.293   .     A
C902   C938    1.396   .     A
C902   C941    1.401   .     A
C903   N981    1.421   .     S
C903   N978    1.364   .     A
C903   C1506   1.432   1_545 S
C904   N977    1.371   .     A
C904   N982    1.421   .     S
C904   C1205   1.437   .     S
C905   N983    1.420   .     S
C905   N978    1.370   .     A
C905   C1504   1.437   1_545 S
C906   N984    1.417   .     S
C906   N977    1.373   .     A
C906   C1203   1.432   .     S
C907   O994    1.283   .     A
C907   O997    1.290   .     A
C907   C913    1.432   .     S
C908   O996    1.293   .     A
C908   O995    1.283   .     A
C908   C911    1.433   .     S
C909   C925    1.495   .     S
C909   C920    1.415   .     A
C909   C911    1.404   .     A
C910   C926    1.488   .     S
C910   C921    1.409   .     A
C910   C913    1.400   .     A
C911   C914    1.399   .     A
C912   O991    1.290   .     A
C912   C942    1.432   .     S
C912   O992    1.291   .     A
C913   C915    1.400   .     A
C914   C927    1.493   .     S
C914   C916    1.400   .     A
C915   C917    1.409   .     A
C915   C928    1.490   .     S
C916   C922    1.406   .     A
C916   C918    1.411   .     A
C917   C924    1.417   .     A
C917   C919    1.423   .     A
C918   C920    1.417   .     A
C918   C19     1.407   1_556 S
C919   C921    1.424   .     A
C920   C934    1.410   .     A
C921   C923    1.423   .     A
C922   N979    1.425   .     S
C922   C23     1.401   1_556 S
C923   C931    1.482   .     S
C924   N980    1.425   .     S
C925   H972    1.085   .     S
C925   O998    1.221   .     D
C926   H973    1.085   .     S
C926   O986    1.220   .     D
C927   O987    1.219   .     D
C927   H974    1.085   .     S
C928   O988    1.221   .     D
C928   H975    1.085   .     S
C929   H945    1.111   .     S
C929   N979    1.448   .     S
C929   H944    1.110   .     S
C929   H946    1.111   .     S
C930   H948    1.110   .     S
C930   H950    1.111   .     S
C930   H949    1.112   .     S
C930   N980    1.445   .     S
C931   O989    1.221   .     D
C931   H951    1.085   .     S
C932   H952    1.079   .     S
C932   O990    1.222   .     D
C932   C934    1.478   .     S
C933   H955    1.110   .     S
C933   H956    1.109   .     S
C933   H957    1.112   .     S
C933   N981    1.447   .     S
C934   C24     1.397   1_556 S
C935   H959    1.107   .     S
C935   N982    1.449   .     S
C935   H960    1.110   .     S
C935   H961    1.112   .     S
C936   H966    1.112   .     S
C936   N983    1.448   .     S
C936   H963    1.110   .     S
C936   H964    1.107   .     S
C937   H968    1.110   .     S
C937   H969    1.106   .     S
C937   N984    1.454   .     S
C937   H970    1.113   .     S
C938   H943    1.082   .     S
C938   C1140   1.373   1_455 S
C939   H954    1.083   .     S
C939   C942    1.398   .     A
C939   C1041   1.376   .     S
C940   C942    1.398   .     A
C940   H965    1.081   .     S
C940   C1038   1.373   .     S
C941   H971    1.083   .     S
C941   C1139   1.376   1_455 S
H947   N980    1.027   .     S
H953   N981    1.030   .     S
H958   N982    1.030   .     S
H962   N983    1.030   .     S
H967   N984    1.030   .     S
H976   N979    1.026   .     S
N977   Zn999   2.021   .     S
N978   Zn1000  2.021   .     S
O985   Zn999   2.012   .     S
O991   Zn1000  2.012   .     S
O992   Zn999   2.018   .     S
O993   Zn1000  2.018   .     S
O994   Zn999   2.018   .     S
O995   Zn1000  2.018   .     S
O996   Zn999   2.019   .     S
O997   Zn1000  2.019   .     S
C1001  C1002   1.432   .     S
C1001  O1085   1.287   .     A
C1001  O1093   1.293   .     A
C1002  C1038   1.396   .     A
C1002  C1041   1.401   .     A
C1003  N1081   1.421   .     S
C1003  N1078   1.364   .     A
C1003  C1606   1.432   1_545 S
C1004  N1077   1.371   .     A
C1004  N1082   1.421   .     S
C1004  C1305   1.437   .     S
C1005  N1083   1.420   .     S
C1005  N1078   1.370   .     A
C1005  C1604   1.437   1_545 S
C1006  N1084   1.417   .     S
C1006  N1077   1.373   .     A
C1006  C1303   1.432   .     S
C1007  O1094   1.283   .     A
C1007  O1097   1.290   .     A
C1007  C1013   1.432   .     S
C1008  O1096   1.293   .     A
C1008  O1095   1.283   .     A
C1008  C1011   1.433   .     S
C1009  C1025   1.495   .     S
C1009  C1020   1.415   .     A
C1009  C1011   1.404   .     A
C1010  C1026   1.488   .     S
C1010  C1021   1.409   .     A
C1010  C1013   1.400   .     A
C1011  C1014   1.399   .     A
C1012  O1091   1.290   .     A
C1012  C1042   1.432   .     S
C1012  O1092   1.291   .     A
C1013  C1015   1.400   .     A
C1014  C1027   1.493   .     S
C1014  C1016   1.400   .     A
C1015  C1017   1.409   .     A
C1015  C1028   1.490   .     S
C1016  C1022   1.406   .     A
C1016  C1018   1.411   .     A
C1017  C1024   1.417   .     A
C1017  C1019   1.423   .     A
C1018  C1020   1.417   .     A
C1018  C119    1.407   1_556 S
C1019  C1021   1.424   .     A
C1020  C1034   1.410   .     A
C1021  C1023   1.423   .     A
C1022  N1079   1.425   .     S
C1022  C123    1.401   1_556 S
C1023  C1031   1.482   .     S
C1024  N1080   1.425   .     S
C1025  H1072   1.085   .     S
C1025  O1098   1.221   .     D
C1026  H1073   1.085   .     S
C1026  O1086   1.220   .     D
C1027  O1087   1.219   .     D
C1027  H1074   1.085   .     S
C1028  O1088   1.221   .     D
C1028  H1075   1.085   .     S
C1029  H1045   1.111   .     S
C1029  N1079   1.448   .     S
C1029  H1044   1.110   .     S
C1029  H1046   1.111   .     S
C1030  H1048   1.110   .     S
C1030  H1050   1.111   .     S
C1030  H1049   1.112   .     S
C1030  N1080   1.445   .     S
C1031  O1089   1.221   .     D
C1031  H1051   1.085   .     S
C1032  H1052   1.079   .     S
C1032  O1090   1.222   .     D
C1032  C1034   1.478   .     S
C1033  H1055   1.110   .     S
C1033  H1056   1.109   .     S
C1033  H1057   1.112   .     S
C1033  N1081   1.447   .     S
C1034  C124    1.397   1_556 S
C1035  H1059   1.107   .     S
C1035  N1082   1.449   .     S
C1035  H1060   1.110   .     S
C1035  H1061   1.112   .     S
C1036  H1066   1.112   .     S
C1036  N1083   1.448   .     S
C1036  H1063   1.110   .     S
C1036  H1064   1.107   .     S
C1037  H1068   1.110   .     S
C1037  H1069   1.106   .     S
C1037  N1084   1.454   .     S
C1037  H1070   1.113   .     S
C1038  H1043   1.082   .     S
C1039  H1054   1.083   .     S
C1039  C1042   1.398   .     A
C1039  C1141   1.376   .     S
C1040  C1042   1.398   .     A
C1040  H1065   1.081   .     S
C1040  C1138   1.373   .     S
C1041  H1071   1.083   .     S
H1047  N1080   1.027   .     S
H1053  N1081   1.030   .     S
H1058  N1082   1.030   .     S
H1062  N1083   1.030   .     S
H1067  N1084   1.030   .     S
H1076  N1079   1.026   .     S
N1077  Zn1099  2.021   .     S
N1078  Zn1100  2.021   .     S
O1085  Zn1099  2.012   .     S
O1091  Zn1100  2.012   .     S
O1092  Zn1099  2.018   .     S
O1093  Zn1100  2.018   .     S
O1094  Zn1099  2.018   .     S
O1095  Zn1100  2.018   .     S
O1096  Zn1099  2.019   .     S
O1097  Zn1100  2.019   .     S
C1101  C1102   1.432   .     S
C1101  O1185   1.287   .     A
C1101  O1193   1.293   .     A
C1102  C1138   1.396   .     A
C1102  C1141   1.401   .     A
C1103  N1181   1.421   .     S
C1103  N1178   1.364   .     A
C1103  C1706   1.432   1_545 S
C1104  N1177   1.371   .     A
C1104  N1182   1.421   .     S
C1104  C1405   1.437   .     S
C1105  N1183   1.420   .     S
C1105  N1178   1.370   .     A
C1105  C1704   1.437   1_545 S
C1106  N1184   1.417   .     S
C1106  N1177   1.373   .     A
C1106  C1403   1.432   .     S
C1107  O1194   1.283   .     A
C1107  O1197   1.290   .     A
C1107  C1113   1.432   .     S
C1108  O1196   1.293   .     A
C1108  O1195   1.283   .     A
C1108  C1111   1.433   .     S
C1109  C1125   1.495   .     S
C1109  C1120   1.415   .     A
C1109  C1111   1.404   .     A
C1110  C1126   1.488   .     S
C1110  C1121   1.409   .     A
C1110  C1113   1.400   .     A
C1111  C1114   1.399   .     A
C1112  O1191   1.290   .     A
C1112  C1142   1.432   .     S
C1112  O1192   1.291   .     A
C1113  C1115   1.400   .     A
C1114  C1127   1.493   .     S
C1114  C1116   1.400   .     A
C1115  C1117   1.409   .     A
C1115  C1128   1.490   .     S
C1116  C1122   1.406   .     A
C1116  C1118   1.411   .     A
C1117  C1124   1.417   .     A
C1117  C1119   1.423   .     A
C1118  C1120   1.417   .     A
C1118  C219    1.407   1_556 S
C1119  C1121   1.424   .     A
C1120  C1134   1.410   .     A
C1121  C1123   1.423   .     A
C1122  N1179   1.425   .     S
C1122  C223    1.401   1_556 S
C1123  C1131   1.482   .     S
C1124  N1180   1.425   .     S
C1125  H1172   1.085   .     S
C1125  O1198   1.221   .     D
C1126  H1173   1.085   .     S
C1126  O1186   1.220   .     D
C1127  O1187   1.219   .     D
C1127  H1174   1.085   .     S
C1128  O1188   1.221   .     D
C1128  H1175   1.085   .     S
C1129  H1145   1.111   .     S
C1129  N1179   1.448   .     S
C1129  H1144   1.110   .     S
C1129  H1146   1.111   .     S
C1130  H1148   1.110   .     S
C1130  H1150   1.111   .     S
C1130  H1149   1.112   .     S
C1130  N1180   1.445   .     S
C1131  O1189   1.221   .     D
C1131  H1151   1.085   .     S
C1132  H1152   1.079   .     S
C1132  O1190   1.222   .     D
C1132  C1134   1.478   .     S
C1133  H1155   1.110   .     S
C1133  H1156   1.109   .     S
C1133  H1157   1.112   .     S
C1133  N1181   1.447   .     S
C1134  C224    1.397   1_556 S
C1135  H1159   1.107   .     S
C1135  N1182   1.449   .     S
C1135  H1160   1.110   .     S
C1135  H1161   1.112   .     S
C1136  H1166   1.112   .     S
C1136  N1183   1.448   .     S
C1136  H1163   1.110   .     S
C1136  H1164   1.107   .     S
C1137  H1168   1.110   .     S
C1137  H1169   1.106   .     S
C1137  N1184   1.454   .     S
C1137  H1170   1.113   .     S
C1138  H1143   1.082   .     S
C1139  H1154   1.083   .     S
C1139  C1142   1.398   .     A
C1139  C941    1.376   1_655 S
C1140  C1142   1.398   .     A
C1140  H1165   1.081   .     S
C1140  C938    1.373   1_655 S
C1141  H1171   1.083   .     S
H1147  N1180   1.027   .     S
H1153  N1181   1.030   .     S
H1158  N1182   1.030   .     S
H1162  N1183   1.030   .     S
H1167  N1184   1.030   .     S
H1176  N1179   1.026   .     S
N1177  Zn1199  2.021   .     S
N1178  Zn1200  2.021   .     S
O1185  Zn1199  2.012   .     S
O1191  Zn1200  2.012   .     S
O1192  Zn1199  2.018   .     S
O1193  Zn1200  2.018   .     S
O1194  Zn1199  2.018   .     S
O1195  Zn1200  2.018   .     S
O1196  Zn1199  2.019   .     S
O1197  Zn1200  2.019   .     S
C1201  C1202   1.432   .     S
C1201  O1285   1.287   .     A
C1201  O1293   1.293   .     A
C1202  C1238   1.396   .     A
C1202  C1241   1.401   .     A
C1203  N1281   1.421   .     S
C1203  N1278   1.364   .     A
C1204  N1277   1.371   .     A
C1204  N1282   1.421   .     S
C1204  C1505   1.437   .     S
C1205  N1283   1.420   .     S
C1205  N1278   1.370   .     A
C1206  N1284   1.417   .     S
C1206  N1277   1.373   .     A
C1206  C1503   1.432   .     S
C1207  O1294   1.283   .     A
C1207  O1297   1.290   .     A
C1207  C1213   1.432   .     S
C1208  O1296   1.293   .     A
C1208  O1295   1.283   .     A
C1208  C1211   1.433   .     S
C1209  C1225   1.495   .     S
C1209  C1220   1.415   .     A
C1209  C1211   1.404   .     A
C1210  C1226   1.488   .     S
C1210  C1221   1.409   .     A
C1210  C1213   1.400   .     A
C1211  C1214   1.399   .     A
C1212  O1291   1.290   .     A
C1212  C1242   1.432   .     S
C1212  O1292   1.291   .     A
C1213  C1215   1.400   .     A
C1214  C1227   1.493   .     S
C1214  C1216   1.400   .     A
C1215  C1217   1.409   .     A
C1215  C1228   1.490   .     S
C1216  C1222   1.406   .     A
C1216  C1218   1.411   .     A
C1217  C1224   1.417   .     A
C1217  C1219   1.423   .     A
C1218  C1220   1.417   .     A
C1218  C319    1.407   1_556 S
C1219  C1221   1.424   .     A
C1220  C1234   1.410   .     A
C1221  C1223   1.423   .     A
C1222  N1279   1.425   .     S
C1222  C323    1.401   1_556 S
C1223  C1231   1.482   .     S
C1224  N1280   1.425   .     S
C1225  H1272   1.085   .     S
C1225  O1298   1.221   .     D
C1226  H1273   1.085   .     S
C1226  O1286   1.220   .     D
C1227  O1287   1.219   .     D
C1227  H1274   1.085   .     S
C1228  O1288   1.221   .     D
C1228  H1275   1.085   .     S
C1229  H1245   1.111   .     S
C1229  N1279   1.448   .     S
C1229  H1244   1.110   .     S
C1229  H1246   1.111   .     S
C1230  H1248   1.110   .     S
C1230  H1250   1.111   .     S
C1230  H1249   1.112   .     S
C1230  N1280   1.445   .     S
C1231  O1289   1.221   .     D
C1231  H1251   1.085   .     S
C1232  H1252   1.079   .     S
C1232  O1290   1.222   .     D
C1232  C1234   1.478   .     S
C1233  H1255   1.110   .     S
C1233  H1256   1.109   .     S
C1233  H1257   1.112   .     S
C1233  N1281   1.447   .     S
C1234  C324    1.397   1_556 S
C1235  H1259   1.107   .     S
C1235  N1282   1.449   .     S
C1235  H1260   1.110   .     S
C1235  H1261   1.112   .     S
C1236  H1266   1.112   .     S
C1236  N1283   1.448   .     S
C1236  H1263   1.110   .     S
C1236  H1264   1.107   .     S
C1237  H1268   1.110   .     S
C1237  H1269   1.106   .     S
C1237  N1284   1.454   .     S
C1237  H1270   1.113   .     S
C1238  H1243   1.082   .     S
C1238  C1440   1.373   1_455 S
C1239  H1254   1.083   .     S
C1239  C1242   1.398   .     A
C1239  C1341   1.376   .     S
C1240  C1242   1.398   .     A
C1240  H1265   1.081   .     S
C1240  C1338   1.373   .     S
C1241  H1271   1.083   .     S
C1241  C1439   1.376   1_455 S
H1247  N1280   1.027   .     S
H1253  N1281   1.030   .     S
H1258  N1282   1.030   .     S
H1262  N1283   1.030   .     S
H1267  N1284   1.030   .     S
H1276  N1279   1.026   .     S
N1277  Zn1299  2.021   .     S
N1278  Zn1300  2.021   .     S
O1285  Zn1299  2.012   .     S
O1291  Zn1300  2.012   .     S
O1292  Zn1299  2.018   .     S
O1293  Zn1300  2.018   .     S
O1294  Zn1299  2.018   .     S
O1295  Zn1300  2.018   .     S
O1296  Zn1299  2.019   .     S
O1297  Zn1300  2.019   .     S
C1301  C1302   1.432   .     S
C1301  O1385   1.287   .     A
C1301  O1393   1.293   .     A
C1302  C1338   1.396   .     A
C1302  C1341   1.401   .     A
C1303  N1381   1.421   .     S
C1303  N1378   1.364   .     A
C1304  N1377   1.371   .     A
C1304  N1382   1.421   .     S
C1304  C1605   1.437   .     S
C1305  N1383   1.420   .     S
C1305  N1378   1.370   .     A
C1306  N1384   1.417   .     S
C1306  N1377   1.373   .     A
C1306  C1603   1.432   .     S
C1307  O1394   1.283   .     A
C1307  O1397   1.290   .     A
C1307  C1313   1.432   .     S
C1308  O1396   1.293   .     A
C1308  O1395   1.283   .     A
C1308  C1311   1.433   .     S
C1309  C1325   1.495   .     S
C1309  C1320   1.415   .     A
C1309  C1311   1.404   .     A
C1310  C1326   1.488   .     S
C1310  C1321   1.409   .     A
C1310  C1313   1.400   .     A
C1311  C1314   1.399   .     A
C1312  O1391   1.290   .     A
C1312  C1342   1.432   .     S
C1312  O1392   1.291   .     A
C1313  C1315   1.400   .     A
C1314  C1327   1.493   .     S
C1314  C1316   1.400   .     A
C1315  C1317   1.409   .     A
C1315  C1328   1.490   .     S
C1316  C1322   1.406   .     A
C1316  C1318   1.411   .     A
C1317  C1324   1.417   .     A
C1317  C1319   1.423   .     A
C1318  C1320   1.417   .     A
C1318  C419    1.407   1_556 S
C1319  C1321   1.424   .     A
C1320  C1334   1.410   .     A
C1321  C1323   1.423   .     A
C1322  N1379   1.425   .     S
C1322  C423    1.401   1_556 S
C1323  C1331   1.482   .     S
C1324  N1380   1.425   .     S
C1325  H1372   1.085   .     S
C1325  O1398   1.221   .     D
C1326  H1373   1.085   .     S
C1326  O1386   1.220   .     D
C1327  O1387   1.219   .     D
C1327  H1374   1.085   .     S
C1328  O1388   1.221   .     D
C1328  H1375   1.085   .     S
C1329  H1345   1.111   .     S
C1329  N1379   1.448   .     S
C1329  H1344   1.110   .     S
C1329  H1346   1.111   .     S
C1330  H1348   1.110   .     S
C1330  H1350   1.111   .     S
C1330  H1349   1.112   .     S
C1330  N1380   1.445   .     S
C1331  O1389   1.221   .     D
C1331  H1351   1.085   .     S
C1332  H1352   1.079   .     S
C1332  O1390   1.222   .     D
C1332  C1334   1.478   .     S
C1333  H1355   1.110   .     S
C1333  H1356   1.109   .     S
C1333  H1357   1.112   .     S
C1333  N1381   1.447   .     S
C1334  C424    1.397   1_556 S
C1335  H1359   1.107   .     S
C1335  N1382   1.449   .     S
C1335  H1360   1.110   .     S
C1335  H1361   1.112   .     S
C1336  H1366   1.112   .     S
C1336  N1383   1.448   .     S
C1336  H1363   1.110   .     S
C1336  H1364   1.107   .     S
C1337  H1368   1.110   .     S
C1337  H1369   1.106   .     S
C1337  N1384   1.454   .     S
C1337  H1370   1.113   .     S
C1338  H1343   1.082   .     S
C1339  H1354   1.083   .     S
C1339  C1342   1.398   .     A
C1339  C1441   1.376   .     S
C1340  C1342   1.398   .     A
C1340  H1365   1.081   .     S
C1340  C1438   1.373   .     S
C1341  H1371   1.083   .     S
H1347  N1380   1.027   .     S
H1353  N1381   1.030   .     S
H1358  N1382   1.030   .     S
H1362  N1383   1.030   .     S
H1367  N1384   1.030   .     S
H1376  N1379   1.026   .     S
N1377  Zn1399  2.021   .     S
N1378  Zn1400  2.021   .     S
O1385  Zn1399  2.012   .     S
O1391  Zn1400  2.012   .     S
O1392  Zn1399  2.018   .     S
O1393  Zn1400  2.018   .     S
O1394  Zn1399  2.018   .     S
O1395  Zn1400  2.018   .     S
O1396  Zn1399  2.019   .     S
O1397  Zn1400  2.019   .     S
C1401  C1402   1.432   .     S
C1401  O1485   1.287   .     A
C1401  O1493   1.293   .     A
C1402  C1438   1.396   .     A
C1402  C1441   1.401   .     A
C1403  N1481   1.421   .     S
C1403  N1478   1.364   .     A
C1404  N1477   1.371   .     A
C1404  N1482   1.421   .     S
C1404  C1705   1.437   .     S
C1405  N1483   1.420   .     S
C1405  N1478   1.370   .     A
C1406  N1484   1.417   .     S
C1406  N1477   1.373   .     A
C1406  C1703   1.432   .     S
C1407  O1494   1.283   .     A
C1407  O1497   1.290   .     A
C1407  C1413   1.432   .     S
C1408  O1496   1.293   .     A
C1408  O1495   1.283   .     A
C1408  C1411   1.433   .     S
C1409  C1425   1.495   .     S
C1409  C1420   1.415   .     A
C1409  C1411   1.404   .     A
C1410  C1426   1.488   .     S
C1410  C1421   1.409   .     A
C1410  C1413   1.400   .     A
C1411  C1414   1.399   .     A
C1412  O1491   1.290   .     A
C1412  C1442   1.432   .     S
C1412  O1492   1.291   .     A
C1413  C1415   1.400   .     A
C1414  C1427   1.493   .     S
C1414  C1416   1.400   .     A
C1415  C1417   1.409   .     A
C1415  C1428   1.490   .     S
C1416  C1422   1.406   .     A
C1416  C1418   1.411   .     A
C1417  C1424   1.417   .     A
C1417  C1419   1.423   .     A
C1418  C1420   1.417   .     A
C1418  C519    1.407   1_556 S
C1419  C1421   1.424   .     A
C1420  C1434   1.410   .     A
C1421  C1423   1.423   .     A
C1422  N1479   1.425   .     S
C1422  C523    1.401   1_556 S
C1423  C1431   1.482   .     S
C1424  N1480   1.425   .     S
C1425  H1472   1.085   .     S
C1425  O1498   1.221   .     D
C1426  H1473   1.085   .     S
C1426  O1486   1.220   .     D
C1427  O1487   1.219   .     D
C1427  H1474   1.085   .     S
C1428  O1488   1.221   .     D
C1428  H1475   1.085   .     S
C1429  H1445   1.111   .     S
C1429  N1479   1.448   .     S
C1429  H1444   1.110   .     S
C1429  H1446   1.111   .     S
C1430  H1448   1.110   .     S
C1430  H1450   1.111   .     S
C1430  H1449   1.112   .     S
C1430  N1480   1.445   .     S
C1431  O1489   1.221   .     D
C1431  H1451   1.085   .     S
C1432  H1452   1.079   .     S
C1432  O1490   1.222   .     D
C1432  C1434   1.478   .     S
C1433  H1455   1.110   .     S
C1433  H1456   1.109   .     S
C1433  H1457   1.112   .     S
C1433  N1481   1.447   .     S
C1434  C524    1.397   1_556 S
C1435  H1459   1.107   .     S
C1435  N1482   1.449   .     S
C1435  H1460   1.110   .     S
C1435  H1461   1.112   .     S
C1436  H1466   1.112   .     S
C1436  N1483   1.448   .     S
C1436  H1463   1.110   .     S
C1436  H1464   1.107   .     S
C1437  H1468   1.110   .     S
C1437  H1469   1.106   .     S
C1437  N1484   1.454   .     S
C1437  H1470   1.113   .     S
C1438  H1443   1.082   .     S
C1439  H1454   1.083   .     S
C1439  C1442   1.398   .     A
C1439  C1241   1.376   1_655 S
C1440  C1442   1.398   .     A
C1440  H1465   1.081   .     S
C1440  C1238   1.373   1_655 S
C1441  H1471   1.083   .     S
H1447  N1480   1.027   .     S
H1453  N1481   1.030   .     S
H1458  N1482   1.030   .     S
H1462  N1483   1.030   .     S
H1467  N1484   1.030   .     S
H1476  N1479   1.026   .     S
N1477  Zn1499  2.021   .     S
N1478  Zn1500  2.021   .     S
O1485  Zn1499  2.012   .     S
O1491  Zn1500  2.012   .     S
O1492  Zn1499  2.018   .     S
O1493  Zn1500  2.018   .     S
O1494  Zn1499  2.018   .     S
O1495  Zn1500  2.018   .     S
O1496  Zn1499  2.019   .     S
O1497  Zn1500  2.019   .     S
C1501  C1502   1.432   .     S
C1501  O1585   1.287   .     A
C1501  O1593   1.293   .     A
C1502  C1538   1.396   .     A
C1502  C1541   1.401   .     A
C1503  N1581   1.421   .     S
C1503  N1578   1.364   .     A
C1504  N1577   1.371   .     A
C1504  N1582   1.421   .     S
C1504  C905    1.437   1_565 S
C1505  N1583   1.420   .     S
C1505  N1578   1.370   .     A
C1506  N1584   1.417   .     S
C1506  N1577   1.373   .     A
C1506  C903    1.432   1_565 S
C1507  O1594   1.283   .     A
C1507  O1597   1.290   .     A
C1507  C1513   1.432   .     S
C1508  O1596   1.293   .     A
C1508  O1595   1.283   .     A
C1508  C1511   1.433   .     S
C1509  C1525   1.495   .     S
C1509  C1520   1.415   .     A
C1509  C1511   1.404   .     A
C1510  C1526   1.488   .     S
C1510  C1521   1.409   .     A
C1510  C1513   1.400   .     A
C1511  C1514   1.399   .     A
C1512  O1591   1.290   .     A
C1512  C1542   1.432   .     S
C1512  O1592   1.291   .     A
C1513  C1515   1.400   .     A
C1514  C1527   1.493   .     S
C1514  C1516   1.400   .     A
C1515  C1517   1.409   .     A
C1515  C1528   1.490   .     S
C1516  C1522   1.406   .     A
C1516  C1518   1.411   .     A
C1517  C1524   1.417   .     A
C1517  C1519   1.423   .     A
C1518  C1520   1.417   .     A
C1518  C619    1.407   1_556 S
C1519  C1521   1.424   .     A
C1520  C1534   1.410   .     A
C1521  C1523   1.423   .     A
C1522  N1579   1.425   .     S
C1522  C623    1.401   1_556 S
C1523  C1531   1.482   .     S
C1524  N1580   1.425   .     S
C1525  H1572   1.085   .     S
C1525  O1598   1.221   .     D
C1526  H1573   1.085   .     S
C1526  O1586   1.220   .     D
C1527  O1587   1.219   .     D
C1527  H1574   1.085   .     S
C1528  O1588   1.221   .     D
C1528  H1575   1.085   .     S
C1529  H1545   1.111   .     S
C1529  N1579   1.448   .     S
C1529  H1544   1.110   .     S
C1529  H1546   1.111   .     S
C1530  H1548   1.110   .     S
C1530  H1550   1.111   .     S
C1530  H1549   1.112   .     S
C1530  N1580   1.445   .     S
C1531  O1589   1.221   .     D
C1531  H1551   1.085   .     S
C1532  H1552   1.079   .     S
C1532  O1590   1.222   .     D
C1532  C1534   1.478   .     S
C1533  H1555   1.110   .     S
C1533  H1556   1.109   .     S
C1533  H1557   1.112   .     S
C1533  N1581   1.447   .     S
C1534  C624    1.397   1_556 S
C1535  H1559   1.107   .     S
C1535  N1582   1.449   .     S
C1535  H1560   1.110   .     S
C1535  H1561   1.112   .     S
C1536  H1566   1.112   .     S
C1536  N1583   1.448   .     S
C1536  H1563   1.110   .     S
C1536  H1564   1.107   .     S
C1537  H1568   1.110   .     S
C1537  H1569   1.106   .     S
C1537  N1584   1.454   .     S
C1537  H1570   1.113   .     S
C1538  H1543   1.082   .     S
C1538  C1740   1.373   1_455 S
C1539  H1554   1.083   .     S
C1539  C1542   1.398   .     A
C1539  C1641   1.376   .     S
C1540  C1542   1.398   .     A
C1540  H1565   1.081   .     S
C1540  C1638   1.373   .     S
C1541  H1571   1.083   .     S
C1541  C1739   1.376   1_455 S
H1547  N1580   1.027   .     S
H1553  N1581   1.030   .     S
H1558  N1582   1.030   .     S
H1562  N1583   1.030   .     S
H1567  N1584   1.030   .     S
H1576  N1579   1.026   .     S
N1577  Zn1599  2.021   .     S
N1578  Zn1600  2.021   .     S
O1585  Zn1599  2.012   .     S
O1591  Zn1600  2.012   .     S
O1592  Zn1599  2.018   .     S
O1593  Zn1600  2.018   .     S
O1594  Zn1599  2.018   .     S
O1595  Zn1600  2.018   .     S
O1596  Zn1599  2.019   .     S
O1597  Zn1600  2.019   .     S
C1601  C1602   1.432   .     S
C1601  O1685   1.287   .     A
C1601  O1693   1.293   .     A
C1602  C1638   1.396   .     A
C1602  C1641   1.401   .     A
C1603  N1681   1.421   .     S
C1603  N1678   1.364   .     A
C1604  N1677   1.371   .     A
C1604  N1682   1.421   .     S
C1604  C1005   1.437   1_565 S
C1605  N1683   1.420   .     S
C1605  N1678   1.370   .     A
C1606  N1684   1.417   .     S
C1606  N1677   1.373   .     A
C1606  C1003   1.432   1_565 S
C1607  O1694   1.283   .     A
C1607  O1697   1.290   .     A
C1607  C1613   1.432   .     S
C1608  O1696   1.293   .     A
C1608  O1695   1.283   .     A
C1608  C1611   1.433   .     S
C1609  C1625   1.495   .     S
C1609  C1620   1.415   .     A
C1609  C1611   1.404   .     A
C1610  C1626   1.488   .     S
C1610  C1621   1.409   .     A
C1610  C1613   1.400   .     A
C1611  C1614   1.399   .     A
C1612  O1691   1.290   .     A
C1612  C1642   1.432   .     S
C1612  O1692   1.291   .     A
C1613  C1615   1.400   .     A
C1614  C1627   1.493   .     S
C1614  C1616   1.400   .     A
C1615  C1617   1.409   .     A
C1615  C1628   1.490   .     S
C1616  C1622   1.406   .     A
C1616  C1618   1.411   .     A
C1617  C1624   1.417   .     A
C1617  C1619   1.423   .     A
C1618  C1620   1.417   .     A
C1618  C719    1.407   1_556 S
C1619  C1621   1.424   .     A
C1620  C1634   1.410   .     A
C1621  C1623   1.423   .     A
C1622  N1679   1.425   .     S
C1622  C723    1.401   1_556 S
C1623  C1631   1.482   .     S
C1624  N1680   1.425   .     S
C1625  H1672   1.085   .     S
C1625  O1698   1.221   .     D
C1626  H1673   1.085   .     S
C1626  O1686   1.220   .     D
C1627  O1687   1.219   .     D
C1627  H1674   1.085   .     S
C1628  O1688   1.221   .     D
C1628  H1675   1.085   .     S
C1629  H1645   1.111   .     S
C1629  N1679   1.448   .     S
C1629  H1644   1.110   .     S
C1629  H1646   1.111   .     S
C1630  H1648   1.110   .     S
C1630  H1650   1.111   .     S
C1630  H1649   1.112   .     S
C1630  N1680   1.445   .     S
C1631  O1689   1.221   .     D
C1631  H1651   1.085   .     S
C1632  H1652   1.079   .     S
C1632  O1690   1.222   .     D
C1632  C1634   1.478   .     S
C1633  H1655   1.110   .     S
C1633  H1656   1.109   .     S
C1633  H1657   1.112   .     S
C1633  N1681   1.447   .     S
C1634  C724    1.397   1_556 S
C1635  H1659   1.107   .     S
C1635  N1682   1.449   .     S
C1635  H1660   1.110   .     S
C1635  H1661   1.112   .     S
C1636  H1666   1.112   .     S
C1636  N1683   1.448   .     S
C1636  H1663   1.110   .     S
C1636  H1664   1.107   .     S
C1637  H1668   1.110   .     S
C1637  H1669   1.106   .     S
C1637  N1684   1.454   .     S
C1637  H1670   1.113   .     S
C1638  H1643   1.082   .     S
C1639  H1654   1.083   .     S
C1639  C1642   1.398   .     A
C1639  C1741   1.376   .     S
C1640  C1642   1.398   .     A
C1640  H1665   1.081   .     S
C1640  C1738   1.373   .     S
C1641  H1671   1.083   .     S
H1647  N1680   1.027   .     S
H1653  N1681   1.030   .     S
H1658  N1682   1.030   .     S
H1662  N1683   1.030   .     S
H1667  N1684   1.030   .     S
H1676  N1679   1.026   .     S
N1677  Zn1699  2.021   .     S
N1678  Zn1700  2.021   .     S
O1685  Zn1699  2.012   .     S
O1691  Zn1700  2.012   .     S
O1692  Zn1699  2.018   .     S
O1693  Zn1700  2.018   .     S
O1694  Zn1699  2.018   .     S
O1695  Zn1700  2.018   .     S
O1696  Zn1699  2.019   .     S
O1697  Zn1700  2.019   .     S
C1701  C1702   1.432   .     S
C1701  O1785   1.287   .     A
C1701  O1793   1.293   .     A
C1702  C1738   1.396   .     A
C1702  C1741   1.401   .     A
C1703  N1781   1.421   .     S
C1703  N1778   1.364   .     A
C1704  N1777   1.371   .     A
C1704  N1782   1.421   .     S
C1704  C1105   1.437   1_565 S
C1705  N1783   1.420   .     S
C1705  N1778   1.370   .     A
C1706  N1784   1.417   .     S
C1706  N1777   1.373   .     A
C1706  C1103   1.432   1_565 S
C1707  O1794   1.283   .     A
C1707  O1797   1.290   .     A
C1707  C1713   1.432   .     S
C1708  O1796   1.293   .     A
C1708  O1795   1.283   .     A
C1708  C1711   1.433   .     S
C1709  C1725   1.495   .     S
C1709  C1720   1.415   .     A
C1709  C1711   1.404   .     A
C1710  C1726   1.488   .     S
C1710  C1721   1.409   .     A
C1710  C1713   1.400   .     A
C1711  C1714   1.399   .     A
C1712  O1791   1.290   .     A
C1712  C1742   1.432   .     S
C1712  O1792   1.291   .     A
C1713  C1715   1.400   .     A
C1714  C1727   1.493   .     S
C1714  C1716   1.400   .     A
C1715  C1717   1.409   .     A
C1715  C1728   1.490   .     S
C1716  C1722   1.406   .     A
C1716  C1718   1.411   .     A
C1717  C1724   1.417   .     A
C1717  C1719   1.423   .     A
C1718  C1720   1.417   .     A
C1718  C819    1.407   1_556 S
C1719  C1721   1.424   .     A
C1720  C1734   1.410   .     A
C1721  C1723   1.423   .     A
C1722  N1779   1.425   .     S
C1722  C823    1.401   1_556 S
C1723  C1731   1.482   .     S
C1724  N1780   1.425   .     S
C1725  H1772   1.085   .     S
C1725  O1798   1.221   .     D
C1726  H1773   1.085   .     S
C1726  O1786   1.220   .     D
C1727  O1787   1.219   .     D
C1727  H1774   1.085   .     S
C1728  O1788   1.221   .     D
C1728  H1775   1.085   .     S
C1729  H1745   1.111   .     S
C1729  N1779   1.448   .     S
C1729  H1744   1.110   .     S
C1729  H1746   1.111   .     S
C1730  H1748   1.110   .     S
C1730  H1750   1.111   .     S
C1730  H1749   1.112   .     S
C1730  N1780   1.445   .     S
C1731  O1789   1.221   .     D
C1731  H1751   1.085   .     S
C1732  H1752   1.079   .     S
C1732  O1790   1.222   .     D
C1732  C1734   1.478   .     S
C1733  H1755   1.110   .     S
C1733  H1756   1.109   .     S
C1733  H1757   1.112   .     S
C1733  N1781   1.447   .     S
C1734  C824    1.397   1_556 S
C1735  H1759   1.107   .     S
C1735  N1782   1.449   .     S
C1735  H1760   1.110   .     S
C1735  H1761   1.112   .     S
C1736  H1766   1.112   .     S
C1736  N1783   1.448   .     S
C1736  H1763   1.110   .     S
C1736  H1764   1.107   .     S
C1737  H1768   1.110   .     S
C1737  H1769   1.106   .     S
C1737  N1784   1.454   .     S
C1737  H1770   1.113   .     S
C1738  H1743   1.082   .     S
C1739  H1754   1.083   .     S
C1739  C1742   1.398   .     A
C1739  C1541   1.376   1_655 S
C1740  C1742   1.398   .     A
C1740  H1765   1.081   .     S
C1740  C1538   1.373   1_655 S
C1741  H1771   1.083   .     S
H1747  N1780   1.027   .     S
H1753  N1781   1.030   .     S
H1758  N1782   1.030   .     S
H1762  N1783   1.030   .     S
H1767  N1784   1.030   .     S
H1776  N1779   1.026   .     S
N1777  Zn1799  2.021   .     S
N1778  Zn1800  2.021   .     S
O1785  Zn1799  2.012   .     S
O1791  Zn1800  2.012   .     S
O1792  Zn1799  2.018   .     S
O1793  Zn1800  2.018   .     S
O1794  Zn1799  2.018   .     S
O1795  Zn1800  2.018   .     S
O1796  Zn1799  2.019   .     S
O1797  Zn1800  2.019   .     S
