data_str_m3_o1_o18_pcu_sym.157
_audit_creation_date              2020-01-03
_audit_creation_method            'Materials Studio'
_symmetry_space_group_name_H-M    'P1'
_symmetry_Int_Tables_number       1
_symmetry_cell_setting            triclinic
loop_
_symmetry_equiv_pos_as_xyz
  x,y,z
_cell_length_a                    29.6934
_cell_length_b                    32.1095
_cell_length_c                    30.9428
_cell_angle_alpha                 90.9210
_cell_angle_beta                  67.9763
_cell_angle_gamma                 90.4562
loop_
_atom_site_label
_atom_site_type_symbol
_atom_site_fract_x
_atom_site_fract_y
_atom_site_fract_z
_atom_site_U_iso_or_equiv
_atom_site_adp_type
_atom_site_occupancy
C1     C     0.16673   0.24665   0.25016   0.00000  Uiso   1.00
C2     C     0.16660   0.08669   0.24985   0.00000  Uiso   1.00
C3     C     0.12317   0.21372   0.04421   0.00000  Uiso   1.00
C4     C     0.22769   0.16960   0.44561   0.00000  Uiso   1.00
C5     C     0.08977   0.22044   0.02340   0.00000  Uiso   1.00
C6     C     0.26137   0.16312   0.46603   0.00000  Uiso   1.00
C7     C     0.21079   0.31215   0.23830   0.00000  Uiso   1.00
C8     C     0.12253   0.02117   0.26175   0.00000  Uiso   1.00
C9     C     0.21072   0.02148   0.23798   0.00000  Uiso   1.00
C10    C     0.12259   0.31185   0.26207   0.00000  Uiso   1.00
C11    C     0.16658   0.04251   0.24974   0.00000  Uiso   1.00
C12    C     0.16673   0.29082   0.25031   0.00000  Uiso   1.00
C13    C     0.31976   0.14003   0.22174   0.00000  Uiso   1.00
C14    C     0.01357   0.19329   0.27827   0.00000  Uiso   1.00
C15    C     0.03414   0.13985   0.22155   0.00000  Uiso   1.00
C16    C     0.29922   0.19353   0.27841   0.00000  Uiso   1.00
C17    C     0.13628   0.16725   0.33796   0.00000  Uiso   1.00
C18    C     0.19710   0.16704   0.16206   0.00000  Uiso   1.00
C19    C     0.11814   0.17455   0.38817   0.00000  Uiso   1.00
C20    C     0.21651   0.16917   0.11136   0.00000  Uiso   1.00
C21    C     0.06431   0.21112   0.45741   0.00000  Uiso   1.00
C22    C     0.28004   0.15563   0.03572   0.00000  Uiso   1.00
C23    C     0.07484   0.19606   0.41170   0.00000  Uiso   1.00
C24    C     0.26408   0.15705   0.08456   0.00000  Uiso   1.00
C25    C     0.14996   0.16669   0.41034   0.00000  Uiso   1.00
C26    C     0.18571   0.18242   0.08989   0.00000  Uiso   1.00
C27    C     0.14320   0.18478   0.45349   0.00000  Uiso   1.00
C28    C     0.20044   0.18214   0.04148   0.00000  Uiso   1.00
C29    C     0.09872   0.20546   0.47833   0.00000  Uiso   1.00
C30    C     0.24773   0.16725   0.01422   0.00000  Uiso   1.00
C31    C     0.17955   0.18204   0.47261   0.00000  Uiso   1.00
C32    C     0.16762   0.19291   0.01996   0.00000  Uiso   1.00
H33    H     0.05649   0.23686   0.04319   0.00000  Uiso   1.00
H34    H     0.29765   0.15322   0.44397   0.00000  Uiso   1.00
H35    H     0.14906   0.19062   0.11188   0.00000  Uiso   1.00
H36    H     0.18095   0.14711   0.39239   0.00000  Uiso   1.00
H37    H     0.28798   0.14707   0.10160   0.00000  Uiso   1.00
H38    H     0.05035   0.20250   0.39404   0.00000  Uiso   1.00
H39    H     0.11396   0.22662   0.07886   0.00000  Uiso   1.00
H40    H     0.24074   0.16566   0.40822   0.00000  Uiso   1.00
H41    H     0.24513   0.29599   0.22877   0.00000  Uiso   1.00
H42    H     0.08818   0.03734   0.27127   0.00000  Uiso   1.00
H43    H     0.24508   0.03788   0.22828   0.00000  Uiso   1.00
H44    H     0.08824   0.29545   0.27179   0.00000  Uiso   1.00
H45    H     0.30993   0.11880   0.19919   0.00000  Uiso   1.00
H46    H     0.02341   0.21452   0.30082   0.00000  Uiso   1.00
N47    N     0.04759   0.16668   0.25001   0.00000  Uiso   1.00
N48    N     0.28574   0.16666   0.24999   0.00000  Uiso   1.00
O49    O     0.12846   0.22775   0.25001   0.00000  Uiso   1.00
O50    O     0.20488   0.10558   0.24999   0.00000  Uiso   1.00
O51    O     0.20490   0.22774   0.25000   0.00000  Uiso   1.00
O52    O     0.12843   0.10559   0.25000   0.00000  Uiso   1.00
O53    O     0.10661   0.16667   0.31613   0.00000  Uiso   1.00
O54    O     0.22672   0.16666   0.18388   0.00000  Uiso   1.00
O55    O     0.18305   0.16666   0.31612   0.00000  Uiso   1.00
O56    O     0.15028   0.16667   0.18388   0.00000  Uiso   1.00
Zn57   Zn    0.11562   0.16667   0.25000   0.00000  Uiso   1.00
Zn58   Zn    0.21771   0.16666   0.25000   0.00000  Uiso   1.00
O59    O     0.02180   0.23251   0.48140   0.00000  Uiso   1.00
H60    H     0.00201   0.23358   0.46178   0.00000  Uiso   1.00
O61    O     0.32592   0.14128   0.00871   0.00000  Uiso   1.00
H62    H     0.01046   0.13491   0.02920   0.00000  Uiso   1.00
I63    I     0.08191   0.09614   0.17514   0.00000  Uiso   1.00
I64    I     0.25165   0.23759   0.32444   0.00000  Uiso   1.00
C65    C     0.50006   0.24665   0.25016   0.00000  Uiso   1.00
C66    C     0.49993   0.08669   0.24985   0.00000  Uiso   1.00
C67    C     0.45650   0.21372   0.04421   0.00000  Uiso   1.00
C68    C     0.56103   0.16960   0.44561   0.00000  Uiso   1.00
C69    C     0.42310   0.22044   0.02340   0.00000  Uiso   1.00
C70    C     0.59471   0.16312   0.46603   0.00000  Uiso   1.00
C71    C     0.54412   0.31215   0.23830   0.00000  Uiso   1.00
C72    C     0.45586   0.02117   0.26175   0.00000  Uiso   1.00
C73    C     0.54406   0.02148   0.23798   0.00000  Uiso   1.00
C74    C     0.45592   0.31185   0.26207   0.00000  Uiso   1.00
C75    C     0.49992   0.04251   0.24974   0.00000  Uiso   1.00
C76    C     0.50007   0.29082   0.25031   0.00000  Uiso   1.00
C77    C     0.65309   0.14003   0.22174   0.00000  Uiso   1.00
C78    C     0.34691   0.19329   0.27827   0.00000  Uiso   1.00
C79    C     0.36747   0.13985   0.22155   0.00000  Uiso   1.00
C80    C     0.63255   0.19353   0.27841   0.00000  Uiso   1.00
C81    C     0.46962   0.16725   0.33796   0.00000  Uiso   1.00
C82    C     0.53044   0.16704   0.16206   0.00000  Uiso   1.00
C83    C     0.45147   0.17455   0.38817   0.00000  Uiso   1.00
C84    C     0.54984   0.16917   0.11136   0.00000  Uiso   1.00
C85    C     0.39764   0.21112   0.45741   0.00000  Uiso   1.00
C86    C     0.61337   0.15563   0.03572   0.00000  Uiso   1.00
C87    C     0.40817   0.19606   0.41170   0.00000  Uiso   1.00
C88    C     0.59741   0.15705   0.08456   0.00000  Uiso   1.00
C89    C     0.48329   0.16669   0.41034   0.00000  Uiso   1.00
C90    C     0.51904   0.18242   0.08989   0.00000  Uiso   1.00
C91    C     0.47654   0.18478   0.45349   0.00000  Uiso   1.00
C92    C     0.53377   0.18214   0.04148   0.00000  Uiso   1.00
C93    C     0.43205   0.20546   0.47833   0.00000  Uiso   1.00
C94    C     0.58106   0.16725   0.01422   0.00000  Uiso   1.00
C95    C     0.51288   0.18204   0.47261   0.00000  Uiso   1.00
C96    C     0.50096   0.19291   0.01996   0.00000  Uiso   1.00
H97    H     0.38982   0.23686   0.04319   0.00000  Uiso   1.00
H98    H     0.63098   0.15322   0.44397   0.00000  Uiso   1.00
H99    H     0.48239   0.19062   0.11188   0.00000  Uiso   1.00
H100   H     0.51428   0.14711   0.39239   0.00000  Uiso   1.00
H101   H     0.62131   0.14707   0.10160   0.00000  Uiso   1.00
H102   H     0.38369   0.20250   0.39404   0.00000  Uiso   1.00
H103   H     0.44730   0.22662   0.07886   0.00000  Uiso   1.00
H104   H     0.57408   0.16566   0.40822   0.00000  Uiso   1.00
H105   H     0.57847   0.29599   0.22877   0.00000  Uiso   1.00
H106   H     0.42152   0.03734   0.27127   0.00000  Uiso   1.00
H107   H     0.57841   0.03788   0.22828   0.00000  Uiso   1.00
H108   H     0.42157   0.29545   0.27179   0.00000  Uiso   1.00
H109   H     0.64326   0.11880   0.19919   0.00000  Uiso   1.00
H110   H     0.35674   0.21452   0.30082   0.00000  Uiso   1.00
N111   N     0.38093   0.16668   0.25001   0.00000  Uiso   1.00
N112   N     0.61907   0.16666   0.24999   0.00000  Uiso   1.00
O113   O     0.46179   0.22775   0.25001   0.00000  Uiso   1.00
O114   O     0.53821   0.10558   0.24999   0.00000  Uiso   1.00
O115   O     0.53823   0.22774   0.25000   0.00000  Uiso   1.00
O116   O     0.46177   0.10559   0.25000   0.00000  Uiso   1.00
O117   O     0.43994   0.16667   0.31613   0.00000  Uiso   1.00
O118   O     0.56006   0.16666   0.18388   0.00000  Uiso   1.00
O119   O     0.51639   0.16666   0.31612   0.00000  Uiso   1.00
O120   O     0.48361   0.16667   0.18388   0.00000  Uiso   1.00
Zn121  Zn    0.44896   0.16667   0.25000   0.00000  Uiso   1.00
Zn122  Zn    0.55104   0.16666   0.25000   0.00000  Uiso   1.00
O123   O     0.35513   0.23251   0.48140   0.00000  Uiso   1.00
H124   H     0.33535   0.23358   0.46178   0.00000  Uiso   1.00
O125   O     0.65925   0.14128   0.00871   0.00000  Uiso   1.00
H126   H     0.34379   0.13491   0.02920   0.00000  Uiso   1.00
I127   I     0.41524   0.09614   0.17514   0.00000  Uiso   1.00
I128   I     0.58498   0.23759   0.32444   0.00000  Uiso   1.00
C129   C     0.83339   0.24665   0.25016   0.00000  Uiso   1.00
C130   C     0.83327   0.08669   0.24985   0.00000  Uiso   1.00
C131   C     0.78983   0.21372   0.04421   0.00000  Uiso   1.00
C132   C     0.89436   0.16960   0.44561   0.00000  Uiso   1.00
C133   C     0.75644   0.22044   0.02340   0.00000  Uiso   1.00
C134   C     0.92804   0.16312   0.46603   0.00000  Uiso   1.00
C135   C     0.87745   0.31215   0.23830   0.00000  Uiso   1.00
C136   C     0.78919   0.02117   0.26175   0.00000  Uiso   1.00
C137   C     0.87739   0.02148   0.23798   0.00000  Uiso   1.00
C138   C     0.78926   0.31185   0.26207   0.00000  Uiso   1.00
C139   C     0.83325   0.04251   0.24974   0.00000  Uiso   1.00
C140   C     0.83340   0.29082   0.25031   0.00000  Uiso   1.00
C141   C     0.98642   0.14003   0.22174   0.00000  Uiso   1.00
C142   C     0.68024   0.19329   0.27827   0.00000  Uiso   1.00
C143   C     0.70081   0.13985   0.22155   0.00000  Uiso   1.00
C144   C     0.96588   0.19353   0.27841   0.00000  Uiso   1.00
C145   C     0.80295   0.16725   0.33796   0.00000  Uiso   1.00
C146   C     0.86377   0.16704   0.16206   0.00000  Uiso   1.00
C147   C     0.78480   0.17455   0.38817   0.00000  Uiso   1.00
C148   C     0.88318   0.16917   0.11136   0.00000  Uiso   1.00
C149   C     0.73097   0.21112   0.45741   0.00000  Uiso   1.00
C150   C     0.94671   0.15563   0.03572   0.00000  Uiso   1.00
C151   C     0.74151   0.19606   0.41170   0.00000  Uiso   1.00
C152   C     0.93074   0.15705   0.08456   0.00000  Uiso   1.00
C153   C     0.81662   0.16669   0.41034   0.00000  Uiso   1.00
C154   C     0.85238   0.18242   0.08989   0.00000  Uiso   1.00
C155   C     0.80987   0.18478   0.45349   0.00000  Uiso   1.00
C156   C     0.86710   0.18214   0.04148   0.00000  Uiso   1.00
C157   C     0.76538   0.20546   0.47833   0.00000  Uiso   1.00
C158   C     0.91440   0.16725   0.01422   0.00000  Uiso   1.00
C159   C     0.84621   0.18204   0.47261   0.00000  Uiso   1.00
C160   C     0.83429   0.19291   0.01996   0.00000  Uiso   1.00
H161   H     0.72315   0.23686   0.04319   0.00000  Uiso   1.00
H162   H     0.96431   0.15322   0.44397   0.00000  Uiso   1.00
H163   H     0.81572   0.19062   0.11188   0.00000  Uiso   1.00
H164   H     0.84761   0.14711   0.39239   0.00000  Uiso   1.00
H165   H     0.95465   0.14707   0.10160   0.00000  Uiso   1.00
H166   H     0.71702   0.20250   0.39404   0.00000  Uiso   1.00
H167   H     0.78063   0.22662   0.07886   0.00000  Uiso   1.00
H168   H     0.90741   0.16566   0.40822   0.00000  Uiso   1.00
H169   H     0.91180   0.29599   0.22877   0.00000  Uiso   1.00
H170   H     0.75485   0.03734   0.27127   0.00000  Uiso   1.00
H171   H     0.91174   0.03788   0.22828   0.00000  Uiso   1.00
H172   H     0.75491   0.29545   0.27179   0.00000  Uiso   1.00
H173   H     0.97660   0.11880   0.19919   0.00000  Uiso   1.00
H174   H     0.69007   0.21452   0.30082   0.00000  Uiso   1.00
N175   N     0.71426   0.16668   0.25001   0.00000  Uiso   1.00
N176   N     0.95241   0.16666   0.24999   0.00000  Uiso   1.00
O177   O     0.79512   0.22775   0.25001   0.00000  Uiso   1.00
O178   O     0.87154   0.10558   0.24999   0.00000  Uiso   1.00
O179   O     0.87157   0.22774   0.25000   0.00000  Uiso   1.00
O180   O     0.79510   0.10559   0.25000   0.00000  Uiso   1.00
O181   O     0.77328   0.16667   0.31613   0.00000  Uiso   1.00
O182   O     0.89339   0.16666   0.18388   0.00000  Uiso   1.00
O183   O     0.84972   0.16666   0.31612   0.00000  Uiso   1.00
O184   O     0.81695   0.16667   0.18388   0.00000  Uiso   1.00
Zn185  Zn    0.78229   0.16667   0.25000   0.00000  Uiso   1.00
Zn186  Zn    0.88438   0.16666   0.25000   0.00000  Uiso   1.00
O187   O     0.68847   0.23251   0.48140   0.00000  Uiso   1.00
H188   H     0.66868   0.23358   0.46178   0.00000  Uiso   1.00
O189   O     0.99258   0.14128   0.00871   0.00000  Uiso   1.00
H190   H     0.67712   0.13491   0.02920   0.00000  Uiso   1.00
I191   I     0.74857   0.09614   0.17514   0.00000  Uiso   1.00
I192   I     0.91832   0.23759   0.32444   0.00000  Uiso   1.00
C193   C     0.16673   0.57998   0.25016   0.00000  Uiso   1.00
C194   C     0.16660   0.42002   0.24985   0.00000  Uiso   1.00
C195   C     0.12317   0.54706   0.04421   0.00000  Uiso   1.00
C196   C     0.22769   0.50293   0.44561   0.00000  Uiso   1.00
C197   C     0.08977   0.55377   0.02340   0.00000  Uiso   1.00
C198   C     0.26137   0.49645   0.46603   0.00000  Uiso   1.00
C199   C     0.21079   0.64549   0.23830   0.00000  Uiso   1.00
C200   C     0.12253   0.35451   0.26175   0.00000  Uiso   1.00
C201   C     0.21072   0.35481   0.23798   0.00000  Uiso   1.00
C202   C     0.12259   0.64518   0.26207   0.00000  Uiso   1.00
C203   C     0.16658   0.37584   0.24974   0.00000  Uiso   1.00
C204   C     0.16673   0.62416   0.25031   0.00000  Uiso   1.00
C205   C     0.31976   0.47337   0.22174   0.00000  Uiso   1.00
C206   C     0.01357   0.52662   0.27827   0.00000  Uiso   1.00
C207   C     0.03414   0.47318   0.22155   0.00000  Uiso   1.00
C208   C     0.29922   0.52686   0.27841   0.00000  Uiso   1.00
C209   C     0.13628   0.50058   0.33796   0.00000  Uiso   1.00
C210   C     0.19710   0.50038   0.16206   0.00000  Uiso   1.00
C211   C     0.11814   0.50788   0.38817   0.00000  Uiso   1.00
C212   C     0.21651   0.50250   0.11136   0.00000  Uiso   1.00
C213   C     0.06431   0.54445   0.45741   0.00000  Uiso   1.00
C214   C     0.28004   0.48896   0.03572   0.00000  Uiso   1.00
C215   C     0.07484   0.52940   0.41170   0.00000  Uiso   1.00
C216   C     0.26408   0.49039   0.08456   0.00000  Uiso   1.00
C217   C     0.14996   0.50003   0.41034   0.00000  Uiso   1.00
C218   C     0.18571   0.51576   0.08989   0.00000  Uiso   1.00
C219   C     0.14320   0.51812   0.45349   0.00000  Uiso   1.00
C220   C     0.20044   0.51547   0.04148   0.00000  Uiso   1.00
C221   C     0.09872   0.53880   0.47833   0.00000  Uiso   1.00
C222   C     0.24773   0.50059   0.01422   0.00000  Uiso   1.00
C223   C     0.17955   0.51537   0.47261   0.00000  Uiso   1.00
C224   C     0.16762   0.52624   0.01996   0.00000  Uiso   1.00
H225   H     0.05649   0.57019   0.04319   0.00000  Uiso   1.00
H226   H     0.29765   0.48655   0.44397   0.00000  Uiso   1.00
H227   H     0.14906   0.52396   0.11188   0.00000  Uiso   1.00
H228   H     0.18095   0.48044   0.39239   0.00000  Uiso   1.00
H229   H     0.28798   0.48040   0.10160   0.00000  Uiso   1.00
H230   H     0.05035   0.53584   0.39404   0.00000  Uiso   1.00
H231   H     0.11396   0.55995   0.07886   0.00000  Uiso   1.00
H232   H     0.24074   0.49900   0.40822   0.00000  Uiso   1.00
H233   H     0.24513   0.62932   0.22877   0.00000  Uiso   1.00
H234   H     0.08818   0.37067   0.27127   0.00000  Uiso   1.00
H235   H     0.24508   0.37121   0.22828   0.00000  Uiso   1.00
H236   H     0.08824   0.62878   0.27179   0.00000  Uiso   1.00
H237   H     0.30993   0.45214   0.19919   0.00000  Uiso   1.00
H238   H     0.02341   0.54786   0.30082   0.00000  Uiso   1.00
N239   N     0.04759   0.50001   0.25001   0.00000  Uiso   1.00
N240   N     0.28574   0.49999   0.24999   0.00000  Uiso   1.00
O241   O     0.12846   0.56108   0.25001   0.00000  Uiso   1.00
O242   O     0.20488   0.43892   0.24999   0.00000  Uiso   1.00
O243   O     0.20490   0.56107   0.25000   0.00000  Uiso   1.00
O244   O     0.12843   0.43893   0.25000   0.00000  Uiso   1.00
O245   O     0.10661   0.50001   0.31613   0.00000  Uiso   1.00
O246   O     0.22672   0.49999   0.18388   0.00000  Uiso   1.00
O247   O     0.18305   0.50000   0.31612   0.00000  Uiso   1.00
O248   O     0.15028   0.50000   0.18388   0.00000  Uiso   1.00
Zn249  Zn    0.11562   0.50001   0.25000   0.00000  Uiso   1.00
Zn250  Zn    0.21771   0.49999   0.25000   0.00000  Uiso   1.00
O251   O     0.02180   0.56584   0.48140   0.00000  Uiso   1.00
H252   H     0.00201   0.56691   0.46178   0.00000  Uiso   1.00
O253   O     0.32592   0.47461   0.00871   0.00000  Uiso   1.00
H254   H     0.01046   0.46824   0.02920   0.00000  Uiso   1.00
I255   I     0.08191   0.42947   0.17514   0.00000  Uiso   1.00
I256   I     0.25165   0.57092   0.32444   0.00000  Uiso   1.00
C257   C     0.50006   0.57998   0.25016   0.00000  Uiso   1.00
C258   C     0.49993   0.42002   0.24985   0.00000  Uiso   1.00
C259   C     0.45650   0.54706   0.04421   0.00000  Uiso   1.00
C260   C     0.56103   0.50293   0.44561   0.00000  Uiso   1.00
C261   C     0.42310   0.55377   0.02340   0.00000  Uiso   1.00
C262   C     0.59471   0.49645   0.46603   0.00000  Uiso   1.00
C263   C     0.54412   0.64549   0.23830   0.00000  Uiso   1.00
C264   C     0.45586   0.35451   0.26175   0.00000  Uiso   1.00
C265   C     0.54406   0.35481   0.23798   0.00000  Uiso   1.00
C266   C     0.45592   0.64518   0.26207   0.00000  Uiso   1.00
C267   C     0.49992   0.37584   0.24974   0.00000  Uiso   1.00
C268   C     0.50007   0.62416   0.25031   0.00000  Uiso   1.00
C269   C     0.65309   0.47337   0.22174   0.00000  Uiso   1.00
C270   C     0.34691   0.52662   0.27827   0.00000  Uiso   1.00
C271   C     0.36747   0.47318   0.22155   0.00000  Uiso   1.00
C272   C     0.63255   0.52686   0.27841   0.00000  Uiso   1.00
C273   C     0.46962   0.50058   0.33796   0.00000  Uiso   1.00
C274   C     0.53044   0.50038   0.16206   0.00000  Uiso   1.00
C275   C     0.45147   0.50788   0.38817   0.00000  Uiso   1.00
C276   C     0.54984   0.50250   0.11136   0.00000  Uiso   1.00
C277   C     0.39764   0.54445   0.45741   0.00000  Uiso   1.00
C278   C     0.61337   0.48896   0.03572   0.00000  Uiso   1.00
C279   C     0.40817   0.52940   0.41170   0.00000  Uiso   1.00
C280   C     0.59741   0.49039   0.08456   0.00000  Uiso   1.00
C281   C     0.48329   0.50003   0.41034   0.00000  Uiso   1.00
C282   C     0.51904   0.51576   0.08989   0.00000  Uiso   1.00
C283   C     0.47654   0.51812   0.45349   0.00000  Uiso   1.00
C284   C     0.53377   0.51547   0.04148   0.00000  Uiso   1.00
C285   C     0.43205   0.53880   0.47833   0.00000  Uiso   1.00
C286   C     0.58106   0.50059   0.01422   0.00000  Uiso   1.00
C287   C     0.51288   0.51537   0.47261   0.00000  Uiso   1.00
C288   C     0.50096   0.52624   0.01996   0.00000  Uiso   1.00
H289   H     0.38982   0.57019   0.04319   0.00000  Uiso   1.00
H290   H     0.63098   0.48655   0.44397   0.00000  Uiso   1.00
H291   H     0.48239   0.52396   0.11188   0.00000  Uiso   1.00
H292   H     0.51428   0.48044   0.39239   0.00000  Uiso   1.00
H293   H     0.62131   0.48040   0.10160   0.00000  Uiso   1.00
H294   H     0.38369   0.53584   0.39404   0.00000  Uiso   1.00
H295   H     0.44730   0.55995   0.07886   0.00000  Uiso   1.00
H296   H     0.57408   0.49900   0.40822   0.00000  Uiso   1.00
H297   H     0.57847   0.62932   0.22877   0.00000  Uiso   1.00
H298   H     0.42152   0.37067   0.27127   0.00000  Uiso   1.00
H299   H     0.57841   0.37121   0.22828   0.00000  Uiso   1.00
H300   H     0.42157   0.62878   0.27179   0.00000  Uiso   1.00
H301   H     0.64326   0.45214   0.19919   0.00000  Uiso   1.00
H302   H     0.35674   0.54786   0.30082   0.00000  Uiso   1.00
N303   N     0.38093   0.50001   0.25001   0.00000  Uiso   1.00
N304   N     0.61907   0.49999   0.24999   0.00000  Uiso   1.00
O305   O     0.46179   0.56108   0.25001   0.00000  Uiso   1.00
O306   O     0.53821   0.43892   0.24999   0.00000  Uiso   1.00
O307   O     0.53823   0.56107   0.25000   0.00000  Uiso   1.00
O308   O     0.46177   0.43893   0.25000   0.00000  Uiso   1.00
O309   O     0.43994   0.50001   0.31613   0.00000  Uiso   1.00
O310   O     0.56006   0.49999   0.18388   0.00000  Uiso   1.00
O311   O     0.51639   0.50000   0.31612   0.00000  Uiso   1.00
O312   O     0.48361   0.50000   0.18388   0.00000  Uiso   1.00
Zn313  Zn    0.44896   0.50001   0.25000   0.00000  Uiso   1.00
Zn314  Zn    0.55104   0.49999   0.25000   0.00000  Uiso   1.00
O315   O     0.35513   0.56584   0.48140   0.00000  Uiso   1.00
H316   H     0.33535   0.56691   0.46178   0.00000  Uiso   1.00
O317   O     0.65925   0.47461   0.00871   0.00000  Uiso   1.00
H318   H     0.34379   0.46824   0.02920   0.00000  Uiso   1.00
I319   I     0.41524   0.42947   0.17514   0.00000  Uiso   1.00
I320   I     0.58498   0.57092   0.32444   0.00000  Uiso   1.00
C321   C     0.83339   0.57998   0.25016   0.00000  Uiso   1.00
C322   C     0.83327   0.42002   0.24985   0.00000  Uiso   1.00
C323   C     0.78983   0.54706   0.04421   0.00000  Uiso   1.00
C324   C     0.89436   0.50293   0.44561   0.00000  Uiso   1.00
C325   C     0.75644   0.55377   0.02340   0.00000  Uiso   1.00
C326   C     0.92804   0.49645   0.46603   0.00000  Uiso   1.00
C327   C     0.87745   0.64549   0.23830   0.00000  Uiso   1.00
C328   C     0.78919   0.35451   0.26175   0.00000  Uiso   1.00
C329   C     0.87739   0.35481   0.23798   0.00000  Uiso   1.00
C330   C     0.78926   0.64518   0.26207   0.00000  Uiso   1.00
C331   C     0.83325   0.37584   0.24974   0.00000  Uiso   1.00
C332   C     0.83340   0.62416   0.25031   0.00000  Uiso   1.00
C333   C     0.98642   0.47337   0.22174   0.00000  Uiso   1.00
C334   C     0.68024   0.52662   0.27827   0.00000  Uiso   1.00
C335   C     0.70081   0.47318   0.22155   0.00000  Uiso   1.00
C336   C     0.96588   0.52686   0.27841   0.00000  Uiso   1.00
C337   C     0.80295   0.50058   0.33796   0.00000  Uiso   1.00
C338   C     0.86377   0.50038   0.16206   0.00000  Uiso   1.00
C339   C     0.78480   0.50788   0.38817   0.00000  Uiso   1.00
C340   C     0.88318   0.50250   0.11136   0.00000  Uiso   1.00
C341   C     0.73097   0.54445   0.45741   0.00000  Uiso   1.00
C342   C     0.94671   0.48896   0.03572   0.00000  Uiso   1.00
C343   C     0.74151   0.52940   0.41170   0.00000  Uiso   1.00
C344   C     0.93074   0.49039   0.08456   0.00000  Uiso   1.00
C345   C     0.81662   0.50003   0.41034   0.00000  Uiso   1.00
C346   C     0.85238   0.51576   0.08989   0.00000  Uiso   1.00
C347   C     0.80987   0.51812   0.45349   0.00000  Uiso   1.00
C348   C     0.86710   0.51547   0.04148   0.00000  Uiso   1.00
C349   C     0.76538   0.53880   0.47833   0.00000  Uiso   1.00
C350   C     0.91440   0.50059   0.01422   0.00000  Uiso   1.00
C351   C     0.84621   0.51537   0.47261   0.00000  Uiso   1.00
C352   C     0.83429   0.52624   0.01996   0.00000  Uiso   1.00
H353   H     0.72315   0.57019   0.04319   0.00000  Uiso   1.00
H354   H     0.96431   0.48655   0.44397   0.00000  Uiso   1.00
H355   H     0.81572   0.52396   0.11188   0.00000  Uiso   1.00
H356   H     0.84761   0.48044   0.39239   0.00000  Uiso   1.00
H357   H     0.95465   0.48040   0.10160   0.00000  Uiso   1.00
H358   H     0.71702   0.53584   0.39404   0.00000  Uiso   1.00
H359   H     0.78063   0.55995   0.07886   0.00000  Uiso   1.00
H360   H     0.90741   0.49900   0.40822   0.00000  Uiso   1.00
H361   H     0.91180   0.62932   0.22877   0.00000  Uiso   1.00
H362   H     0.75485   0.37067   0.27127   0.00000  Uiso   1.00
H363   H     0.91174   0.37121   0.22828   0.00000  Uiso   1.00
H364   H     0.75491   0.62878   0.27179   0.00000  Uiso   1.00
H365   H     0.97660   0.45214   0.19919   0.00000  Uiso   1.00
H366   H     0.69007   0.54786   0.30082   0.00000  Uiso   1.00
N367   N     0.71426   0.50001   0.25001   0.00000  Uiso   1.00
N368   N     0.95241   0.49999   0.24999   0.00000  Uiso   1.00
O369   O     0.79512   0.56108   0.25001   0.00000  Uiso   1.00
O370   O     0.87154   0.43892   0.24999   0.00000  Uiso   1.00
O371   O     0.87157   0.56107   0.25000   0.00000  Uiso   1.00
O372   O     0.79510   0.43893   0.25000   0.00000  Uiso   1.00
O373   O     0.77328   0.50001   0.31613   0.00000  Uiso   1.00
O374   O     0.89339   0.49999   0.18388   0.00000  Uiso   1.00
O375   O     0.84972   0.50000   0.31612   0.00000  Uiso   1.00
O376   O     0.81695   0.50000   0.18388   0.00000  Uiso   1.00
Zn377  Zn    0.78229   0.50001   0.25000   0.00000  Uiso   1.00
Zn378  Zn    0.88438   0.49999   0.25000   0.00000  Uiso   1.00
O379   O     0.68847   0.56584   0.48140   0.00000  Uiso   1.00
H380   H     0.66868   0.56691   0.46178   0.00000  Uiso   1.00
O381   O     0.99258   0.47461   0.00871   0.00000  Uiso   1.00
H382   H     0.67712   0.46824   0.02920   0.00000  Uiso   1.00
I383   I     0.74857   0.42947   0.17514   0.00000  Uiso   1.00
I384   I     0.91832   0.57092   0.32444   0.00000  Uiso   1.00
C385   C     0.16673   0.91331   0.25016   0.00000  Uiso   1.00
C386   C     0.16660   0.75335   0.24985   0.00000  Uiso   1.00
C387   C     0.12317   0.88039   0.04421   0.00000  Uiso   1.00
C388   C     0.22769   0.83626   0.44561   0.00000  Uiso   1.00
C389   C     0.08977   0.88711   0.02340   0.00000  Uiso   1.00
C390   C     0.26137   0.82979   0.46603   0.00000  Uiso   1.00
C391   C     0.21079   0.97882   0.23830   0.00000  Uiso   1.00
C392   C     0.12253   0.68784   0.26175   0.00000  Uiso   1.00
C393   C     0.21072   0.68815   0.23798   0.00000  Uiso   1.00
C394   C     0.12259   0.97851   0.26207   0.00000  Uiso   1.00
C395   C     0.16658   0.70917   0.24974   0.00000  Uiso   1.00
C396   C     0.16673   0.95749   0.25031   0.00000  Uiso   1.00
C397   C     0.31976   0.80670   0.22174   0.00000  Uiso   1.00
C398   C     0.01357   0.85996   0.27827   0.00000  Uiso   1.00
C399   C     0.03414   0.80652   0.22155   0.00000  Uiso   1.00
C400   C     0.29922   0.86019   0.27841   0.00000  Uiso   1.00
C401   C     0.13628   0.83392   0.33796   0.00000  Uiso   1.00
C402   C     0.19710   0.83371   0.16206   0.00000  Uiso   1.00
C403   C     0.11814   0.84121   0.38817   0.00000  Uiso   1.00
C404   C     0.21651   0.83583   0.11136   0.00000  Uiso   1.00
C405   C     0.06431   0.87779   0.45741   0.00000  Uiso   1.00
C406   C     0.28004   0.82229   0.03572   0.00000  Uiso   1.00
C407   C     0.07484   0.86273   0.41170   0.00000  Uiso   1.00
C408   C     0.26408   0.82372   0.08456   0.00000  Uiso   1.00
C409   C     0.14996   0.83336   0.41034   0.00000  Uiso   1.00
C410   C     0.18571   0.84909   0.08989   0.00000  Uiso   1.00
C411   C     0.14320   0.85145   0.45349   0.00000  Uiso   1.00
C412   C     0.20044   0.84880   0.04148   0.00000  Uiso   1.00
C413   C     0.09872   0.87213   0.47833   0.00000  Uiso   1.00
C414   C     0.24773   0.83392   0.01422   0.00000  Uiso   1.00
C415   C     0.17955   0.84870   0.47261   0.00000  Uiso   1.00
C416   C     0.16762   0.85958   0.01996   0.00000  Uiso   1.00
H417   H     0.05649   0.90352   0.04319   0.00000  Uiso   1.00
H418   H     0.29765   0.81989   0.44397   0.00000  Uiso   1.00
H419   H     0.14906   0.85729   0.11188   0.00000  Uiso   1.00
H420   H     0.18095   0.81378   0.39239   0.00000  Uiso   1.00
H421   H     0.28798   0.81373   0.10160   0.00000  Uiso   1.00
H422   H     0.05035   0.86917   0.39404   0.00000  Uiso   1.00
H423   H     0.11396   0.89329   0.07886   0.00000  Uiso   1.00
H424   H     0.24074   0.83233   0.40822   0.00000  Uiso   1.00
H425   H     0.24513   0.96266   0.22877   0.00000  Uiso   1.00
H426   H     0.08818   0.70400   0.27127   0.00000  Uiso   1.00
H427   H     0.24508   0.70455   0.22828   0.00000  Uiso   1.00
H428   H     0.08824   0.96211   0.27179   0.00000  Uiso   1.00
H429   H     0.30993   0.78547   0.19919   0.00000  Uiso   1.00
H430   H     0.02341   0.88119   0.30082   0.00000  Uiso   1.00
N431   N     0.04759   0.83334   0.25001   0.00000  Uiso   1.00
N432   N     0.28574   0.83332   0.24999   0.00000  Uiso   1.00
O433   O     0.12846   0.89442   0.25001   0.00000  Uiso   1.00
O434   O     0.20488   0.77225   0.24999   0.00000  Uiso   1.00
O435   O     0.20490   0.89441   0.25000   0.00000  Uiso   1.00
O436   O     0.12843   0.77226   0.25000   0.00000  Uiso   1.00
O437   O     0.10661   0.83334   0.31613   0.00000  Uiso   1.00
O438   O     0.22672   0.83333   0.18388   0.00000  Uiso   1.00
O439   O     0.18305   0.83333   0.31612   0.00000  Uiso   1.00
O440   O     0.15028   0.83334   0.18388   0.00000  Uiso   1.00
Zn441  Zn    0.11562   0.83334   0.25000   0.00000  Uiso   1.00
Zn442  Zn    0.21771   0.83333   0.25000   0.00000  Uiso   1.00
O443   O     0.02180   0.89917   0.48140   0.00000  Uiso   1.00
H444   H     0.00201   0.90025   0.46178   0.00000  Uiso   1.00
O445   O     0.32592   0.80795   0.00871   0.00000  Uiso   1.00
H446   H     0.01046   0.80158   0.02920   0.00000  Uiso   1.00
I447   I     0.08191   0.76280   0.17514   0.00000  Uiso   1.00
I448   I     0.25165   0.90426   0.32444   0.00000  Uiso   1.00
C449   C     0.50006   0.91331   0.25016   0.00000  Uiso   1.00
C450   C     0.49993   0.75335   0.24985   0.00000  Uiso   1.00
C451   C     0.45650   0.88039   0.04421   0.00000  Uiso   1.00
C452   C     0.56103   0.83626   0.44561   0.00000  Uiso   1.00
C453   C     0.42310   0.88711   0.02340   0.00000  Uiso   1.00
C454   C     0.59471   0.82979   0.46603   0.00000  Uiso   1.00
C455   C     0.54412   0.97882   0.23830   0.00000  Uiso   1.00
C456   C     0.45586   0.68784   0.26175   0.00000  Uiso   1.00
C457   C     0.54406   0.68815   0.23798   0.00000  Uiso   1.00
C458   C     0.45592   0.97851   0.26207   0.00000  Uiso   1.00
C459   C     0.49992   0.70917   0.24974   0.00000  Uiso   1.00
C460   C     0.50007   0.95749   0.25031   0.00000  Uiso   1.00
C461   C     0.65309   0.80670   0.22174   0.00000  Uiso   1.00
C462   C     0.34691   0.85996   0.27827   0.00000  Uiso   1.00
C463   C     0.36747   0.80652   0.22155   0.00000  Uiso   1.00
C464   C     0.63255   0.86019   0.27841   0.00000  Uiso   1.00
C465   C     0.46962   0.83392   0.33796   0.00000  Uiso   1.00
C466   C     0.53044   0.83371   0.16206   0.00000  Uiso   1.00
C467   C     0.45147   0.84121   0.38817   0.00000  Uiso   1.00
C468   C     0.54984   0.83583   0.11136   0.00000  Uiso   1.00
C469   C     0.39764   0.87779   0.45741   0.00000  Uiso   1.00
C470   C     0.61337   0.82229   0.03572   0.00000  Uiso   1.00
C471   C     0.40817   0.86273   0.41170   0.00000  Uiso   1.00
C472   C     0.59741   0.82372   0.08456   0.00000  Uiso   1.00
C473   C     0.48329   0.83336   0.41034   0.00000  Uiso   1.00
C474   C     0.51904   0.84909   0.08989   0.00000  Uiso   1.00
C475   C     0.47654   0.85145   0.45349   0.00000  Uiso   1.00
C476   C     0.53377   0.84880   0.04148   0.00000  Uiso   1.00
C477   C     0.43205   0.87213   0.47833   0.00000  Uiso   1.00
C478   C     0.58106   0.83392   0.01422   0.00000  Uiso   1.00
C479   C     0.51288   0.84870   0.47261   0.00000  Uiso   1.00
C480   C     0.50096   0.85958   0.01996   0.00000  Uiso   1.00
H481   H     0.38982   0.90352   0.04319   0.00000  Uiso   1.00
H482   H     0.63098   0.81989   0.44397   0.00000  Uiso   1.00
H483   H     0.48239   0.85729   0.11188   0.00000  Uiso   1.00
H484   H     0.51428   0.81378   0.39239   0.00000  Uiso   1.00
H485   H     0.62131   0.81373   0.10160   0.00000  Uiso   1.00
H486   H     0.38369   0.86917   0.39404   0.00000  Uiso   1.00
H487   H     0.44730   0.89329   0.07886   0.00000  Uiso   1.00
H488   H     0.57408   0.83233   0.40822   0.00000  Uiso   1.00
H489   H     0.57847   0.96266   0.22877   0.00000  Uiso   1.00
H490   H     0.42152   0.70400   0.27127   0.00000  Uiso   1.00
H491   H     0.57841   0.70455   0.22828   0.00000  Uiso   1.00
H492   H     0.42157   0.96211   0.27179   0.00000  Uiso   1.00
H493   H     0.64326   0.78547   0.19919   0.00000  Uiso   1.00
H494   H     0.35674   0.88119   0.30082   0.00000  Uiso   1.00
N495   N     0.38093   0.83334   0.25001   0.00000  Uiso   1.00
N496   N     0.61907   0.83332   0.24999   0.00000  Uiso   1.00
O497   O     0.46179   0.89442   0.25001   0.00000  Uiso   1.00
O498   O     0.53821   0.77225   0.24999   0.00000  Uiso   1.00
O499   O     0.53823   0.89441   0.25000   0.00000  Uiso   1.00
O500   O     0.46177   0.77226   0.25000   0.00000  Uiso   1.00
O501   O     0.43994   0.83334   0.31613   0.00000  Uiso   1.00
O502   O     0.56006   0.83333   0.18388   0.00000  Uiso   1.00
O503   O     0.51639   0.83333   0.31612   0.00000  Uiso   1.00
O504   O     0.48361   0.83334   0.18388   0.00000  Uiso   1.00
Zn505  Zn    0.44896   0.83334   0.25000   0.00000  Uiso   1.00
Zn506  Zn    0.55104   0.83333   0.25000   0.00000  Uiso   1.00
O507   O     0.35513   0.89917   0.48140   0.00000  Uiso   1.00
H508   H     0.33535   0.90025   0.46178   0.00000  Uiso   1.00
O509   O     0.65925   0.80795   0.00871   0.00000  Uiso   1.00
H510   H     0.34379   0.80158   0.02920   0.00000  Uiso   1.00
I511   I     0.41524   0.76280   0.17514   0.00000  Uiso   1.00
I512   I     0.58498   0.90426   0.32444   0.00000  Uiso   1.00
C513   C     0.83339   0.91331   0.25016   0.00000  Uiso   1.00
C514   C     0.83327   0.75335   0.24985   0.00000  Uiso   1.00
C515   C     0.78983   0.88039   0.04421   0.00000  Uiso   1.00
C516   C     0.89436   0.83626   0.44561   0.00000  Uiso   1.00
C517   C     0.75644   0.88711   0.02340   0.00000  Uiso   1.00
C518   C     0.92804   0.82979   0.46603   0.00000  Uiso   1.00
C519   C     0.87745   0.97882   0.23830   0.00000  Uiso   1.00
C520   C     0.78919   0.68784   0.26175   0.00000  Uiso   1.00
C521   C     0.87739   0.68815   0.23798   0.00000  Uiso   1.00
C522   C     0.78926   0.97851   0.26207   0.00000  Uiso   1.00
C523   C     0.83325   0.70917   0.24974   0.00000  Uiso   1.00
C524   C     0.83340   0.95749   0.25031   0.00000  Uiso   1.00
C525   C     0.98642   0.80670   0.22174   0.00000  Uiso   1.00
C526   C     0.68024   0.85996   0.27827   0.00000  Uiso   1.00
C527   C     0.70081   0.80652   0.22155   0.00000  Uiso   1.00
C528   C     0.96588   0.86019   0.27841   0.00000  Uiso   1.00
C529   C     0.80295   0.83392   0.33796   0.00000  Uiso   1.00
C530   C     0.86377   0.83371   0.16206   0.00000  Uiso   1.00
C531   C     0.78480   0.84121   0.38817   0.00000  Uiso   1.00
C532   C     0.88318   0.83583   0.11136   0.00000  Uiso   1.00
C533   C     0.73097   0.87779   0.45741   0.00000  Uiso   1.00
C534   C     0.94671   0.82229   0.03572   0.00000  Uiso   1.00
C535   C     0.74151   0.86273   0.41170   0.00000  Uiso   1.00
C536   C     0.93074   0.82372   0.08456   0.00000  Uiso   1.00
C537   C     0.81662   0.83336   0.41034   0.00000  Uiso   1.00
C538   C     0.85238   0.84909   0.08989   0.00000  Uiso   1.00
C539   C     0.80987   0.85145   0.45349   0.00000  Uiso   1.00
C540   C     0.86710   0.84880   0.04148   0.00000  Uiso   1.00
C541   C     0.76538   0.87213   0.47833   0.00000  Uiso   1.00
C542   C     0.91440   0.83392   0.01422   0.00000  Uiso   1.00
C543   C     0.84621   0.84870   0.47261   0.00000  Uiso   1.00
C544   C     0.83429   0.85958   0.01996   0.00000  Uiso   1.00
H545   H     0.72315   0.90352   0.04319   0.00000  Uiso   1.00
H546   H     0.96431   0.81989   0.44397   0.00000  Uiso   1.00
H547   H     0.81572   0.85729   0.11188   0.00000  Uiso   1.00
H548   H     0.84761   0.81378   0.39239   0.00000  Uiso   1.00
H549   H     0.95465   0.81373   0.10160   0.00000  Uiso   1.00
H550   H     0.71702   0.86917   0.39404   0.00000  Uiso   1.00
H551   H     0.78063   0.89329   0.07886   0.00000  Uiso   1.00
H552   H     0.90741   0.83233   0.40822   0.00000  Uiso   1.00
H553   H     0.91180   0.96266   0.22877   0.00000  Uiso   1.00
H554   H     0.75485   0.70400   0.27127   0.00000  Uiso   1.00
H555   H     0.91174   0.70455   0.22828   0.00000  Uiso   1.00
H556   H     0.75491   0.96211   0.27179   0.00000  Uiso   1.00
H557   H     0.97660   0.78547   0.19919   0.00000  Uiso   1.00
H558   H     0.69007   0.88119   0.30082   0.00000  Uiso   1.00
N559   N     0.71426   0.83334   0.25001   0.00000  Uiso   1.00
N560   N     0.95241   0.83332   0.24999   0.00000  Uiso   1.00
O561   O     0.79512   0.89442   0.25001   0.00000  Uiso   1.00
O562   O     0.87154   0.77225   0.24999   0.00000  Uiso   1.00
O563   O     0.87157   0.89441   0.25000   0.00000  Uiso   1.00
O564   O     0.79510   0.77226   0.25000   0.00000  Uiso   1.00
O565   O     0.77328   0.83334   0.31613   0.00000  Uiso   1.00
O566   O     0.89339   0.83333   0.18388   0.00000  Uiso   1.00
O567   O     0.84972   0.83333   0.31612   0.00000  Uiso   1.00
O568   O     0.81695   0.83334   0.18388   0.00000  Uiso   1.00
Zn569  Zn    0.78229   0.83334   0.25000   0.00000  Uiso   1.00
Zn570  Zn    0.88438   0.83333   0.25000   0.00000  Uiso   1.00
O571   O     0.68847   0.89917   0.48140   0.00000  Uiso   1.00
H572   H     0.66868   0.90025   0.46178   0.00000  Uiso   1.00
O573   O     0.99258   0.80795   0.00871   0.00000  Uiso   1.00
H574   H     0.67712   0.80158   0.02920   0.00000  Uiso   1.00
I575   I     0.74857   0.76280   0.17514   0.00000  Uiso   1.00
I576   I     0.91832   0.90426   0.32444   0.00000  Uiso   1.00
C577   C     0.16673   0.24665   0.75016   0.00000  Uiso   1.00
C578   C     0.16660   0.08669   0.74985   0.00000  Uiso   1.00
C579   C     0.12317   0.21372   0.54421   0.00000  Uiso   1.00
C580   C     0.22769   0.16960   0.94561   0.00000  Uiso   1.00
C581   C     0.08977   0.22044   0.52340   0.00000  Uiso   1.00
C582   C     0.26137   0.16312   0.96603   0.00000  Uiso   1.00
C583   C     0.21079   0.31215   0.73830   0.00000  Uiso   1.00
C584   C     0.12253   0.02117   0.76175   0.00000  Uiso   1.00
C585   C     0.21072   0.02148   0.73798   0.00000  Uiso   1.00
C586   C     0.12259   0.31185   0.76207   0.00000  Uiso   1.00
C587   C     0.16658   0.04251   0.74974   0.00000  Uiso   1.00
C588   C     0.16673   0.29082   0.75031   0.00000  Uiso   1.00
C589   C     0.31976   0.14003   0.72174   0.00000  Uiso   1.00
C590   C     0.01357   0.19329   0.77827   0.00000  Uiso   1.00
C591   C     0.03414   0.13985   0.72155   0.00000  Uiso   1.00
C592   C     0.29922   0.19353   0.77841   0.00000  Uiso   1.00
C593   C     0.13628   0.16725   0.83796   0.00000  Uiso   1.00
C594   C     0.19710   0.16704   0.66206   0.00000  Uiso   1.00
C595   C     0.11814   0.17455   0.88817   0.00000  Uiso   1.00
C596   C     0.21651   0.16917   0.61136   0.00000  Uiso   1.00
C597   C     0.06431   0.21112   0.95741   0.00000  Uiso   1.00
C598   C     0.28004   0.15563   0.53572   0.00000  Uiso   1.00
C599   C     0.07484   0.19606   0.91170   0.00000  Uiso   1.00
C600   C     0.26408   0.15705   0.58456   0.00000  Uiso   1.00
C601   C     0.14996   0.16669   0.91034   0.00000  Uiso   1.00
C602   C     0.18571   0.18242   0.58989   0.00000  Uiso   1.00
C603   C     0.14320   0.18478   0.95349   0.00000  Uiso   1.00
C604   C     0.20044   0.18214   0.54148   0.00000  Uiso   1.00
C605   C     0.09872   0.20546   0.97833   0.00000  Uiso   1.00
C606   C     0.24773   0.16725   0.51422   0.00000  Uiso   1.00
C607   C     0.17955   0.18204   0.97261   0.00000  Uiso   1.00
C608   C     0.16762   0.19291   0.51996   0.00000  Uiso   1.00
H609   H     0.05649   0.23686   0.54319   0.00000  Uiso   1.00
H610   H     0.29765   0.15322   0.94397   0.00000  Uiso   1.00
H611   H     0.14906   0.19062   0.61188   0.00000  Uiso   1.00
H612   H     0.18095   0.14711   0.89239   0.00000  Uiso   1.00
H613   H     0.28798   0.14707   0.60160   0.00000  Uiso   1.00
H614   H     0.05035   0.20250   0.89404   0.00000  Uiso   1.00
H615   H     0.11396   0.22662   0.57886   0.00000  Uiso   1.00
H616   H     0.24074   0.16566   0.90822   0.00000  Uiso   1.00
H617   H     0.24513   0.29599   0.72877   0.00000  Uiso   1.00
H618   H     0.08818   0.03734   0.77127   0.00000  Uiso   1.00
H619   H     0.24508   0.03788   0.72828   0.00000  Uiso   1.00
H620   H     0.08824   0.29545   0.77179   0.00000  Uiso   1.00
H621   H     0.30993   0.11880   0.69919   0.00000  Uiso   1.00
H622   H     0.02341   0.21452   0.80082   0.00000  Uiso   1.00
N623   N     0.04759   0.16668   0.75001   0.00000  Uiso   1.00
N624   N     0.28574   0.16666   0.74999   0.00000  Uiso   1.00
O625   O     0.12846   0.22775   0.75001   0.00000  Uiso   1.00
O626   O     0.20488   0.10558   0.74999   0.00000  Uiso   1.00
O627   O     0.20490   0.22774   0.75000   0.00000  Uiso   1.00
O628   O     0.12843   0.10559   0.75000   0.00000  Uiso   1.00
O629   O     0.10661   0.16667   0.81613   0.00000  Uiso   1.00
O630   O     0.22672   0.16666   0.68388   0.00000  Uiso   1.00
O631   O     0.18305   0.16666   0.81612   0.00000  Uiso   1.00
O632   O     0.15028   0.16667   0.68388   0.00000  Uiso   1.00
Zn633  Zn    0.11562   0.16667   0.75000   0.00000  Uiso   1.00
Zn634  Zn    0.21771   0.16666   0.75000   0.00000  Uiso   1.00
O635   O     0.02180   0.23251   0.98140   0.00000  Uiso   1.00
H636   H     0.00201   0.23358   0.96178   0.00000  Uiso   1.00
O637   O     0.32592   0.14128   0.50871   0.00000  Uiso   1.00
H638   H     0.01046   0.13491   0.52920   0.00000  Uiso   1.00
I639   I     0.08191   0.09614   0.67514   0.00000  Uiso   1.00
I640   I     0.25165   0.23759   0.82444   0.00000  Uiso   1.00
C641   C     0.50006   0.24665   0.75016   0.00000  Uiso   1.00
C642   C     0.49993   0.08669   0.74985   0.00000  Uiso   1.00
C643   C     0.45650   0.21372   0.54421   0.00000  Uiso   1.00
C644   C     0.56103   0.16960   0.94561   0.00000  Uiso   1.00
C645   C     0.42310   0.22044   0.52340   0.00000  Uiso   1.00
C646   C     0.59471   0.16312   0.96603   0.00000  Uiso   1.00
C647   C     0.54412   0.31215   0.73830   0.00000  Uiso   1.00
C648   C     0.45586   0.02117   0.76175   0.00000  Uiso   1.00
C649   C     0.54406   0.02148   0.73798   0.00000  Uiso   1.00
C650   C     0.45592   0.31185   0.76207   0.00000  Uiso   1.00
C651   C     0.49992   0.04251   0.74974   0.00000  Uiso   1.00
C652   C     0.50007   0.29082   0.75031   0.00000  Uiso   1.00
C653   C     0.65309   0.14003   0.72174   0.00000  Uiso   1.00
C654   C     0.34691   0.19329   0.77827   0.00000  Uiso   1.00
C655   C     0.36747   0.13985   0.72155   0.00000  Uiso   1.00
C656   C     0.63255   0.19353   0.77841   0.00000  Uiso   1.00
C657   C     0.46962   0.16725   0.83796   0.00000  Uiso   1.00
C658   C     0.53044   0.16704   0.66206   0.00000  Uiso   1.00
C659   C     0.45147   0.17455   0.88817   0.00000  Uiso   1.00
C660   C     0.54984   0.16917   0.61136   0.00000  Uiso   1.00
C661   C     0.39764   0.21112   0.95741   0.00000  Uiso   1.00
C662   C     0.61337   0.15563   0.53572   0.00000  Uiso   1.00
C663   C     0.40817   0.19606   0.91170   0.00000  Uiso   1.00
C664   C     0.59741   0.15705   0.58456   0.00000  Uiso   1.00
C665   C     0.48329   0.16669   0.91034   0.00000  Uiso   1.00
C666   C     0.51904   0.18242   0.58989   0.00000  Uiso   1.00
C667   C     0.47654   0.18478   0.95349   0.00000  Uiso   1.00
C668   C     0.53377   0.18214   0.54148   0.00000  Uiso   1.00
C669   C     0.43205   0.20546   0.97833   0.00000  Uiso   1.00
C670   C     0.58106   0.16725   0.51422   0.00000  Uiso   1.00
C671   C     0.51288   0.18204   0.97261   0.00000  Uiso   1.00
C672   C     0.50096   0.19291   0.51996   0.00000  Uiso   1.00
H673   H     0.38982   0.23686   0.54319   0.00000  Uiso   1.00
H674   H     0.63098   0.15322   0.94397   0.00000  Uiso   1.00
H675   H     0.48239   0.19062   0.61188   0.00000  Uiso   1.00
H676   H     0.51428   0.14711   0.89239   0.00000  Uiso   1.00
H677   H     0.62131   0.14707   0.60160   0.00000  Uiso   1.00
H678   H     0.38369   0.20250   0.89404   0.00000  Uiso   1.00
H679   H     0.44730   0.22662   0.57886   0.00000  Uiso   1.00
H680   H     0.57408   0.16566   0.90822   0.00000  Uiso   1.00
H681   H     0.57847   0.29599   0.72877   0.00000  Uiso   1.00
H682   H     0.42152   0.03734   0.77127   0.00000  Uiso   1.00
H683   H     0.57841   0.03788   0.72828   0.00000  Uiso   1.00
H684   H     0.42157   0.29545   0.77179   0.00000  Uiso   1.00
H685   H     0.64326   0.11880   0.69919   0.00000  Uiso   1.00
H686   H     0.35674   0.21452   0.80082   0.00000  Uiso   1.00
N687   N     0.38093   0.16668   0.75001   0.00000  Uiso   1.00
N688   N     0.61907   0.16666   0.74999   0.00000  Uiso   1.00
O689   O     0.46179   0.22775   0.75001   0.00000  Uiso   1.00
O690   O     0.53821   0.10558   0.74999   0.00000  Uiso   1.00
O691   O     0.53823   0.22774   0.75000   0.00000  Uiso   1.00
O692   O     0.46177   0.10559   0.75000   0.00000  Uiso   1.00
O693   O     0.43994   0.16667   0.81613   0.00000  Uiso   1.00
O694   O     0.56006   0.16666   0.68388   0.00000  Uiso   1.00
O695   O     0.51639   0.16666   0.81612   0.00000  Uiso   1.00
O696   O     0.48361   0.16667   0.68388   0.00000  Uiso   1.00
Zn697  Zn    0.44896   0.16667   0.75000   0.00000  Uiso   1.00
Zn698  Zn    0.55104   0.16666   0.75000   0.00000  Uiso   1.00
O699   O     0.35513   0.23251   0.98140   0.00000  Uiso   1.00
H700   H     0.33535   0.23358   0.96178   0.00000  Uiso   1.00
O701   O     0.65925   0.14128   0.50871   0.00000  Uiso   1.00
H702   H     0.34379   0.13491   0.52920   0.00000  Uiso   1.00
I703   I     0.41524   0.09614   0.67514   0.00000  Uiso   1.00
I704   I     0.58498   0.23759   0.82444   0.00000  Uiso   1.00
C705   C     0.83339   0.24665   0.75016   0.00000  Uiso   1.00
C706   C     0.83327   0.08669   0.74985   0.00000  Uiso   1.00
C707   C     0.78983   0.21372   0.54421   0.00000  Uiso   1.00
C708   C     0.89436   0.16960   0.94561   0.00000  Uiso   1.00
C709   C     0.75644   0.22044   0.52340   0.00000  Uiso   1.00
C710   C     0.92804   0.16312   0.96603   0.00000  Uiso   1.00
C711   C     0.87745   0.31215   0.73830   0.00000  Uiso   1.00
C712   C     0.78919   0.02117   0.76175   0.00000  Uiso   1.00
C713   C     0.87739   0.02148   0.73798   0.00000  Uiso   1.00
C714   C     0.78926   0.31185   0.76207   0.00000  Uiso   1.00
C715   C     0.83325   0.04251   0.74974   0.00000  Uiso   1.00
C716   C     0.83340   0.29082   0.75031   0.00000  Uiso   1.00
C717   C     0.98642   0.14003   0.72174   0.00000  Uiso   1.00
C718   C     0.68024   0.19329   0.77827   0.00000  Uiso   1.00
C719   C     0.70081   0.13985   0.72155   0.00000  Uiso   1.00
C720   C     0.96588   0.19353   0.77841   0.00000  Uiso   1.00
C721   C     0.80295   0.16725   0.83796   0.00000  Uiso   1.00
C722   C     0.86377   0.16704   0.66206   0.00000  Uiso   1.00
C723   C     0.78480   0.17455   0.88817   0.00000  Uiso   1.00
C724   C     0.88318   0.16917   0.61136   0.00000  Uiso   1.00
C725   C     0.73097   0.21112   0.95741   0.00000  Uiso   1.00
C726   C     0.94671   0.15563   0.53572   0.00000  Uiso   1.00
C727   C     0.74151   0.19606   0.91170   0.00000  Uiso   1.00
C728   C     0.93074   0.15705   0.58456   0.00000  Uiso   1.00
C729   C     0.81662   0.16669   0.91034   0.00000  Uiso   1.00
C730   C     0.85238   0.18242   0.58989   0.00000  Uiso   1.00
C731   C     0.80987   0.18478   0.95349   0.00000  Uiso   1.00
C732   C     0.86710   0.18214   0.54148   0.00000  Uiso   1.00
C733   C     0.76538   0.20546   0.97833   0.00000  Uiso   1.00
C734   C     0.91440   0.16725   0.51422   0.00000  Uiso   1.00
C735   C     0.84621   0.18204   0.97261   0.00000  Uiso   1.00
C736   C     0.83429   0.19291   0.51996   0.00000  Uiso   1.00
H737   H     0.72315   0.23686   0.54319   0.00000  Uiso   1.00
H738   H     0.96431   0.15322   0.94397   0.00000  Uiso   1.00
H739   H     0.81572   0.19062   0.61188   0.00000  Uiso   1.00
H740   H     0.84761   0.14711   0.89239   0.00000  Uiso   1.00
H741   H     0.95465   0.14707   0.60160   0.00000  Uiso   1.00
H742   H     0.71702   0.20250   0.89404   0.00000  Uiso   1.00
H743   H     0.78063   0.22662   0.57886   0.00000  Uiso   1.00
H744   H     0.90741   0.16566   0.90822   0.00000  Uiso   1.00
H745   H     0.91180   0.29599   0.72877   0.00000  Uiso   1.00
H746   H     0.75485   0.03734   0.77127   0.00000  Uiso   1.00
H747   H     0.91174   0.03788   0.72828   0.00000  Uiso   1.00
H748   H     0.75491   0.29545   0.77179   0.00000  Uiso   1.00
H749   H     0.97660   0.11880   0.69919   0.00000  Uiso   1.00
H750   H     0.69007   0.21452   0.80082   0.00000  Uiso   1.00
N751   N     0.71426   0.16668   0.75001   0.00000  Uiso   1.00
N752   N     0.95241   0.16666   0.74999   0.00000  Uiso   1.00
O753   O     0.79512   0.22775   0.75001   0.00000  Uiso   1.00
O754   O     0.87154   0.10558   0.74999   0.00000  Uiso   1.00
O755   O     0.87157   0.22774   0.75000   0.00000  Uiso   1.00
O756   O     0.79510   0.10559   0.75000   0.00000  Uiso   1.00
O757   O     0.77328   0.16667   0.81613   0.00000  Uiso   1.00
O758   O     0.89339   0.16666   0.68388   0.00000  Uiso   1.00
O759   O     0.84972   0.16666   0.81612   0.00000  Uiso   1.00
O760   O     0.81695   0.16667   0.68388   0.00000  Uiso   1.00
Zn761  Zn    0.78229   0.16667   0.75000   0.00000  Uiso   1.00
Zn762  Zn    0.88438   0.16666   0.75000   0.00000  Uiso   1.00
O763   O     0.68847   0.23251   0.98140   0.00000  Uiso   1.00
H764   H     0.66868   0.23358   0.96178   0.00000  Uiso   1.00
O765   O     0.99258   0.14128   0.50871   0.00000  Uiso   1.00
H766   H     0.67712   0.13491   0.52920   0.00000  Uiso   1.00
I767   I     0.74857   0.09614   0.67514   0.00000  Uiso   1.00
I768   I     0.91832   0.23759   0.82444   0.00000  Uiso   1.00
C769   C     0.16673   0.57998   0.75016   0.00000  Uiso   1.00
C770   C     0.16660   0.42002   0.74985   0.00000  Uiso   1.00
C771   C     0.12317   0.54706   0.54421   0.00000  Uiso   1.00
C772   C     0.22769   0.50293   0.94561   0.00000  Uiso   1.00
C773   C     0.08977   0.55377   0.52340   0.00000  Uiso   1.00
C774   C     0.26137   0.49645   0.96603   0.00000  Uiso   1.00
C775   C     0.21079   0.64549   0.73830   0.00000  Uiso   1.00
C776   C     0.12253   0.35451   0.76175   0.00000  Uiso   1.00
C777   C     0.21072   0.35481   0.73798   0.00000  Uiso   1.00
C778   C     0.12259   0.64518   0.76207   0.00000  Uiso   1.00
C779   C     0.16658   0.37584   0.74974   0.00000  Uiso   1.00
C780   C     0.16673   0.62416   0.75031   0.00000  Uiso   1.00
C781   C     0.31976   0.47337   0.72174   0.00000  Uiso   1.00
C782   C     0.01357   0.52662   0.77827   0.00000  Uiso   1.00
C783   C     0.03414   0.47318   0.72155   0.00000  Uiso   1.00
C784   C     0.29922   0.52686   0.77841   0.00000  Uiso   1.00
C785   C     0.13628   0.50058   0.83796   0.00000  Uiso   1.00
C786   C     0.19710   0.50038   0.66206   0.00000  Uiso   1.00
C787   C     0.11814   0.50788   0.88817   0.00000  Uiso   1.00
C788   C     0.21651   0.50250   0.61136   0.00000  Uiso   1.00
C789   C     0.06431   0.54445   0.95741   0.00000  Uiso   1.00
C790   C     0.28004   0.48896   0.53572   0.00000  Uiso   1.00
C791   C     0.07484   0.52940   0.91170   0.00000  Uiso   1.00
C792   C     0.26408   0.49039   0.58456   0.00000  Uiso   1.00
C793   C     0.14996   0.50003   0.91034   0.00000  Uiso   1.00
C794   C     0.18571   0.51576   0.58989   0.00000  Uiso   1.00
C795   C     0.14320   0.51812   0.95349   0.00000  Uiso   1.00
C796   C     0.20044   0.51547   0.54148   0.00000  Uiso   1.00
C797   C     0.09872   0.53880   0.97833   0.00000  Uiso   1.00
C798   C     0.24773   0.50059   0.51422   0.00000  Uiso   1.00
C799   C     0.17955   0.51537   0.97261   0.00000  Uiso   1.00
C800   C     0.16762   0.52624   0.51996   0.00000  Uiso   1.00
H801   H     0.05649   0.57019   0.54319   0.00000  Uiso   1.00
H802   H     0.29765   0.48655   0.94397   0.00000  Uiso   1.00
H803   H     0.14906   0.52396   0.61188   0.00000  Uiso   1.00
H804   H     0.18095   0.48044   0.89239   0.00000  Uiso   1.00
H805   H     0.28798   0.48040   0.60160   0.00000  Uiso   1.00
H806   H     0.05035   0.53584   0.89404   0.00000  Uiso   1.00
H807   H     0.11396   0.55995   0.57886   0.00000  Uiso   1.00
H808   H     0.24074   0.49900   0.90822   0.00000  Uiso   1.00
H809   H     0.24513   0.62932   0.72877   0.00000  Uiso   1.00
H810   H     0.08818   0.37067   0.77127   0.00000  Uiso   1.00
H811   H     0.24508   0.37121   0.72828   0.00000  Uiso   1.00
H812   H     0.08824   0.62878   0.77179   0.00000  Uiso   1.00
H813   H     0.30993   0.45214   0.69919   0.00000  Uiso   1.00
H814   H     0.02341   0.54786   0.80082   0.00000  Uiso   1.00
N815   N     0.04759   0.50001   0.75001   0.00000  Uiso   1.00
N816   N     0.28574   0.49999   0.74999   0.00000  Uiso   1.00
O817   O     0.12846   0.56108   0.75001   0.00000  Uiso   1.00
O818   O     0.20488   0.43892   0.74999   0.00000  Uiso   1.00
O819   O     0.20490   0.56107   0.75000   0.00000  Uiso   1.00
O820   O     0.12843   0.43893   0.75000   0.00000  Uiso   1.00
O821   O     0.10661   0.50001   0.81613   0.00000  Uiso   1.00
O822   O     0.22672   0.49999   0.68388   0.00000  Uiso   1.00
O823   O     0.18305   0.50000   0.81612   0.00000  Uiso   1.00
O824   O     0.15028   0.50000   0.68388   0.00000  Uiso   1.00
Zn825  Zn    0.11562   0.50001   0.75000   0.00000  Uiso   1.00
Zn826  Zn    0.21771   0.49999   0.75000   0.00000  Uiso   1.00
O827   O     0.02180   0.56584   0.98140   0.00000  Uiso   1.00
H828   H     0.00201   0.56691   0.96178   0.00000  Uiso   1.00
O829   O     0.32592   0.47461   0.50871   0.00000  Uiso   1.00
H830   H     0.01046   0.46824   0.52920   0.00000  Uiso   1.00
I831   I     0.08191   0.42947   0.67514   0.00000  Uiso   1.00
I832   I     0.25165   0.57092   0.82444   0.00000  Uiso   1.00
C833   C     0.50006   0.57998   0.75016   0.00000  Uiso   1.00
C834   C     0.49993   0.42002   0.74985   0.00000  Uiso   1.00
C835   C     0.45650   0.54706   0.54421   0.00000  Uiso   1.00
C836   C     0.56103   0.50293   0.94561   0.00000  Uiso   1.00
C837   C     0.42310   0.55377   0.52340   0.00000  Uiso   1.00
C838   C     0.59471   0.49645   0.96603   0.00000  Uiso   1.00
C839   C     0.54412   0.64549   0.73830   0.00000  Uiso   1.00
C840   C     0.45586   0.35451   0.76175   0.00000  Uiso   1.00
C841   C     0.54406   0.35481   0.73798   0.00000  Uiso   1.00
C842   C     0.45592   0.64518   0.76207   0.00000  Uiso   1.00
C843   C     0.49992   0.37584   0.74974   0.00000  Uiso   1.00
C844   C     0.50007   0.62416   0.75031   0.00000  Uiso   1.00
C845   C     0.65309   0.47337   0.72174   0.00000  Uiso   1.00
C846   C     0.34691   0.52662   0.77827   0.00000  Uiso   1.00
C847   C     0.36747   0.47318   0.72155   0.00000  Uiso   1.00
C848   C     0.63255   0.52686   0.77841   0.00000  Uiso   1.00
C849   C     0.46962   0.50058   0.83796   0.00000  Uiso   1.00
C850   C     0.53044   0.50038   0.66206   0.00000  Uiso   1.00
C851   C     0.45147   0.50788   0.88817   0.00000  Uiso   1.00
C852   C     0.54984   0.50250   0.61136   0.00000  Uiso   1.00
C853   C     0.39764   0.54445   0.95741   0.00000  Uiso   1.00
C854   C     0.61337   0.48896   0.53572   0.00000  Uiso   1.00
C855   C     0.40817   0.52940   0.91170   0.00000  Uiso   1.00
C856   C     0.59741   0.49039   0.58456   0.00000  Uiso   1.00
C857   C     0.48329   0.50003   0.91034   0.00000  Uiso   1.00
C858   C     0.51904   0.51576   0.58989   0.00000  Uiso   1.00
C859   C     0.47654   0.51812   0.95349   0.00000  Uiso   1.00
C860   C     0.53377   0.51547   0.54148   0.00000  Uiso   1.00
C861   C     0.43205   0.53880   0.97833   0.00000  Uiso   1.00
C862   C     0.58106   0.50059   0.51422   0.00000  Uiso   1.00
C863   C     0.51288   0.51537   0.97261   0.00000  Uiso   1.00
C864   C     0.50096   0.52624   0.51996   0.00000  Uiso   1.00
H865   H     0.38982   0.57019   0.54319   0.00000  Uiso   1.00
H866   H     0.63098   0.48655   0.94397   0.00000  Uiso   1.00
H867   H     0.48239   0.52396   0.61188   0.00000  Uiso   1.00
H868   H     0.51428   0.48044   0.89239   0.00000  Uiso   1.00
H869   H     0.62131   0.48040   0.60160   0.00000  Uiso   1.00
H870   H     0.38369   0.53584   0.89404   0.00000  Uiso   1.00
H871   H     0.44730   0.55995   0.57886   0.00000  Uiso   1.00
H872   H     0.57408   0.49900   0.90822   0.00000  Uiso   1.00
H873   H     0.57847   0.62932   0.72877   0.00000  Uiso   1.00
H874   H     0.42152   0.37067   0.77127   0.00000  Uiso   1.00
H875   H     0.57841   0.37121   0.72828   0.00000  Uiso   1.00
H876   H     0.42157   0.62878   0.77179   0.00000  Uiso   1.00
H877   H     0.64326   0.45214   0.69919   0.00000  Uiso   1.00
H878   H     0.35674   0.54786   0.80082   0.00000  Uiso   1.00
N879   N     0.38093   0.50001   0.75001   0.00000  Uiso   1.00
N880   N     0.61907   0.49999   0.74999   0.00000  Uiso   1.00
O881   O     0.46179   0.56108   0.75001   0.00000  Uiso   1.00
O882   O     0.53821   0.43892   0.74999   0.00000  Uiso   1.00
O883   O     0.53823   0.56107   0.75000   0.00000  Uiso   1.00
O884   O     0.46177   0.43893   0.75000   0.00000  Uiso   1.00
O885   O     0.43994   0.50001   0.81613   0.00000  Uiso   1.00
O886   O     0.56006   0.49999   0.68388   0.00000  Uiso   1.00
O887   O     0.51639   0.50000   0.81612   0.00000  Uiso   1.00
O888   O     0.48361   0.50000   0.68388   0.00000  Uiso   1.00
Zn889  Zn    0.44896   0.50001   0.75000   0.00000  Uiso   1.00
Zn890  Zn    0.55104   0.49999   0.75000   0.00000  Uiso   1.00
O891   O     0.35513   0.56584   0.98140   0.00000  Uiso   1.00
H892   H     0.33535   0.56691   0.96178   0.00000  Uiso   1.00
O893   O     0.65925   0.47461   0.50871   0.00000  Uiso   1.00
H894   H     0.34379   0.46824   0.52920   0.00000  Uiso   1.00
I895   I     0.41524   0.42947   0.67514   0.00000  Uiso   1.00
I896   I     0.58498   0.57092   0.82444   0.00000  Uiso   1.00
C897   C     0.83339   0.57998   0.75016   0.00000  Uiso   1.00
C898   C     0.83327   0.42002   0.74985   0.00000  Uiso   1.00
C899   C     0.78983   0.54706   0.54421   0.00000  Uiso   1.00
C900   C     0.89436   0.50293   0.94561   0.00000  Uiso   1.00
C901   C     0.75644   0.55377   0.52340   0.00000  Uiso   1.00
C902   C     0.92804   0.49645   0.96603   0.00000  Uiso   1.00
C903   C     0.87745   0.64549   0.73830   0.00000  Uiso   1.00
C904   C     0.78919   0.35451   0.76175   0.00000  Uiso   1.00
C905   C     0.87739   0.35481   0.73798   0.00000  Uiso   1.00
C906   C     0.78926   0.64518   0.76207   0.00000  Uiso   1.00
C907   C     0.83325   0.37584   0.74974   0.00000  Uiso   1.00
C908   C     0.83340   0.62416   0.75031   0.00000  Uiso   1.00
C909   C     0.98642   0.47337   0.72174   0.00000  Uiso   1.00
C910   C     0.68024   0.52662   0.77827   0.00000  Uiso   1.00
C911   C     0.70081   0.47318   0.72155   0.00000  Uiso   1.00
C912   C     0.96588   0.52686   0.77841   0.00000  Uiso   1.00
C913   C     0.80295   0.50058   0.83796   0.00000  Uiso   1.00
C914   C     0.86377   0.50038   0.66206   0.00000  Uiso   1.00
C915   C     0.78480   0.50788   0.88817   0.00000  Uiso   1.00
C916   C     0.88318   0.50250   0.61136   0.00000  Uiso   1.00
C917   C     0.73097   0.54445   0.95741   0.00000  Uiso   1.00
C918   C     0.94671   0.48896   0.53572   0.00000  Uiso   1.00
C919   C     0.74151   0.52940   0.91170   0.00000  Uiso   1.00
C920   C     0.93074   0.49039   0.58456   0.00000  Uiso   1.00
C921   C     0.81662   0.50003   0.91034   0.00000  Uiso   1.00
C922   C     0.85238   0.51576   0.58989   0.00000  Uiso   1.00
C923   C     0.80987   0.51812   0.95349   0.00000  Uiso   1.00
C924   C     0.86710   0.51547   0.54148   0.00000  Uiso   1.00
C925   C     0.76538   0.53880   0.97833   0.00000  Uiso   1.00
C926   C     0.91440   0.50059   0.51422   0.00000  Uiso   1.00
C927   C     0.84621   0.51537   0.97261   0.00000  Uiso   1.00
C928   C     0.83429   0.52624   0.51996   0.00000  Uiso   1.00
H929   H     0.72315   0.57019   0.54319   0.00000  Uiso   1.00
H930   H     0.96431   0.48655   0.94397   0.00000  Uiso   1.00
H931   H     0.81572   0.52396   0.61188   0.00000  Uiso   1.00
H932   H     0.84761   0.48044   0.89239   0.00000  Uiso   1.00
H933   H     0.95465   0.48040   0.60160   0.00000  Uiso   1.00
H934   H     0.71702   0.53584   0.89404   0.00000  Uiso   1.00
H935   H     0.78063   0.55995   0.57886   0.00000  Uiso   1.00
H936   H     0.90741   0.49900   0.90822   0.00000  Uiso   1.00
H937   H     0.91180   0.62932   0.72877   0.00000  Uiso   1.00
H938   H     0.75485   0.37067   0.77127   0.00000  Uiso   1.00
H939   H     0.91174   0.37121   0.72828   0.00000  Uiso   1.00
H940   H     0.75491   0.62878   0.77179   0.00000  Uiso   1.00
H941   H     0.97660   0.45214   0.69919   0.00000  Uiso   1.00
H942   H     0.69007   0.54786   0.80082   0.00000  Uiso   1.00
N943   N     0.71426   0.50001   0.75001   0.00000  Uiso   1.00
N944   N     0.95241   0.49999   0.74999   0.00000  Uiso   1.00
O945   O     0.79512   0.56108   0.75001   0.00000  Uiso   1.00
O946   O     0.87154   0.43892   0.74999   0.00000  Uiso   1.00
O947   O     0.87157   0.56107   0.75000   0.00000  Uiso   1.00
O948   O     0.79510   0.43893   0.75000   0.00000  Uiso   1.00
O949   O     0.77328   0.50001   0.81613   0.00000  Uiso   1.00
O950   O     0.89339   0.49999   0.68388   0.00000  Uiso   1.00
O951   O     0.84972   0.50000   0.81612   0.00000  Uiso   1.00
O952   O     0.81695   0.50000   0.68388   0.00000  Uiso   1.00
Zn953  Zn    0.78229   0.50001   0.75000   0.00000  Uiso   1.00
Zn954  Zn    0.88438   0.49999   0.75000   0.00000  Uiso   1.00
O955   O     0.68847   0.56584   0.98140   0.00000  Uiso   1.00
H956   H     0.66868   0.56691   0.96178   0.00000  Uiso   1.00
O957   O     0.99258   0.47461   0.50871   0.00000  Uiso   1.00
H958   H     0.67712   0.46824   0.52920   0.00000  Uiso   1.00
I959   I     0.74857   0.42947   0.67514   0.00000  Uiso   1.00
I960   I     0.91832   0.57092   0.82444   0.00000  Uiso   1.00
C961   C     0.16673   0.91331   0.75016   0.00000  Uiso   1.00
C962   C     0.16660   0.75335   0.74985   0.00000  Uiso   1.00
C963   C     0.12317   0.88039   0.54421   0.00000  Uiso   1.00
C964   C     0.22769   0.83626   0.94561   0.00000  Uiso   1.00
C965   C     0.08977   0.88711   0.52340   0.00000  Uiso   1.00
C966   C     0.26137   0.82979   0.96603   0.00000  Uiso   1.00
C967   C     0.21079   0.97882   0.73830   0.00000  Uiso   1.00
C968   C     0.12253   0.68784   0.76175   0.00000  Uiso   1.00
C969   C     0.21072   0.68815   0.73798   0.00000  Uiso   1.00
C970   C     0.12259   0.97851   0.76207   0.00000  Uiso   1.00
C971   C     0.16658   0.70917   0.74974   0.00000  Uiso   1.00
C972   C     0.16673   0.95749   0.75031   0.00000  Uiso   1.00
C973   C     0.31976   0.80670   0.72174   0.00000  Uiso   1.00
C974   C     0.01357   0.85996   0.77827   0.00000  Uiso   1.00
C975   C     0.03414   0.80652   0.72155   0.00000  Uiso   1.00
C976   C     0.29922   0.86019   0.77841   0.00000  Uiso   1.00
C977   C     0.13628   0.83392   0.83796   0.00000  Uiso   1.00
C978   C     0.19710   0.83371   0.66206   0.00000  Uiso   1.00
C979   C     0.11814   0.84121   0.88817   0.00000  Uiso   1.00
C980   C     0.21651   0.83583   0.61136   0.00000  Uiso   1.00
C981   C     0.06431   0.87779   0.95741   0.00000  Uiso   1.00
C982   C     0.28004   0.82229   0.53572   0.00000  Uiso   1.00
C983   C     0.07484   0.86273   0.91170   0.00000  Uiso   1.00
C984   C     0.26408   0.82372   0.58456   0.00000  Uiso   1.00
C985   C     0.14996   0.83336   0.91034   0.00000  Uiso   1.00
C986   C     0.18571   0.84909   0.58989   0.00000  Uiso   1.00
C987   C     0.14320   0.85145   0.95349   0.00000  Uiso   1.00
C988   C     0.20044   0.84880   0.54148   0.00000  Uiso   1.00
C989   C     0.09872   0.87213   0.97833   0.00000  Uiso   1.00
C990   C     0.24773   0.83392   0.51422   0.00000  Uiso   1.00
C991   C     0.17955   0.84870   0.97261   0.00000  Uiso   1.00
C992   C     0.16762   0.85958   0.51996   0.00000  Uiso   1.00
H993   H     0.05649   0.90352   0.54319   0.00000  Uiso   1.00
H994   H     0.29765   0.81989   0.94397   0.00000  Uiso   1.00
H995   H     0.14906   0.85729   0.61188   0.00000  Uiso   1.00
H996   H     0.18095   0.81378   0.89239   0.00000  Uiso   1.00
H997   H     0.28798   0.81373   0.60160   0.00000  Uiso   1.00
H998   H     0.05035   0.86917   0.89404   0.00000  Uiso   1.00
H999   H     0.11396   0.89329   0.57886   0.00000  Uiso   1.00
H1000  H     0.24074   0.83233   0.90822   0.00000  Uiso   1.00
H1001  H     0.24513   0.96266   0.72877   0.00000  Uiso   1.00
H1002  H     0.08818   0.70400   0.77127   0.00000  Uiso   1.00
H1003  H     0.24508   0.70455   0.72828   0.00000  Uiso   1.00
H1004  H     0.08824   0.96211   0.77179   0.00000  Uiso   1.00
H1005  H     0.30993   0.78547   0.69919   0.00000  Uiso   1.00
H1006  H     0.02341   0.88119   0.80082   0.00000  Uiso   1.00
N1007  N     0.04759   0.83334   0.75001   0.00000  Uiso   1.00
N1008  N     0.28574   0.83332   0.74999   0.00000  Uiso   1.00
O1009  O     0.12846   0.89442   0.75001   0.00000  Uiso   1.00
O1010  O     0.20488   0.77225   0.74999   0.00000  Uiso   1.00
O1011  O     0.20490   0.89441   0.75000   0.00000  Uiso   1.00
O1012  O     0.12843   0.77226   0.75000   0.00000  Uiso   1.00
O1013  O     0.10661   0.83334   0.81613   0.00000  Uiso   1.00
O1014  O     0.22672   0.83333   0.68388   0.00000  Uiso   1.00
O1015  O     0.18305   0.83333   0.81612   0.00000  Uiso   1.00
O1016  O     0.15028   0.83334   0.68388   0.00000  Uiso   1.00
Zn1017 Zn    0.11562   0.83334   0.75000   0.00000  Uiso   1.00
Zn1018 Zn    0.21771   0.83333   0.75000   0.00000  Uiso   1.00
O1019  O     0.02180   0.89917   0.98140   0.00000  Uiso   1.00
H1020  H     0.00201   0.90025   0.96178   0.00000  Uiso   1.00
O1021  O     0.32592   0.80795   0.50871   0.00000  Uiso   1.00
H1022  H     0.01046   0.80158   0.52920   0.00000  Uiso   1.00
I1023  I     0.08191   0.76280   0.67514   0.00000  Uiso   1.00
I1024  I     0.25165   0.90426   0.82444   0.00000  Uiso   1.00
C1025  C     0.50006   0.91331   0.75016   0.00000  Uiso   1.00
C1026  C     0.49993   0.75335   0.74985   0.00000  Uiso   1.00
C1027  C     0.45650   0.88039   0.54421   0.00000  Uiso   1.00
C1028  C     0.56103   0.83626   0.94561   0.00000  Uiso   1.00
C1029  C     0.42310   0.88711   0.52340   0.00000  Uiso   1.00
C1030  C     0.59471   0.82979   0.96603   0.00000  Uiso   1.00
C1031  C     0.54412   0.97882   0.73830   0.00000  Uiso   1.00
C1032  C     0.45586   0.68784   0.76175   0.00000  Uiso   1.00
C1033  C     0.54406   0.68815   0.73798   0.00000  Uiso   1.00
C1034  C     0.45592   0.97851   0.76207   0.00000  Uiso   1.00
C1035  C     0.49992   0.70917   0.74974   0.00000  Uiso   1.00
C1036  C     0.50007   0.95749   0.75031   0.00000  Uiso   1.00
C1037  C     0.65309   0.80670   0.72174   0.00000  Uiso   1.00
C1038  C     0.34691   0.85996   0.77827   0.00000  Uiso   1.00
C1039  C     0.36747   0.80652   0.72155   0.00000  Uiso   1.00
C1040  C     0.63255   0.86019   0.77841   0.00000  Uiso   1.00
C1041  C     0.46962   0.83392   0.83796   0.00000  Uiso   1.00
C1042  C     0.53044   0.83371   0.66206   0.00000  Uiso   1.00
C1043  C     0.45147   0.84121   0.88817   0.00000  Uiso   1.00
C1044  C     0.54984   0.83583   0.61136   0.00000  Uiso   1.00
C1045  C     0.39764   0.87779   0.95741   0.00000  Uiso   1.00
C1046  C     0.61337   0.82229   0.53572   0.00000  Uiso   1.00
C1047  C     0.40817   0.86273   0.91170   0.00000  Uiso   1.00
C1048  C     0.59741   0.82372   0.58456   0.00000  Uiso   1.00
C1049  C     0.48329   0.83336   0.91034   0.00000  Uiso   1.00
C1050  C     0.51904   0.84909   0.58989   0.00000  Uiso   1.00
C1051  C     0.47654   0.85145   0.95349   0.00000  Uiso   1.00
C1052  C     0.53377   0.84880   0.54148   0.00000  Uiso   1.00
C1053  C     0.43205   0.87213   0.97833   0.00000  Uiso   1.00
C1054  C     0.58106   0.83392   0.51422   0.00000  Uiso   1.00
C1055  C     0.51288   0.84870   0.97261   0.00000  Uiso   1.00
C1056  C     0.50096   0.85958   0.51996   0.00000  Uiso   1.00
H1057  H     0.38982   0.90352   0.54319   0.00000  Uiso   1.00
H1058  H     0.63098   0.81989   0.94397   0.00000  Uiso   1.00
H1059  H     0.48239   0.85729   0.61188   0.00000  Uiso   1.00
H1060  H     0.51428   0.81378   0.89239   0.00000  Uiso   1.00
H1061  H     0.62131   0.81373   0.60160   0.00000  Uiso   1.00
H1062  H     0.38369   0.86917   0.89404   0.00000  Uiso   1.00
H1063  H     0.44730   0.89329   0.57886   0.00000  Uiso   1.00
H1064  H     0.57408   0.83233   0.90822   0.00000  Uiso   1.00
H1065  H     0.57847   0.96266   0.72877   0.00000  Uiso   1.00
H1066  H     0.42152   0.70400   0.77127   0.00000  Uiso   1.00
H1067  H     0.57841   0.70455   0.72828   0.00000  Uiso   1.00
H1068  H     0.42157   0.96211   0.77179   0.00000  Uiso   1.00
H1069  H     0.64326   0.78547   0.69919   0.00000  Uiso   1.00
H1070  H     0.35674   0.88119   0.80082   0.00000  Uiso   1.00
N1071  N     0.38093   0.83334   0.75001   0.00000  Uiso   1.00
N1072  N     0.61907   0.83332   0.74999   0.00000  Uiso   1.00
O1073  O     0.46179   0.89442   0.75001   0.00000  Uiso   1.00
O1074  O     0.53821   0.77225   0.74999   0.00000  Uiso   1.00
O1075  O     0.53823   0.89441   0.75000   0.00000  Uiso   1.00
O1076  O     0.46177   0.77226   0.75000   0.00000  Uiso   1.00
O1077  O     0.43994   0.83334   0.81613   0.00000  Uiso   1.00
O1078  O     0.56006   0.83333   0.68388   0.00000  Uiso   1.00
O1079  O     0.51639   0.83333   0.81612   0.00000  Uiso   1.00
O1080  O     0.48361   0.83334   0.68388   0.00000  Uiso   1.00
Zn1081 Zn    0.44896   0.83334   0.75000   0.00000  Uiso   1.00
Zn1082 Zn    0.55104   0.83333   0.75000   0.00000  Uiso   1.00
O1083  O     0.35513   0.89917   0.98140   0.00000  Uiso   1.00
H1084  H     0.33535   0.90025   0.96178   0.00000  Uiso   1.00
O1085  O     0.65925   0.80795   0.50871   0.00000  Uiso   1.00
H1086  H     0.34379   0.80158   0.52920   0.00000  Uiso   1.00
I1087  I     0.41524   0.76280   0.67514   0.00000  Uiso   1.00
I1088  I     0.58498   0.90426   0.82444   0.00000  Uiso   1.00
C1089  C     0.83339   0.91331   0.75016   0.00000  Uiso   1.00
C1090  C     0.83327   0.75335   0.74985   0.00000  Uiso   1.00
C1091  C     0.78983   0.88039   0.54421   0.00000  Uiso   1.00
C1092  C     0.89436   0.83626   0.94561   0.00000  Uiso   1.00
C1093  C     0.75644   0.88711   0.52340   0.00000  Uiso   1.00
C1094  C     0.92804   0.82979   0.96603   0.00000  Uiso   1.00
C1095  C     0.87745   0.97882   0.73830   0.00000  Uiso   1.00
C1096  C     0.78919   0.68784   0.76175   0.00000  Uiso   1.00
C1097  C     0.87739   0.68815   0.73798   0.00000  Uiso   1.00
C1098  C     0.78926   0.97851   0.76207   0.00000  Uiso   1.00
C1099  C     0.83325   0.70917   0.74974   0.00000  Uiso   1.00
C1100  C     0.83340   0.95749   0.75031   0.00000  Uiso   1.00
C1101  C     0.98642   0.80670   0.72174   0.00000  Uiso   1.00
C1102  C     0.68024   0.85996   0.77827   0.00000  Uiso   1.00
C1103  C     0.70081   0.80652   0.72155   0.00000  Uiso   1.00
C1104  C     0.96588   0.86019   0.77841   0.00000  Uiso   1.00
C1105  C     0.80295   0.83392   0.83796   0.00000  Uiso   1.00
C1106  C     0.86377   0.83371   0.66206   0.00000  Uiso   1.00
C1107  C     0.78480   0.84121   0.88817   0.00000  Uiso   1.00
C1108  C     0.88318   0.83583   0.61136   0.00000  Uiso   1.00
C1109  C     0.73097   0.87779   0.95741   0.00000  Uiso   1.00
C1110  C     0.94671   0.82229   0.53572   0.00000  Uiso   1.00
C1111  C     0.74151   0.86273   0.91170   0.00000  Uiso   1.00
C1112  C     0.93074   0.82372   0.58456   0.00000  Uiso   1.00
C1113  C     0.81662   0.83336   0.91034   0.00000  Uiso   1.00
C1114  C     0.85238   0.84909   0.58989   0.00000  Uiso   1.00
C1115  C     0.80987   0.85145   0.95349   0.00000  Uiso   1.00
C1116  C     0.86710   0.84880   0.54148   0.00000  Uiso   1.00
C1117  C     0.76538   0.87213   0.97833   0.00000  Uiso   1.00
C1118  C     0.91440   0.83392   0.51422   0.00000  Uiso   1.00
C1119  C     0.84621   0.84870   0.97261   0.00000  Uiso   1.00
C1120  C     0.83429   0.85958   0.51996   0.00000  Uiso   1.00
H1121  H     0.72315   0.90352   0.54319   0.00000  Uiso   1.00
H1122  H     0.96431   0.81989   0.94397   0.00000  Uiso   1.00
H1123  H     0.81572   0.85729   0.61188   0.00000  Uiso   1.00
H1124  H     0.84761   0.81378   0.89239   0.00000  Uiso   1.00
H1125  H     0.95465   0.81373   0.60160   0.00000  Uiso   1.00
H1126  H     0.71702   0.86917   0.89404   0.00000  Uiso   1.00
H1127  H     0.78063   0.89329   0.57886   0.00000  Uiso   1.00
H1128  H     0.90741   0.83233   0.90822   0.00000  Uiso   1.00
H1129  H     0.91180   0.96266   0.72877   0.00000  Uiso   1.00
H1130  H     0.75485   0.70400   0.77127   0.00000  Uiso   1.00
H1131  H     0.91174   0.70455   0.72828   0.00000  Uiso   1.00
H1132  H     0.75491   0.96211   0.77179   0.00000  Uiso   1.00
H1133  H     0.97660   0.78547   0.69919   0.00000  Uiso   1.00
H1134  H     0.69007   0.88119   0.80082   0.00000  Uiso   1.00
N1135  N     0.71426   0.83334   0.75001   0.00000  Uiso   1.00
N1136  N     0.95241   0.83332   0.74999   0.00000  Uiso   1.00
O1137  O     0.79512   0.89442   0.75001   0.00000  Uiso   1.00
O1138  O     0.87154   0.77225   0.74999   0.00000  Uiso   1.00
O1139  O     0.87157   0.89441   0.75000   0.00000  Uiso   1.00
O1140  O     0.79510   0.77226   0.75000   0.00000  Uiso   1.00
O1141  O     0.77328   0.83334   0.81613   0.00000  Uiso   1.00
O1142  O     0.89339   0.83333   0.68388   0.00000  Uiso   1.00
O1143  O     0.84972   0.83333   0.81612   0.00000  Uiso   1.00
O1144  O     0.81695   0.83334   0.68388   0.00000  Uiso   1.00
Zn1145 Zn    0.78229   0.83334   0.75000   0.00000  Uiso   1.00
Zn1146 Zn    0.88438   0.83333   0.75000   0.00000  Uiso   1.00
O1147  O     0.68847   0.89917   0.98140   0.00000  Uiso   1.00
H1148  H     0.66868   0.90025   0.96178   0.00000  Uiso   1.00
O1149  O     0.99258   0.80795   0.50871   0.00000  Uiso   1.00
H1150  H     0.67712   0.80158   0.52920   0.00000  Uiso   1.00
I1151  I     0.74857   0.76280   0.67514   0.00000  Uiso   1.00
I1152  I     0.91832   0.90426   0.82444   0.00000  Uiso   1.00
loop_
_geom_bond_atom_site_label_1
_geom_bond_atom_site_label_2
_geom_bond_distance
_geom_bond_site_symmetry_2
_ccdc_geom_bond_type
C1     O51     1.288   .     A
C1     C12     1.418   .     S
C1     O49     1.286   .     A
C2     O52     1.288   .     A
C2     C11     1.419   .     S
C2     O50     1.286   .     A
C3     C5      1.390   .     A
C3     H39     1.079   .     S
C3     C32     1.417   .     A
C4     C31     1.416   .     A
C4     C6      1.387   .     A
C4     H40     1.079   .     S
C5     H33     1.083   .     S
C5     C605    1.396   1_554 S
C6     H34     1.084   .     S
C6     C606    1.395   .     S
C7     C12     1.396   .     A
C7     H41     1.084   .     S
C7     C201    1.370   .     S
C8     C11     1.396   .     A
C8     H42     1.084   .     S
C8     C394    1.370   1_545 S
C9     C11     1.398   .     A
C9     H43     1.084   .     S
C9     C391    1.370   1_545 S
C10    C12     1.398   .     A
C10    H44     1.084   .     S
C10    C200    1.370   .     S
C13    N48     1.357   .     A
C13    H45     1.082   .     S
C13    C79     1.415   .     S
C14    N47     1.357   .     A
C14    H46     1.082   .     S
C14    C144    1.415   1_455 S
C15    N47     1.382   .     A
C15    I63     2.117   .     S
C15    C141    1.415   1_455 S
C16    N48     1.383   .     A
C16    I64     2.118   .     S
C16    C78     1.415   .     S
C17    O55     1.297   .     A
C17    O53     1.296   .     A
C17    C19     1.456   .     S
C18    O56     1.298   .     A
C18    O54     1.294   .     A
C18    C20     1.457   .     S
C19    C23     1.399   .     A
C19    C25     1.387   .     A
C20    C24     1.398   .     A
C20    C26     1.389   .     A
C21    C29     1.414   .     A
C21    O59     1.382   .     S
C21    C23     1.407   .     A
C22    O61     1.382   .     S
C22    C24     1.404   .     A
C22    C30     1.412   .     A
C23    H38     1.084   .     S
C24    H37     1.084   .     S
C25    H36     1.080   .     S
C25    C27     1.391   .     A
C26    C28     1.394   .     A
C26    H35     1.077   .     S
C27    C29     1.419   .     A
C27    C31     1.416   .     A
C28    C30     1.422   .     A
C28    C32     1.418   .     A
C29    C581    1.396   .     S
C30    C582    1.395   1_554 S
C31    C608    1.411   .     S
C32    C607    1.411   1_554 S
N47    Zn57    2.020   .     S
N48    Zn58    2.020   .     S
O49    Zn57    1.995   .     S
O50    Zn58    1.995   .     S
O51    Zn58    2.001   .     S
O52    Zn57    2.001   .     S
O53    Zn57    1.961   .     S
O54    Zn58    1.961   .     S
O55    Zn58    1.915   .     S
O56    Zn57    1.915   .     S
O59    H60     0.992   .     S
O61    H126    0.992   .     S
H62    O189    0.992   1_455 S
C65    O115    1.288   .     A
C65    C76     1.418   .     S
C65    O113    1.286   .     A
C66    O116    1.288   .     A
C66    C75     1.419   .     S
C66    O114    1.286   .     A
C67    C69     1.390   .     A
C67    H103    1.079   .     S
C67    C96     1.417   .     A
C68    C95     1.416   .     A
C68    C70     1.387   .     A
C68    H104    1.079   .     S
C69    H97     1.083   .     S
C69    C669    1.396   1_554 S
C70    H98     1.084   .     S
C70    C670    1.395   .     S
C71    C76     1.396   .     A
C71    H105    1.084   .     S
C71    C265    1.370   .     S
C72    C75     1.396   .     A
C72    H106    1.084   .     S
C72    C458    1.370   1_545 S
C73    C75     1.398   .     A
C73    H107    1.084   .     S
C73    C455    1.370   1_545 S
C74    C76     1.398   .     A
C74    H108    1.084   .     S
C74    C264    1.370   .     S
C77    N112    1.357   .     A
C77    H109    1.082   .     S
C77    C143    1.415   .     S
C78    N111    1.357   .     A
C78    H110    1.082   .     S
C79    N111    1.382   .     A
C79    I127    2.117   .     S
C80    N112    1.383   .     A
C80    I128    2.118   .     S
C80    C142    1.415   .     S
C81    O119    1.297   .     A
C81    O117    1.296   .     A
C81    C83     1.456   .     S
C82    O120    1.298   .     A
C82    O118    1.294   .     A
C82    C84     1.457   .     S
C83    C87     1.399   .     A
C83    C89     1.387   .     A
C84    C88     1.398   .     A
C84    C90     1.389   .     A
C85    C93     1.414   .     A
C85    O123    1.382   .     S
C85    C87     1.407   .     A
C86    O125    1.382   .     S
C86    C88     1.404   .     A
C86    C94     1.412   .     A
C87    H102    1.084   .     S
C88    H101    1.084   .     S
C89    H100    1.080   .     S
C89    C91     1.391   .     A
C90    C92     1.394   .     A
C90    H99     1.077   .     S
C91    C93     1.419   .     A
C91    C95     1.416   .     A
C92    C94     1.422   .     A
C92    C96     1.418   .     A
C93    C645    1.396   .     S
C94    C646    1.395   1_554 S
C95    C672    1.411   .     S
C96    C671    1.411   1_554 S
N111   Zn121   2.020   .     S
N112   Zn122   2.020   .     S
O113   Zn121   1.995   .     S
O114   Zn122   1.995   .     S
O115   Zn122   2.001   .     S
O116   Zn121   2.001   .     S
O117   Zn121   1.961   .     S
O118   Zn122   1.961   .     S
O119   Zn122   1.915   .     S
O120   Zn121   1.915   .     S
O123   H124    0.992   .     S
O125   H190    0.992   .     S
C129   O179    1.288   .     A
C129   C140    1.418   .     S
C129   O177    1.286   .     A
C130   O180    1.288   .     A
C130   C139    1.419   .     S
C130   O178    1.286   .     A
C131   C133    1.390   .     A
C131   H167    1.079   .     S
C131   C160    1.417   .     A
C132   C159    1.416   .     A
C132   C134    1.387   .     A
C132   H168    1.079   .     S
C133   H161    1.083   .     S
C133   C733    1.396   1_554 S
C134   H162    1.084   .     S
C134   C734    1.395   .     S
C135   C140    1.396   .     A
C135   H169    1.084   .     S
C135   C329    1.370   .     S
C136   C139    1.396   .     A
C136   H170    1.084   .     S
C136   C522    1.370   1_545 S
C137   C139    1.398   .     A
C137   H171    1.084   .     S
C137   C519    1.370   1_545 S
C138   C140    1.398   .     A
C138   H172    1.084   .     S
C138   C328    1.370   .     S
C141   N176    1.357   .     A
C141   H173    1.082   .     S
C141   C15     1.415   1_655 S
C142   N175    1.357   .     A
C142   H174    1.082   .     S
C143   N175    1.382   .     A
C143   I191    2.117   .     S
C144   N176    1.383   .     A
C144   I192    2.118   .     S
C144   C14     1.415   1_655 S
C145   O183    1.297   .     A
C145   O181    1.296   .     A
C145   C147    1.456   .     S
C146   O184    1.298   .     A
C146   O182    1.294   .     A
C146   C148    1.457   .     S
C147   C151    1.399   .     A
C147   C153    1.387   .     A
C148   C152    1.398   .     A
C148   C154    1.389   .     A
C149   C157    1.414   .     A
C149   O187    1.382   .     S
C149   C151    1.407   .     A
C150   O189    1.382   .     S
C150   C152    1.404   .     A
C150   C158    1.412   .     A
C151   H166    1.084   .     S
C152   H165    1.084   .     S
C153   H164    1.080   .     S
C153   C155    1.391   .     A
C154   C156    1.394   .     A
C154   H163    1.077   .     S
C155   C157    1.419   .     A
C155   C159    1.416   .     A
C156   C158    1.422   .     A
C156   C160    1.418   .     A
C157   C709    1.396   .     S
C158   C710    1.395   1_554 S
C159   C736    1.411   .     S
C160   C735    1.411   1_554 S
N175   Zn185   2.020   .     S
N176   Zn186   2.020   .     S
O177   Zn185   1.995   .     S
O178   Zn186   1.995   .     S
O179   Zn186   2.001   .     S
O180   Zn185   2.001   .     S
O181   Zn185   1.961   .     S
O182   Zn186   1.961   .     S
O183   Zn186   1.915   .     S
O184   Zn185   1.915   .     S
O187   H188    0.992   .     S
O189   H62     0.992   1_655 S
C193   O243    1.288   .     A
C193   C204    1.418   .     S
C193   O241    1.286   .     A
C194   O244    1.288   .     A
C194   C203    1.419   .     S
C194   O242    1.286   .     A
C195   C197    1.390   .     A
C195   H231    1.079   .     S
C195   C224    1.417   .     A
C196   C223    1.416   .     A
C196   C198    1.387   .     A
C196   H232    1.079   .     S
C197   H225    1.083   .     S
C197   C797    1.396   1_554 S
C198   H226    1.084   .     S
C198   C798    1.395   .     S
C199   C204    1.396   .     A
C199   H233    1.084   .     S
C199   C393    1.370   .     S
C200   C203    1.396   .     A
C200   H234    1.084   .     S
C201   C203    1.398   .     A
C201   H235    1.084   .     S
C202   C204    1.398   .     A
C202   H236    1.084   .     S
C202   C392    1.370   .     S
C205   N240    1.357   .     A
C205   H237    1.082   .     S
C205   C271    1.415   .     S
C206   N239    1.357   .     A
C206   H238    1.082   .     S
C206   C336    1.415   1_455 S
C207   N239    1.382   .     A
C207   I255    2.117   .     S
C207   C333    1.415   1_455 S
C208   N240    1.383   .     A
C208   I256    2.118   .     S
C208   C270    1.415   .     S
C209   O247    1.297   .     A
C209   O245    1.296   .     A
C209   C211    1.456   .     S
C210   O248    1.298   .     A
C210   O246    1.294   .     A
C210   C212    1.457   .     S
C211   C215    1.399   .     A
C211   C217    1.387   .     A
C212   C216    1.398   .     A
C212   C218    1.389   .     A
C213   C221    1.414   .     A
C213   O251    1.382   .     S
C213   C215    1.407   .     A
C214   O253    1.382   .     S
C214   C216    1.404   .     A
C214   C222    1.412   .     A
C215   H230    1.084   .     S
C216   H229    1.084   .     S
C217   H228    1.080   .     S
C217   C219    1.391   .     A
C218   C220    1.394   .     A
C218   H227    1.077   .     S
C219   C221    1.419   .     A
C219   C223    1.416   .     A
C220   C222    1.422   .     A
C220   C224    1.418   .     A
C221   C773    1.396   .     S
C222   C774    1.395   1_554 S
C223   C800    1.411   .     S
C224   C799    1.411   1_554 S
N239   Zn249   2.020   .     S
N240   Zn250   2.020   .     S
O241   Zn249   1.995   .     S
O242   Zn250   1.995   .     S
O243   Zn250   2.001   .     S
O244   Zn249   2.001   .     S
O245   Zn249   1.961   .     S
O246   Zn250   1.961   .     S
O247   Zn250   1.915   .     S
O248   Zn249   1.915   .     S
O251   H252    0.992   .     S
O253   H318    0.992   .     S
H254   O381    0.992   1_455 S
C257   O307    1.288   .     A
C257   C268    1.418   .     S
C257   O305    1.286   .     A
C258   O308    1.288   .     A
C258   C267    1.419   .     S
C258   O306    1.286   .     A
C259   C261    1.390   .     A
C259   H295    1.079   .     S
C259   C288    1.417   .     A
C260   C287    1.416   .     A
C260   C262    1.387   .     A
C260   H296    1.079   .     S
C261   H289    1.083   .     S
C261   C861    1.396   1_554 S
C262   H290    1.084   .     S
C262   C862    1.395   .     S
C263   C268    1.396   .     A
C263   H297    1.084   .     S
C263   C457    1.370   .     S
C264   C267    1.396   .     A
C264   H298    1.084   .     S
C265   C267    1.398   .     A
C265   H299    1.084   .     S
C266   C268    1.398   .     A
C266   H300    1.084   .     S
C266   C456    1.370   .     S
C269   N304    1.357   .     A
C269   H301    1.082   .     S
C269   C335    1.415   .     S
C270   N303    1.357   .     A
C270   H302    1.082   .     S
C271   N303    1.382   .     A
C271   I319    2.117   .     S
C272   N304    1.383   .     A
C272   I320    2.118   .     S
C272   C334    1.415   .     S
C273   O311    1.297   .     A
C273   O309    1.296   .     A
C273   C275    1.456   .     S
C274   O312    1.298   .     A
C274   O310    1.294   .     A
C274   C276    1.457   .     S
C275   C279    1.399   .     A
C275   C281    1.387   .     A
C276   C280    1.398   .     A
C276   C282    1.389   .     A
C277   C285    1.414   .     A
C277   O315    1.382   .     S
C277   C279    1.407   .     A
C278   O317    1.382   .     S
C278   C280    1.404   .     A
C278   C286    1.412   .     A
C279   H294    1.084   .     S
C280   H293    1.084   .     S
C281   H292    1.080   .     S
C281   C283    1.391   .     A
C282   C284    1.394   .     A
C282   H291    1.077   .     S
C283   C285    1.419   .     A
C283   C287    1.416   .     A
C284   C286    1.422   .     A
C284   C288    1.418   .     A
C285   C837    1.396   .     S
C286   C838    1.395   1_554 S
C287   C864    1.411   .     S
C288   C863    1.411   1_554 S
N303   Zn313   2.020   .     S
N304   Zn314   2.020   .     S
O305   Zn313   1.995   .     S
O306   Zn314   1.995   .     S
O307   Zn314   2.001   .     S
O308   Zn313   2.001   .     S
O309   Zn313   1.961   .     S
O310   Zn314   1.961   .     S
O311   Zn314   1.915   .     S
O312   Zn313   1.915   .     S
O315   H316    0.992   .     S
O317   H382    0.992   .     S
C321   O371    1.288   .     A
C321   C332    1.418   .     S
C321   O369    1.286   .     A
C322   O372    1.288   .     A
C322   C331    1.419   .     S
C322   O370    1.286   .     A
C323   C325    1.390   .     A
C323   H359    1.079   .     S
C323   C352    1.417   .     A
C324   C351    1.416   .     A
C324   C326    1.387   .     A
C324   H360    1.079   .     S
C325   H353    1.083   .     S
C325   C925    1.396   1_554 S
C326   H354    1.084   .     S
C326   C926    1.395   .     S
C327   C332    1.396   .     A
C327   H361    1.084   .     S
C327   C521    1.370   .     S
C328   C331    1.396   .     A
C328   H362    1.084   .     S
C329   C331    1.398   .     A
C329   H363    1.084   .     S
C330   C332    1.398   .     A
C330   H364    1.084   .     S
C330   C520    1.370   .     S
C333   N368    1.357   .     A
C333   H365    1.082   .     S
C333   C207    1.415   1_655 S
C334   N367    1.357   .     A
C334   H366    1.082   .     S
C335   N367    1.382   .     A
C335   I383    2.117   .     S
C336   N368    1.383   .     A
C336   I384    2.118   .     S
C336   C206    1.415   1_655 S
C337   O375    1.297   .     A
C337   O373    1.296   .     A
C337   C339    1.456   .     S
C338   O376    1.298   .     A
C338   O374    1.294   .     A
C338   C340    1.457   .     S
C339   C343    1.399   .     A
C339   C345    1.387   .     A
C340   C344    1.398   .     A
C340   C346    1.389   .     A
C341   C349    1.414   .     A
C341   O379    1.382   .     S
C341   C343    1.407   .     A
C342   O381    1.382   .     S
C342   C344    1.404   .     A
C342   C350    1.412   .     A
C343   H358    1.084   .     S
C344   H357    1.084   .     S
C345   H356    1.080   .     S
C345   C347    1.391   .     A
C346   C348    1.394   .     A
C346   H355    1.077   .     S
C347   C349    1.419   .     A
C347   C351    1.416   .     A
C348   C350    1.422   .     A
C348   C352    1.418   .     A
C349   C901    1.396   .     S
C350   C902    1.395   1_554 S
C351   C928    1.411   .     S
C352   C927    1.411   1_554 S
N367   Zn377   2.020   .     S
N368   Zn378   2.020   .     S
O369   Zn377   1.995   .     S
O370   Zn378   1.995   .     S
O371   Zn378   2.001   .     S
O372   Zn377   2.001   .     S
O373   Zn377   1.961   .     S
O374   Zn378   1.961   .     S
O375   Zn378   1.915   .     S
O376   Zn377   1.915   .     S
O379   H380    0.992   .     S
O381   H254    0.992   1_655 S
C385   O435    1.288   .     A
C385   C396    1.418   .     S
C385   O433    1.286   .     A
C386   O436    1.288   .     A
C386   C395    1.419   .     S
C386   O434    1.286   .     A
C387   C389    1.390   .     A
C387   H423    1.079   .     S
C387   C416    1.417   .     A
C388   C415    1.416   .     A
C388   C390    1.387   .     A
C388   H424    1.079   .     S
C389   H417    1.083   .     S
C389   C989    1.396   1_554 S
C390   H418    1.084   .     S
C390   C990    1.395   .     S
C391   C396    1.396   .     A
C391   H425    1.084   .     S
C391   C9      1.370   1_565 S
C392   C395    1.396   .     A
C392   H426    1.084   .     S
C393   C395    1.398   .     A
C393   H427    1.084   .     S
C394   C396    1.398   .     A
C394   H428    1.084   .     S
C394   C8      1.370   1_565 S
C397   N432    1.357   .     A
C397   H429    1.082   .     S
C397   C463    1.415   .     S
C398   N431    1.357   .     A
C398   H430    1.082   .     S
C398   C528    1.415   1_455 S
C399   N431    1.382   .     A
C399   I447    2.117   .     S
C399   C525    1.415   1_455 S
C400   N432    1.383   .     A
C400   I448    2.118   .     S
C400   C462    1.415   .     S
C401   O439    1.297   .     A
C401   O437    1.296   .     A
C401   C403    1.456   .     S
C402   O440    1.298   .     A
C402   O438    1.294   .     A
C402   C404    1.457   .     S
C403   C407    1.399   .     A
C403   C409    1.387   .     A
C404   C408    1.398   .     A
C404   C410    1.389   .     A
C405   C413    1.414   .     A
C405   O443    1.382   .     S
C405   C407    1.407   .     A
C406   O445    1.382   .     S
C406   C408    1.404   .     A
C406   C414    1.412   .     A
C407   H422    1.084   .     S
C408   H421    1.084   .     S
C409   H420    1.080   .     S
C409   C411    1.391   .     A
C410   C412    1.394   .     A
C410   H419    1.077   .     S
C411   C413    1.419   .     A
C411   C415    1.416   .     A
C412   C414    1.422   .     A
C412   C416    1.418   .     A
C413   C965    1.396   .     S
C414   C966    1.395   1_554 S
C415   C992    1.411   .     S
C416   C991    1.411   1_554 S
N431   Zn441   2.020   .     S
N432   Zn442   2.020   .     S
O433   Zn441   1.995   .     S
O434   Zn442   1.995   .     S
O435   Zn442   2.001   .     S
O436   Zn441   2.001   .     S
O437   Zn441   1.961   .     S
O438   Zn442   1.961   .     S
O439   Zn442   1.915   .     S
O440   Zn441   1.915   .     S
O443   H444    0.992   .     S
O445   H510    0.992   .     S
H446   O573    0.992   1_455 S
C449   O499    1.288   .     A
C449   C460    1.418   .     S
C449   O497    1.286   .     A
C450   O500    1.288   .     A
C450   C459    1.419   .     S
C450   O498    1.286   .     A
C451   C453    1.390   .     A
C451   H487    1.079   .     S
C451   C480    1.417   .     A
C452   C479    1.416   .     A
C452   C454    1.387   .     A
C452   H488    1.079   .     S
C453   H481    1.083   .     S
C453   C1053   1.396   1_554 S
C454   H482    1.084   .     S
C454   C1054   1.395   .     S
C455   C460    1.396   .     A
C455   H489    1.084   .     S
C455   C73     1.370   1_565 S
C456   C459    1.396   .     A
C456   H490    1.084   .     S
C457   C459    1.398   .     A
C457   H491    1.084   .     S
C458   C460    1.398   .     A
C458   H492    1.084   .     S
C458   C72     1.370   1_565 S
C461   N496    1.357   .     A
C461   H493    1.082   .     S
C461   C527    1.415   .     S
C462   N495    1.357   .     A
C462   H494    1.082   .     S
C463   N495    1.382   .     A
C463   I511    2.117   .     S
C464   N496    1.383   .     A
C464   I512    2.118   .     S
C464   C526    1.415   .     S
C465   O503    1.297   .     A
C465   O501    1.296   .     A
C465   C467    1.456   .     S
C466   O504    1.298   .     A
C466   O502    1.294   .     A
C466   C468    1.457   .     S
C467   C471    1.399   .     A
C467   C473    1.387   .     A
C468   C472    1.398   .     A
C468   C474    1.389   .     A
C469   C477    1.414   .     A
C469   O507    1.382   .     S
C469   C471    1.407   .     A
C470   O509    1.382   .     S
C470   C472    1.404   .     A
C470   C478    1.412   .     A
C471   H486    1.084   .     S
C472   H485    1.084   .     S
C473   H484    1.080   .     S
C473   C475    1.391   .     A
C474   C476    1.394   .     A
C474   H483    1.077   .     S
C475   C477    1.419   .     A
C475   C479    1.416   .     A
C476   C478    1.422   .     A
C476   C480    1.418   .     A
C477   C1029   1.396   .     S
C478   C1030   1.395   1_554 S
C479   C1056   1.411   .     S
C480   C1055   1.411   1_554 S
N495   Zn505   2.020   .     S
N496   Zn506   2.020   .     S
O497   Zn505   1.995   .     S
O498   Zn506   1.995   .     S
O499   Zn506   2.001   .     S
O500   Zn505   2.001   .     S
O501   Zn505   1.961   .     S
O502   Zn506   1.961   .     S
O503   Zn506   1.915   .     S
O504   Zn505   1.915   .     S
O507   H508    0.992   .     S
O509   H574    0.992   .     S
C513   O563    1.288   .     A
C513   C524    1.418   .     S
C513   O561    1.286   .     A
C514   O564    1.288   .     A
C514   C523    1.419   .     S
C514   O562    1.286   .     A
C515   C517    1.390   .     A
C515   H551    1.079   .     S
C515   C544    1.417   .     A
C516   C543    1.416   .     A
C516   C518    1.387   .     A
C516   H552    1.079   .     S
C517   H545    1.083   .     S
C517   C1117   1.396   1_554 S
C518   H546    1.084   .     S
C518   C1118   1.395   .     S
C519   C524    1.396   .     A
C519   H553    1.084   .     S
C519   C137    1.370   1_565 S
C520   C523    1.396   .     A
C520   H554    1.084   .     S
C521   C523    1.398   .     A
C521   H555    1.084   .     S
C522   C524    1.398   .     A
C522   H556    1.084   .     S
C522   C136    1.370   1_565 S
C525   N560    1.357   .     A
C525   H557    1.082   .     S
C525   C399    1.415   1_655 S
C526   N559    1.357   .     A
C526   H558    1.082   .     S
C527   N559    1.382   .     A
C527   I575    2.117   .     S
C528   N560    1.383   .     A
C528   I576    2.118   .     S
C528   C398    1.415   1_655 S
C529   O567    1.297   .     A
C529   O565    1.296   .     A
C529   C531    1.456   .     S
C530   O568    1.298   .     A
C530   O566    1.294   .     A
C530   C532    1.457   .     S
C531   C535    1.399   .     A
C531   C537    1.387   .     A
C532   C536    1.398   .     A
C532   C538    1.389   .     A
C533   C541    1.414   .     A
C533   O571    1.382   .     S
C533   C535    1.407   .     A
C534   O573    1.382   .     S
C534   C536    1.404   .     A
C534   C542    1.412   .     A
C535   H550    1.084   .     S
C536   H549    1.084   .     S
C537   H548    1.080   .     S
C537   C539    1.391   .     A
C538   C540    1.394   .     A
C538   H547    1.077   .     S
C539   C541    1.419   .     A
C539   C543    1.416   .     A
C540   C542    1.422   .     A
C540   C544    1.418   .     A
C541   C1093   1.396   .     S
C542   C1094   1.395   1_554 S
C543   C1120   1.411   .     S
C544   C1119   1.411   1_554 S
N559   Zn569   2.020   .     S
N560   Zn570   2.020   .     S
O561   Zn569   1.995   .     S
O562   Zn570   1.995   .     S
O563   Zn570   2.001   .     S
O564   Zn569   2.001   .     S
O565   Zn569   1.961   .     S
O566   Zn570   1.961   .     S
O567   Zn570   1.915   .     S
O568   Zn569   1.915   .     S
O571   H572    0.992   .     S
O573   H446    0.992   1_655 S
C577   O627    1.288   .     A
C577   C588    1.418   .     S
C577   O625    1.286   .     A
C578   O628    1.288   .     A
C578   C587    1.419   .     S
C578   O626    1.286   .     A
C579   C581    1.390   .     A
C579   H615    1.079   .     S
C579   C608    1.417   .     A
C580   C607    1.416   .     A
C580   C582    1.387   .     A
C580   H616    1.079   .     S
C581   H609    1.083   .     S
C582   H610    1.084   .     S
C582   C30     1.395   1_556 S
C583   C588    1.396   .     A
C583   H617    1.084   .     S
C583   C777    1.370   .     S
C584   C587    1.396   .     A
C584   H618    1.084   .     S
C584   C970    1.370   1_545 S
C585   C587    1.398   .     A
C585   H619    1.084   .     S
C585   C967    1.370   1_545 S
C586   C588    1.398   .     A
C586   H620    1.084   .     S
C586   C776    1.370   .     S
C589   N624    1.357   .     A
C589   H621    1.082   .     S
C589   C655    1.415   .     S
C590   N623    1.357   .     A
C590   H622    1.082   .     S
C590   C720    1.415   1_455 S
C591   N623    1.382   .     A
C591   I639    2.117   .     S
C591   C717    1.415   1_455 S
C592   N624    1.383   .     A
C592   I640    2.118   .     S
C592   C654    1.415   .     S
C593   O631    1.297   .     A
C593   O629    1.296   .     A
C593   C595    1.456   .     S
C594   O632    1.298   .     A
C594   O630    1.294   .     A
C594   C596    1.457   .     S
C595   C599    1.399   .     A
C595   C601    1.387   .     A
C596   C600    1.398   .     A
C596   C602    1.389   .     A
C597   C605    1.414   .     A
C597   O635    1.382   .     S
C597   C599    1.407   .     A
C598   O637    1.382   .     S
C598   C600    1.404   .     A
C598   C606    1.412   .     A
C599   H614    1.084   .     S
C600   H613    1.084   .     S
C601   H612    1.080   .     S
C601   C603    1.391   .     A
C602   C604    1.394   .     A
C602   H611    1.077   .     S
C603   C605    1.419   .     A
C603   C607    1.416   .     A
C604   C606    1.422   .     A
C604   C608    1.418   .     A
C605   C5      1.396   1_556 S
C607   C32     1.411   1_556 S
N623   Zn633   2.020   .     S
N624   Zn634   2.020   .     S
O625   Zn633   1.995   .     S
O626   Zn634   1.995   .     S
O627   Zn634   2.001   .     S
O628   Zn633   2.001   .     S
O629   Zn633   1.961   .     S
O630   Zn634   1.961   .     S
O631   Zn634   1.915   .     S
O632   Zn633   1.915   .     S
O635   H636    0.992   .     S
O637   H702    0.992   .     S
H638   O765    0.992   1_455 S
C641   O691    1.288   .     A
C641   C652    1.418   .     S
C641   O689    1.286   .     A
C642   O692    1.288   .     A
C642   C651    1.419   .     S
C642   O690    1.286   .     A
C643   C645    1.390   .     A
C643   H679    1.079   .     S
C643   C672    1.417   .     A
C644   C671    1.416   .     A
C644   C646    1.387   .     A
C644   H680    1.079   .     S
C645   H673    1.083   .     S
C646   H674    1.084   .     S
C646   C94     1.395   1_556 S
C647   C652    1.396   .     A
C647   H681    1.084   .     S
C647   C841    1.370   .     S
C648   C651    1.396   .     A
C648   H682    1.084   .     S
C648   C1034   1.370   1_545 S
C649   C651    1.398   .     A
C649   H683    1.084   .     S
C649   C1031   1.370   1_545 S
C650   C652    1.398   .     A
C650   H684    1.084   .     S
C650   C840    1.370   .     S
C653   N688    1.357   .     A
C653   H685    1.082   .     S
C653   C719    1.415   .     S
C654   N687    1.357   .     A
C654   H686    1.082   .     S
C655   N687    1.382   .     A
C655   I703    2.117   .     S
C656   N688    1.383   .     A
C656   I704    2.118   .     S
C656   C718    1.415   .     S
C657   O695    1.297   .     A
C657   O693    1.296   .     A
C657   C659    1.456   .     S
C658   O696    1.298   .     A
C658   O694    1.294   .     A
C658   C660    1.457   .     S
C659   C663    1.399   .     A
C659   C665    1.387   .     A
C660   C664    1.398   .     A
C660   C666    1.389   .     A
C661   C669    1.414   .     A
C661   O699    1.382   .     S
C661   C663    1.407   .     A
C662   O701    1.382   .     S
C662   C664    1.404   .     A
C662   C670    1.412   .     A
C663   H678    1.084   .     S
C664   H677    1.084   .     S
C665   H676    1.080   .     S
C665   C667    1.391   .     A
C666   C668    1.394   .     A
C666   H675    1.077   .     S
C667   C669    1.419   .     A
C667   C671    1.416   .     A
C668   C670    1.422   .     A
C668   C672    1.418   .     A
C669   C69     1.396   1_556 S
C671   C96     1.411   1_556 S
N687   Zn697   2.020   .     S
N688   Zn698   2.020   .     S
O689   Zn697   1.995   .     S
O690   Zn698   1.995   .     S
O691   Zn698   2.001   .     S
O692   Zn697   2.001   .     S
O693   Zn697   1.961   .     S
O694   Zn698   1.961   .     S
O695   Zn698   1.915   .     S
O696   Zn697   1.915   .     S
O699   H700    0.992   .     S
O701   H766    0.992   .     S
C705   O755    1.288   .     A
C705   C716    1.418   .     S
C705   O753    1.286   .     A
C706   O756    1.288   .     A
C706   C715    1.419   .     S
C706   O754    1.286   .     A
C707   C709    1.390   .     A
C707   H743    1.079   .     S
C707   C736    1.417   .     A
C708   C735    1.416   .     A
C708   C710    1.387   .     A
C708   H744    1.079   .     S
C709   H737    1.083   .     S
C710   H738    1.084   .     S
C710   C158    1.395   1_556 S
C711   C716    1.396   .     A
C711   H745    1.084   .     S
C711   C905    1.370   .     S
C712   C715    1.396   .     A
C712   H746    1.084   .     S
C712   C1098   1.370   1_545 S
C713   C715    1.398   .     A
C713   H747    1.084   .     S
C713   C1095   1.370   1_545 S
C714   C716    1.398   .     A
C714   H748    1.084   .     S
C714   C904    1.370   .     S
C717   N752    1.357   .     A
C717   H749    1.082   .     S
C717   C591    1.415   1_655 S
C718   N751    1.357   .     A
C718   H750    1.082   .     S
C719   N751    1.382   .     A
C719   I767    2.117   .     S
C720   N752    1.383   .     A
C720   I768    2.118   .     S
C720   C590    1.415   1_655 S
C721   O759    1.297   .     A
C721   O757    1.296   .     A
C721   C723    1.456   .     S
C722   O760    1.298   .     A
C722   O758    1.294   .     A
C722   C724    1.457   .     S
C723   C727    1.399   .     A
C723   C729    1.387   .     A
C724   C728    1.398   .     A
C724   C730    1.389   .     A
C725   C733    1.414   .     A
C725   O763    1.382   .     S
C725   C727    1.407   .     A
C726   O765    1.382   .     S
C726   C728    1.404   .     A
C726   C734    1.412   .     A
C727   H742    1.084   .     S
C728   H741    1.084   .     S
C729   H740    1.080   .     S
C729   C731    1.391   .     A
C730   C732    1.394   .     A
C730   H739    1.077   .     S
C731   C733    1.419   .     A
C731   C735    1.416   .     A
C732   C734    1.422   .     A
C732   C736    1.418   .     A
C733   C133    1.396   1_556 S
C735   C160    1.411   1_556 S
N751   Zn761   2.020   .     S
N752   Zn762   2.020   .     S
O753   Zn761   1.995   .     S
O754   Zn762   1.995   .     S
O755   Zn762   2.001   .     S
O756   Zn761   2.001   .     S
O757   Zn761   1.961   .     S
O758   Zn762   1.961   .     S
O759   Zn762   1.915   .     S
O760   Zn761   1.915   .     S
O763   H764    0.992   .     S
O765   H638    0.992   1_655 S
C769   O819    1.288   .     A
C769   C780    1.418   .     S
C769   O817    1.286   .     A
C770   O820    1.288   .     A
C770   C779    1.419   .     S
C770   O818    1.286   .     A
C771   C773    1.390   .     A
C771   H807    1.079   .     S
C771   C800    1.417   .     A
C772   C799    1.416   .     A
C772   C774    1.387   .     A
C772   H808    1.079   .     S
C773   H801    1.083   .     S
C774   H802    1.084   .     S
C774   C222    1.395   1_556 S
C775   C780    1.396   .     A
C775   H809    1.084   .     S
C775   C969    1.370   .     S
C776   C779    1.396   .     A
C776   H810    1.084   .     S
C777   C779    1.398   .     A
C777   H811    1.084   .     S
C778   C780    1.398   .     A
C778   H812    1.084   .     S
C778   C968    1.370   .     S
C781   N816    1.357   .     A
C781   H813    1.082   .     S
C781   C847    1.415   .     S
C782   N815    1.357   .     A
C782   H814    1.082   .     S
C782   C912    1.415   1_455 S
C783   N815    1.382   .     A
C783   I831    2.117   .     S
C783   C909    1.415   1_455 S
C784   N816    1.383   .     A
C784   I832    2.118   .     S
C784   C846    1.415   .     S
C785   O823    1.297   .     A
C785   O821    1.296   .     A
C785   C787    1.456   .     S
C786   O824    1.298   .     A
C786   O822    1.294   .     A
C786   C788    1.457   .     S
C787   C791    1.399   .     A
C787   C793    1.387   .     A
C788   C792    1.398   .     A
C788   C794    1.389   .     A
C789   C797    1.414   .     A
C789   O827    1.382   .     S
C789   C791    1.407   .     A
C790   O829    1.382   .     S
C790   C792    1.404   .     A
C790   C798    1.412   .     A
C791   H806    1.084   .     S
C792   H805    1.084   .     S
C793   H804    1.080   .     S
C793   C795    1.391   .     A
C794   C796    1.394   .     A
C794   H803    1.077   .     S
C795   C797    1.419   .     A
C795   C799    1.416   .     A
C796   C798    1.422   .     A
C796   C800    1.418   .     A
C797   C197    1.396   1_556 S
C799   C224    1.411   1_556 S
N815   Zn825   2.020   .     S
N816   Zn826   2.020   .     S
O817   Zn825   1.995   .     S
O818   Zn826   1.995   .     S
O819   Zn826   2.001   .     S
O820   Zn825   2.001   .     S
O821   Zn825   1.961   .     S
O822   Zn826   1.961   .     S
O823   Zn826   1.915   .     S
O824   Zn825   1.915   .     S
O827   H828    0.992   .     S
O829   H894    0.992   .     S
H830   O957    0.992   1_455 S
C833   O883    1.288   .     A
C833   C844    1.418   .     S
C833   O881    1.286   .     A
C834   O884    1.288   .     A
C834   C843    1.419   .     S
C834   O882    1.286   .     A
C835   C837    1.390   .     A
C835   H871    1.079   .     S
C835   C864    1.417   .     A
C836   C863    1.416   .     A
C836   C838    1.387   .     A
C836   H872    1.079   .     S
C837   H865    1.083   .     S
C838   H866    1.084   .     S
C838   C286    1.395   1_556 S
C839   C844    1.396   .     A
C839   H873    1.084   .     S
C839   C1033   1.370   .     S
C840   C843    1.396   .     A
C840   H874    1.084   .     S
C841   C843    1.398   .     A
C841   H875    1.084   .     S
C842   C844    1.398   .     A
C842   H876    1.084   .     S
C842   C1032   1.370   .     S
C845   N880    1.357   .     A
C845   H877    1.082   .     S
C845   C911    1.415   .     S
C846   N879    1.357   .     A
C846   H878    1.082   .     S
C847   N879    1.382   .     A
C847   I895    2.117   .     S
C848   N880    1.383   .     A
C848   I896    2.118   .     S
C848   C910    1.415   .     S
C849   O887    1.297   .     A
C849   O885    1.296   .     A
C849   C851    1.456   .     S
C850   O888    1.298   .     A
C850   O886    1.294   .     A
C850   C852    1.457   .     S
C851   C855    1.399   .     A
C851   C857    1.387   .     A
C852   C856    1.398   .     A
C852   C858    1.389   .     A
C853   C861    1.414   .     A
C853   O891    1.382   .     S
C853   C855    1.407   .     A
C854   O893    1.382   .     S
C854   C856    1.404   .     A
C854   C862    1.412   .     A
C855   H870    1.084   .     S
C856   H869    1.084   .     S
C857   H868    1.080   .     S
C857   C859    1.391   .     A
C858   C860    1.394   .     A
C858   H867    1.077   .     S
C859   C861    1.419   .     A
C859   C863    1.416   .     A
C860   C862    1.422   .     A
C860   C864    1.418   .     A
C861   C261    1.396   1_556 S
C863   C288    1.411   1_556 S
N879   Zn889   2.020   .     S
N880   Zn890   2.020   .     S
O881   Zn889   1.995   .     S
O882   Zn890   1.995   .     S
O883   Zn890   2.001   .     S
O884   Zn889   2.001   .     S
O885   Zn889   1.961   .     S
O886   Zn890   1.961   .     S
O887   Zn890   1.915   .     S
O888   Zn889   1.915   .     S
O891   H892    0.992   .     S
O893   H958    0.992   .     S
C897   O947    1.288   .     A
C897   C908    1.418   .     S
C897   O945    1.286   .     A
C898   O948    1.288   .     A
C898   C907    1.419   .     S
C898   O946    1.286   .     A
C899   C901    1.390   .     A
C899   H935    1.079   .     S
C899   C928    1.417   .     A
C900   C927    1.416   .     A
C900   C902    1.387   .     A
C900   H936    1.079   .     S
C901   H929    1.083   .     S
C902   H930    1.084   .     S
C902   C350    1.395   1_556 S
C903   C908    1.396   .     A
C903   H937    1.084   .     S
C903   C1097   1.370   .     S
C904   C907    1.396   .     A
C904   H938    1.084   .     S
C905   C907    1.398   .     A
C905   H939    1.084   .     S
C906   C908    1.398   .     A
C906   H940    1.084   .     S
C906   C1096   1.370   .     S
C909   N944    1.357   .     A
C909   H941    1.082   .     S
C909   C783    1.415   1_655 S
C910   N943    1.357   .     A
C910   H942    1.082   .     S
C911   N943    1.382   .     A
C911   I959    2.117   .     S
C912   N944    1.383   .     A
C912   I960    2.118   .     S
C912   C782    1.415   1_655 S
C913   O951    1.297   .     A
C913   O949    1.296   .     A
C913   C915    1.456   .     S
C914   O952    1.298   .     A
C914   O950    1.294   .     A
C914   C916    1.457   .     S
C915   C919    1.399   .     A
C915   C921    1.387   .     A
C916   C920    1.398   .     A
C916   C922    1.389   .     A
C917   C925    1.414   .     A
C917   O955    1.382   .     S
C917   C919    1.407   .     A
C918   O957    1.382   .     S
C918   C920    1.404   .     A
C918   C926    1.412   .     A
C919   H934    1.084   .     S
C920   H933    1.084   .     S
C921   H932    1.080   .     S
C921   C923    1.391   .     A
C922   C924    1.394   .     A
C922   H931    1.077   .     S
C923   C925    1.419   .     A
C923   C927    1.416   .     A
C924   C926    1.422   .     A
C924   C928    1.418   .     A
C925   C325    1.396   1_556 S
C927   C352    1.411   1_556 S
N943   Zn953   2.020   .     S
N944   Zn954   2.020   .     S
O945   Zn953   1.995   .     S
O946   Zn954   1.995   .     S
O947   Zn954   2.001   .     S
O948   Zn953   2.001   .     S
O949   Zn953   1.961   .     S
O950   Zn954   1.961   .     S
O951   Zn954   1.915   .     S
O952   Zn953   1.915   .     S
O955   H956    0.992   .     S
O957   H830    0.992   1_655 S
C961   O1011   1.288   .     A
C961   C972    1.418   .     S
C961   O1009   1.286   .     A
C962   O1012   1.288   .     A
C962   C971    1.419   .     S
C962   O1010   1.286   .     A
C963   C965    1.390   .     A
C963   H999    1.079   .     S
C963   C992    1.417   .     A
C964   C991    1.416   .     A
C964   C966    1.387   .     A
C964   H1000   1.079   .     S
C965   H993    1.083   .     S
C966   H994    1.084   .     S
C966   C414    1.395   1_556 S
C967   C972    1.396   .     A
C967   H1001   1.084   .     S
C967   C585    1.370   1_565 S
C968   C971    1.396   .     A
C968   H1002   1.084   .     S
C969   C971    1.398   .     A
C969   H1003   1.084   .     S
C970   C972    1.398   .     A
C970   H1004   1.084   .     S
C970   C584    1.370   1_565 S
C973   N1008   1.357   .     A
C973   H1005   1.082   .     S
C973   C1039   1.415   .     S
C974   N1007   1.357   .     A
C974   H1006   1.082   .     S
C974   C1104   1.415   1_455 S
C975   N1007   1.382   .     A
C975   I1023   2.117   .     S
C975   C1101   1.415   1_455 S
C976   N1008   1.383   .     A
C976   I1024   2.118   .     S
C976   C1038   1.415   .     S
C977   O1015   1.297   .     A
C977   O1013   1.296   .     A
C977   C979    1.456   .     S
C978   O1016   1.298   .     A
C978   O1014   1.294   .     A
C978   C980    1.457   .     S
C979   C983    1.399   .     A
C979   C985    1.387   .     A
C980   C984    1.398   .     A
C980   C986    1.389   .     A
C981   C989    1.414   .     A
C981   O1019   1.382   .     S
C981   C983    1.407   .     A
C982   O1021   1.382   .     S
C982   C984    1.404   .     A
C982   C990    1.412   .     A
C983   H998    1.084   .     S
C984   H997    1.084   .     S
C985   H996    1.080   .     S
C985   C987    1.391   .     A
C986   C988    1.394   .     A
C986   H995    1.077   .     S
C987   C989    1.419   .     A
C987   C991    1.416   .     A
C988   C990    1.422   .     A
C988   C992    1.418   .     A
C989   C389    1.396   1_556 S
C991   C416    1.411   1_556 S
N1007  Zn1017  2.020   .     S
N1008  Zn1018  2.020   .     S
O1009  Zn1017  1.995   .     S
O1010  Zn1018  1.995   .     S
O1011  Zn1018  2.001   .     S
O1012  Zn1017  2.001   .     S
O1013  Zn1017  1.961   .     S
O1014  Zn1018  1.961   .     S
O1015  Zn1018  1.915   .     S
O1016  Zn1017  1.915   .     S
O1019  H1020   0.992   .     S
O1021  H1086   0.992   .     S
H1022  O1149   0.992   1_455 S
C1025  O1075   1.288   .     A
C1025  C1036   1.418   .     S
C1025  O1073   1.286   .     A
C1026  O1076   1.288   .     A
C1026  C1035   1.419   .     S
C1026  O1074   1.286   .     A
C1027  C1029   1.390   .     A
C1027  H1063   1.079   .     S
C1027  C1056   1.417   .     A
C1028  C1055   1.416   .     A
C1028  C1030   1.387   .     A
C1028  H1064   1.079   .     S
C1029  H1057   1.083   .     S
C1030  H1058   1.084   .     S
C1030  C478    1.395   1_556 S
C1031  C1036   1.396   .     A
C1031  H1065   1.084   .     S
C1031  C649    1.370   1_565 S
C1032  C1035   1.396   .     A
C1032  H1066   1.084   .     S
C1033  C1035   1.398   .     A
C1033  H1067   1.084   .     S
C1034  C1036   1.398   .     A
C1034  H1068   1.084   .     S
C1034  C648    1.370   1_565 S
C1037  N1072   1.357   .     A
C1037  H1069   1.082   .     S
C1037  C1103   1.415   .     S
C1038  N1071   1.357   .     A
C1038  H1070   1.082   .     S
C1039  N1071   1.382   .     A
C1039  I1087   2.117   .     S
C1040  N1072   1.383   .     A
C1040  I1088   2.118   .     S
C1040  C1102   1.415   .     S
C1041  O1079   1.297   .     A
C1041  O1077   1.296   .     A
C1041  C1043   1.456   .     S
C1042  O1080   1.298   .     A
C1042  O1078   1.294   .     A
C1042  C1044   1.457   .     S
C1043  C1047   1.399   .     A
C1043  C1049   1.387   .     A
C1044  C1048   1.398   .     A
C1044  C1050   1.389   .     A
C1045  C1053   1.414   .     A
C1045  O1083   1.382   .     S
C1045  C1047   1.407   .     A
C1046  O1085   1.382   .     S
C1046  C1048   1.404   .     A
C1046  C1054   1.412   .     A
C1047  H1062   1.084   .     S
C1048  H1061   1.084   .     S
C1049  H1060   1.080   .     S
C1049  C1051   1.391   .     A
C1050  C1052   1.394   .     A
C1050  H1059   1.077   .     S
C1051  C1053   1.419   .     A
C1051  C1055   1.416   .     A
C1052  C1054   1.422   .     A
C1052  C1056   1.418   .     A
C1053  C453    1.396   1_556 S
C1055  C480    1.411   1_556 S
N1071  Zn1081  2.020   .     S
N1072  Zn1082  2.020   .     S
O1073  Zn1081  1.995   .     S
O1074  Zn1082  1.995   .     S
O1075  Zn1082  2.001   .     S
O1076  Zn1081  2.001   .     S
O1077  Zn1081  1.961   .     S
O1078  Zn1082  1.961   .     S
O1079  Zn1082  1.915   .     S
O1080  Zn1081  1.915   .     S
O1083  H1084   0.992   .     S
O1085  H1150   0.992   .     S
C1089  O1139   1.288   .     A
C1089  C1100   1.418   .     S
C1089  O1137   1.286   .     A
C1090  O1140   1.288   .     A
C1090  C1099   1.419   .     S
C1090  O1138   1.286   .     A
C1091  C1093   1.390   .     A
C1091  H1127   1.079   .     S
C1091  C1120   1.417   .     A
C1092  C1119   1.416   .     A
C1092  C1094   1.387   .     A
C1092  H1128   1.079   .     S
C1093  H1121   1.083   .     S
C1094  H1122   1.084   .     S
C1094  C542    1.395   1_556 S
C1095  C1100   1.396   .     A
C1095  H1129   1.084   .     S
C1095  C713    1.370   1_565 S
C1096  C1099   1.396   .     A
C1096  H1130   1.084   .     S
C1097  C1099   1.398   .     A
C1097  H1131   1.084   .     S
C1098  C1100   1.398   .     A
C1098  H1132   1.084   .     S
C1098  C712    1.370   1_565 S
C1101  N1136   1.357   .     A
C1101  H1133   1.082   .     S
C1101  C975    1.415   1_655 S
C1102  N1135   1.357   .     A
C1102  H1134   1.082   .     S
C1103  N1135   1.382   .     A
C1103  I1151   2.117   .     S
C1104  N1136   1.383   .     A
C1104  I1152   2.118   .     S
C1104  C974    1.415   1_655 S
C1105  O1143   1.297   .     A
C1105  O1141   1.296   .     A
C1105  C1107   1.456   .     S
C1106  O1144   1.298   .     A
C1106  O1142   1.294   .     A
C1106  C1108   1.457   .     S
C1107  C1111   1.399   .     A
C1107  C1113   1.387   .     A
C1108  C1112   1.398   .     A
C1108  C1114   1.389   .     A
C1109  C1117   1.414   .     A
C1109  O1147   1.382   .     S
C1109  C1111   1.407   .     A
C1110  O1149   1.382   .     S
C1110  C1112   1.404   .     A
C1110  C1118   1.412   .     A
C1111  H1126   1.084   .     S
C1112  H1125   1.084   .     S
C1113  H1124   1.080   .     S
C1113  C1115   1.391   .     A
C1114  C1116   1.394   .     A
C1114  H1123   1.077   .     S
C1115  C1117   1.419   .     A
C1115  C1119   1.416   .     A
C1116  C1118   1.422   .     A
C1116  C1120   1.418   .     A
C1117  C517    1.396   1_556 S
C1119  C544    1.411   1_556 S
N1135  Zn1145  2.020   .     S
N1136  Zn1146  2.020   .     S
O1137  Zn1145  1.995   .     S
O1138  Zn1146  1.995   .     S
O1139  Zn1146  2.001   .     S
O1140  Zn1145  2.001   .     S
O1141  Zn1145  1.961   .     S
O1142  Zn1146  1.961   .     S
O1143  Zn1146  1.915   .     S
O1144  Zn1145  1.915   .     S
O1147  H1148   0.992   .     S
O1149  H1022   0.992   1_655 S
