data_str_m2_o1_o18_pcu_sym.57
_audit_creation_date              2020-01-03
_audit_creation_method            'Materials Studio'
_symmetry_space_group_name_H-M    'P1'
_symmetry_Int_Tables_number       1
_symmetry_cell_setting            triclinic
loop_
_symmetry_equiv_pos_as_xyz
  x,y,z
_cell_length_a                    29.3616
_cell_length_b                    33.1124
_cell_length_c                    31.9647
_cell_angle_alpha                 83.7562
_cell_angle_beta                  69.4607
_cell_angle_gamma                 90.1249
loop_
_atom_site_label
_atom_site_type_symbol
_atom_site_fract_x
_atom_site_fract_y
_atom_site_fract_z
_atom_site_U_iso_or_equiv
_atom_site_adp_type
_atom_site_occupancy
C1     C     0.33277   0.08746   0.25021   0.00000  Uiso   1.00
C2     C     0.04094   0.02080   0.24387   0.00000  Uiso   1.00
C3     C     0.33108   0.29017   0.25205   0.00000  Uiso   1.00
C4     C     0.33123   0.04253   0.24976   0.00000  Uiso   1.00
C5     C     0.17769   0.14507   0.28366   0.00000  Uiso   1.00
C6     C     0.15364   0.19143   0.21857   0.00000  Uiso   1.00
C7     C     0.13034   0.14147   0.28042   0.00000  Uiso   1.00
C8     C     0.20368   0.18956   0.21637   0.00000  Uiso   1.00
C9     C     0.30437   0.16611   0.33604   0.00000  Uiso   1.00
C10    C     0.02909   0.16532   0.16453   0.00000  Uiso   1.00
C11    C     0.28633   0.16236   0.38596   0.00000  Uiso   1.00
C12    C     0.33287   0.24561   0.25073   0.00000  Uiso   1.00
C13    C     0.04834   0.15727   0.11732   0.00000  Uiso   1.00
C14    C     0.30164   0.16467   0.45540   0.00000  Uiso   1.00
C15    C     0.03769   0.15530   0.04636   0.00000  Uiso   1.00
C16    C     0.31781   0.17019   0.40859   0.00000  Uiso   1.00
C17    C     0.02426   0.16978   0.08814   0.00000  Uiso   1.00
C18    C     0.23832   0.14899   0.41146   0.00000  Uiso   1.00
C19    C     0.09165   0.13677   0.10094   0.00000  Uiso   1.00
C20    C     0.22294   0.13850   0.45847   0.00000  Uiso   1.00
C21    C     0.10884   0.12697   0.05614   0.00000  Uiso   1.00
C22    C     0.25487   0.14762   0.48100   0.00000  Uiso   1.00
C23    C     0.19274   0.12185   0.05240   0.00000  Uiso   1.00
C24    C     0.07728   0.13083   0.03175   0.00000  Uiso   1.00
C25    C     0.17459   0.12402   0.48441   0.00000  Uiso   1.00
C26    C     0.15841   0.12141   0.03191   0.00000  Uiso   1.00
C27    C     0.26192   0.15504   0.05707   0.00000  Uiso   1.00
C28    C     0.05392   0.10127   0.47242   0.00000  Uiso   1.00
C29    C     0.23511   0.03296   0.27857   0.00000  Uiso   1.00
C30    C     0.21516   0.01415   0.32825   0.00000  Uiso   1.00
C31    C     0.16013   0.01706   0.34950   0.00000  Uiso   1.00
C32    C     0.06259   0.29493   0.28877   0.00000  Uiso   1.00
C33    C     0.02667   0.27935   0.33595   0.00000  Uiso   1.00
C34    C     0.14041   0.11424   0.46516   0.00000  Uiso   1.00
C35    C     0.05310   0.26701   0.36850   0.00000  Uiso   1.00
C36    C     0.24901   0.29306   0.24003   0.00000  Uiso   1.00
C37    C     0.09055   0.03843   0.21567   0.00000  Uiso   1.00
C38    C     0.18108   0.13066   0.32758   0.00000  Uiso   1.00
C39    C     0.14075   0.22147   0.18725   0.00000  Uiso   1.00
C40    C     0.09712   0.10716   0.30735   0.00000  Uiso   1.00
C41    C     0.24089   0.21382   0.17682   0.00000  Uiso   1.00
C42    C     0.23875   0.13905   0.02848   0.00000  Uiso   1.00
C43    C     0.09077   0.11631   0.48956   0.00000  Uiso   1.00
C44    C     0.28725   0.01957   0.25613   0.00000  Uiso   1.00
C45    C     0.03578   0.31227   0.25818   0.00000  Uiso   1.00
C46    C     0.29083   0.31194   0.24801   0.00000  Uiso   1.00
Cu47   Cu    0.04689   0.16667   0.25000   0.00000  Uiso   1.00
Cu48   Cu    0.28645   0.16666   0.25000   0.00000  Uiso   1.00
H49    H     0.11203   0.13059   0.12292   0.00000  Uiso   1.00
H50    H     0.31871   0.07914   0.48681   0.00000  Uiso   1.00
H51    H     0.14965   0.04909   0.35046   0.00000  Uiso   1.00
H52    H     0.14197   0.00187   0.32996   0.00000  Uiso   1.00
H53    H     0.14729   0.00169   0.38450   0.00000  Uiso   1.00
H54    H     0.22317   0.31475   0.33113   0.00000  Uiso   1.00
H55    H     0.23370   0.02892   0.34780   0.00000  Uiso   1.00
H56    H     0.22961   0.06526   0.27508   0.00000  Uiso   1.00
H57    H     0.21095   0.02314   0.26127   0.00000  Uiso   1.00
H58    H     0.07982   0.24361   0.35535   0.00000  Uiso   1.00
H59    H     0.07219   0.29388   0.37371   0.00000  Uiso   1.00
H60    H     0.21283   0.14827   0.39461   0.00000  Uiso   1.00
H61    H     0.02628   0.25437   0.40159   0.00000  Uiso   1.00
H62    H     0.00131   0.30361   0.34939   0.00000  Uiso   1.00
H63    H     0.00476   0.25260   0.33436   0.00000  Uiso   1.00
H64    H     0.08690   0.27066   0.27433   0.00000  Uiso   1.00
H65    H     0.08614   0.31910   0.29322   0.00000  Uiso   1.00
H66    H     0.18608   0.25916   0.26607   0.00000  Uiso   1.00
H67    H     0.16347   0.03493   0.19795   0.00000  Uiso   1.00
H68    H     0.21173   0.09321   0.36327   0.00000  Uiso   1.00
H69    H     0.12928   0.28013   0.17095   0.00000  Uiso   1.00
H70    H     0.04074   0.08629   0.36297   0.00000  Uiso   1.00
H71    H     0.32860   0.19067   0.09787   0.00000  Uiso   1.00
H72    H     0.26046   0.23785   0.11203   0.00000  Uiso   1.00
H73    H     0.02169   0.18101   0.39011   0.00000  Uiso   1.00
H74    H     0.32675   0.17287   0.47081   0.00000  Uiso   1.00
H75    H     0.02078   0.16627   0.02320   0.00000  Uiso   1.00
H76    H     0.18218   0.11475   0.08838   0.00000  Uiso   1.00
H77    H     0.15200   0.10501   0.43191   0.00000  Uiso   1.00
H78    H     0.26551   0.14570   0.11972   0.00000  Uiso   1.00
N79    N     0.11736   0.16668   0.24999   0.00000  Uiso   1.00
N80    N     0.21597   0.16666   0.25001   0.00000  Uiso   1.00
O81    O     0.03958   0.10655   0.25000   0.00000  Uiso   1.00
O82    O     0.26192   0.13020   0.09548   0.00000  Uiso   1.00
O83    O     0.06552   0.09553   0.43303   0.00000  Uiso   1.00
O84    O     0.00651   0.09093   0.00206   0.00000  Uiso   1.00
O85    O     0.24157   0.30414   0.20531   0.00000  Uiso   1.00
O86    O     0.21493   0.26716   0.27430   0.00000  Uiso   1.00
O87    O     0.09517   0.06680   0.18642   0.00000  Uiso   1.00
O88    O     0.13221   0.02060   0.21964   0.00000  Uiso   1.00
O89    O     0.15004   0.14045   0.36144   0.00000  Uiso   1.00
O90    O     0.21728   0.10504   0.33127   0.00000  Uiso   1.00
O91    O     0.13828   0.21156   0.15237   0.00000  Uiso   1.00
O92    O     0.29375   0.22678   0.25000   0.00000  Uiso   1.00
O93    O     0.13685   0.26215   0.19524   0.00000  Uiso   1.00
O94    O     0.10255   0.07372   0.29397   0.00000  Uiso   1.00
O95    O     0.06179   0.11199   0.34880   0.00000  Uiso   1.00
O96    O     0.27466   0.23234   0.18066   0.00000  Uiso   1.00
O97    O     0.23597   0.21735   0.13473   0.00000  Uiso   1.00
O98    O     0.29372   0.10654   0.25000   0.00000  Uiso   1.00
O99    O     0.03961   0.22679   0.24999   0.00000  Uiso   1.00
O100   O     0.01852   0.16668   0.31491   0.00000  Uiso   1.00
O101   O     0.31481   0.16666   0.18508   0.00000  Uiso   1.00
O102   O     0.27267   0.16667   0.31492   0.00000  Uiso   1.00
O103   O     0.06067   0.16667   0.18508   0.00000  Uiso   1.00
O104   O     0.27445   0.19105   0.05080   0.00000  Uiso   1.00
C105   C     0.66610   0.08746   0.25021   0.00000  Uiso   1.00
C106   C     0.37427   0.02080   0.24387   0.00000  Uiso   1.00
C107   C     0.66441   0.29017   0.25205   0.00000  Uiso   1.00
C108   C     0.66456   0.04253   0.24976   0.00000  Uiso   1.00
C109   C     0.51103   0.14507   0.28366   0.00000  Uiso   1.00
C110   C     0.48697   0.19143   0.21857   0.00000  Uiso   1.00
C111   C     0.46367   0.14147   0.28042   0.00000  Uiso   1.00
C112   C     0.53701   0.18956   0.21637   0.00000  Uiso   1.00
C113   C     0.63770   0.16611   0.33604   0.00000  Uiso   1.00
C114   C     0.36243   0.16532   0.16453   0.00000  Uiso   1.00
C115   C     0.61966   0.16236   0.38596   0.00000  Uiso   1.00
C116   C     0.66620   0.24561   0.25073   0.00000  Uiso   1.00
C117   C     0.38168   0.15727   0.11732   0.00000  Uiso   1.00
C118   C     0.63497   0.16467   0.45540   0.00000  Uiso   1.00
C119   C     0.37103   0.15530   0.04636   0.00000  Uiso   1.00
C120   C     0.65114   0.17019   0.40859   0.00000  Uiso   1.00
C121   C     0.35760   0.16978   0.08814   0.00000  Uiso   1.00
C122   C     0.57166   0.14899   0.41146   0.00000  Uiso   1.00
C123   C     0.42498   0.13677   0.10094   0.00000  Uiso   1.00
C124   C     0.55627   0.13850   0.45847   0.00000  Uiso   1.00
C125   C     0.44217   0.12697   0.05614   0.00000  Uiso   1.00
C126   C     0.58820   0.14762   0.48100   0.00000  Uiso   1.00
C127   C     0.52607   0.12185   0.05240   0.00000  Uiso   1.00
C128   C     0.41061   0.13083   0.03175   0.00000  Uiso   1.00
C129   C     0.50792   0.12402   0.48441   0.00000  Uiso   1.00
C130   C     0.49175   0.12141   0.03191   0.00000  Uiso   1.00
C131   C     0.59526   0.15504   0.05707   0.00000  Uiso   1.00
C132   C     0.38725   0.10127   0.47242   0.00000  Uiso   1.00
C133   C     0.56844   0.03296   0.27857   0.00000  Uiso   1.00
C134   C     0.54850   0.01415   0.32825   0.00000  Uiso   1.00
C135   C     0.49347   0.01706   0.34950   0.00000  Uiso   1.00
C136   C     0.39592   0.29493   0.28877   0.00000  Uiso   1.00
C137   C     0.36000   0.27935   0.33595   0.00000  Uiso   1.00
C138   C     0.47374   0.11424   0.46516   0.00000  Uiso   1.00
C139   C     0.38644   0.26701   0.36850   0.00000  Uiso   1.00
C140   C     0.58235   0.29306   0.24003   0.00000  Uiso   1.00
C141   C     0.42388   0.03843   0.21567   0.00000  Uiso   1.00
C142   C     0.51442   0.13066   0.32758   0.00000  Uiso   1.00
C143   C     0.47409   0.22147   0.18725   0.00000  Uiso   1.00
C144   C     0.43046   0.10716   0.30735   0.00000  Uiso   1.00
C145   C     0.57423   0.21382   0.17682   0.00000  Uiso   1.00
C146   C     0.57208   0.13905   0.02848   0.00000  Uiso   1.00
C147   C     0.42411   0.11631   0.48956   0.00000  Uiso   1.00
C148   C     0.62058   0.01957   0.25613   0.00000  Uiso   1.00
C149   C     0.36911   0.31227   0.25818   0.00000  Uiso   1.00
C150   C     0.62416   0.31194   0.24801   0.00000  Uiso   1.00
Cu151  Cu    0.38022   0.16667   0.25000   0.00000  Uiso   1.00
Cu152  Cu    0.61978   0.16666   0.25000   0.00000  Uiso   1.00
H153   H     0.44536   0.13059   0.12292   0.00000  Uiso   1.00
H154   H     0.65204   0.07914   0.48681   0.00000  Uiso   1.00
H155   H     0.48298   0.04909   0.35046   0.00000  Uiso   1.00
H156   H     0.47530   0.00187   0.32996   0.00000  Uiso   1.00
H157   H     0.48062   0.00169   0.38450   0.00000  Uiso   1.00
H158   H     0.55650   0.31475   0.33113   0.00000  Uiso   1.00
H159   H     0.56704   0.02892   0.34780   0.00000  Uiso   1.00
H160   H     0.56294   0.06526   0.27508   0.00000  Uiso   1.00
H161   H     0.54429   0.02314   0.26127   0.00000  Uiso   1.00
H162   H     0.41316   0.24361   0.35535   0.00000  Uiso   1.00
H163   H     0.40552   0.29388   0.37371   0.00000  Uiso   1.00
H164   H     0.54616   0.14827   0.39461   0.00000  Uiso   1.00
H165   H     0.35961   0.25437   0.40159   0.00000  Uiso   1.00
H166   H     0.33464   0.30361   0.34939   0.00000  Uiso   1.00
H167   H     0.33810   0.25260   0.33436   0.00000  Uiso   1.00
H168   H     0.42024   0.27066   0.27433   0.00000  Uiso   1.00
H169   H     0.41947   0.31910   0.29322   0.00000  Uiso   1.00
H170   H     0.51942   0.25916   0.26607   0.00000  Uiso   1.00
H171   H     0.49680   0.03493   0.19795   0.00000  Uiso   1.00
H172   H     0.54507   0.09321   0.36327   0.00000  Uiso   1.00
H173   H     0.46262   0.28013   0.17095   0.00000  Uiso   1.00
H174   H     0.37408   0.08629   0.36297   0.00000  Uiso   1.00
H175   H     0.66193   0.19067   0.09787   0.00000  Uiso   1.00
H176   H     0.59379   0.23785   0.11203   0.00000  Uiso   1.00
H177   H     0.35502   0.18101   0.39011   0.00000  Uiso   1.00
H178   H     0.66009   0.17287   0.47081   0.00000  Uiso   1.00
H179   H     0.35411   0.16627   0.02320   0.00000  Uiso   1.00
H180   H     0.51551   0.11475   0.08838   0.00000  Uiso   1.00
H181   H     0.48534   0.10501   0.43191   0.00000  Uiso   1.00
H182   H     0.59884   0.14570   0.11972   0.00000  Uiso   1.00
N183   N     0.45069   0.16668   0.24999   0.00000  Uiso   1.00
N184   N     0.54931   0.16666   0.25001   0.00000  Uiso   1.00
O185   O     0.37291   0.10655   0.25000   0.00000  Uiso   1.00
O186   O     0.59525   0.13020   0.09548   0.00000  Uiso   1.00
O187   O     0.39886   0.09553   0.43303   0.00000  Uiso   1.00
O188   O     0.33985   0.09093   0.00206   0.00000  Uiso   1.00
O189   O     0.57491   0.30414   0.20531   0.00000  Uiso   1.00
O190   O     0.54827   0.26716   0.27430   0.00000  Uiso   1.00
O191   O     0.42851   0.06680   0.18642   0.00000  Uiso   1.00
O192   O     0.46555   0.02060   0.21964   0.00000  Uiso   1.00
O193   O     0.48337   0.14045   0.36144   0.00000  Uiso   1.00
O194   O     0.55061   0.10504   0.33127   0.00000  Uiso   1.00
O195   O     0.47161   0.21156   0.15237   0.00000  Uiso   1.00
O196   O     0.62709   0.22678   0.25000   0.00000  Uiso   1.00
O197   O     0.47018   0.26215   0.19524   0.00000  Uiso   1.00
O198   O     0.43589   0.07372   0.29397   0.00000  Uiso   1.00
O199   O     0.39512   0.11199   0.34880   0.00000  Uiso   1.00
O200   O     0.60799   0.23234   0.18066   0.00000  Uiso   1.00
O201   O     0.56931   0.21735   0.13473   0.00000  Uiso   1.00
O202   O     0.62706   0.10654   0.25000   0.00000  Uiso   1.00
O203   O     0.37294   0.22679   0.24999   0.00000  Uiso   1.00
O204   O     0.35186   0.16668   0.31491   0.00000  Uiso   1.00
O205   O     0.64814   0.16666   0.18508   0.00000  Uiso   1.00
O206   O     0.60600   0.16667   0.31492   0.00000  Uiso   1.00
O207   O     0.39400   0.16667   0.18508   0.00000  Uiso   1.00
O208   O     0.60779   0.19105   0.05080   0.00000  Uiso   1.00
C209   C     0.99944   0.08746   0.25021   0.00000  Uiso   1.00
C210   C     0.70761   0.02080   0.24387   0.00000  Uiso   1.00
C211   C     0.99775   0.29017   0.25205   0.00000  Uiso   1.00
C212   C     0.99790   0.04253   0.24976   0.00000  Uiso   1.00
C213   C     0.84436   0.14507   0.28366   0.00000  Uiso   1.00
C214   C     0.82031   0.19143   0.21857   0.00000  Uiso   1.00
C215   C     0.79701   0.14147   0.28042   0.00000  Uiso   1.00
C216   C     0.87034   0.18956   0.21637   0.00000  Uiso   1.00
C217   C     0.97104   0.16611   0.33604   0.00000  Uiso   1.00
C218   C     0.69576   0.16532   0.16453   0.00000  Uiso   1.00
C219   C     0.95299   0.16236   0.38596   0.00000  Uiso   1.00
C220   C     0.99953   0.24561   0.25073   0.00000  Uiso   1.00
C221   C     0.71501   0.15727   0.11732   0.00000  Uiso   1.00
C222   C     0.96830   0.16467   0.45540   0.00000  Uiso   1.00
C223   C     0.70436   0.15530   0.04636   0.00000  Uiso   1.00
C224   C     0.98447   0.17019   0.40859   0.00000  Uiso   1.00
C225   C     0.69093   0.16978   0.08814   0.00000  Uiso   1.00
C226   C     0.90499   0.14899   0.41146   0.00000  Uiso   1.00
C227   C     0.75831   0.13677   0.10094   0.00000  Uiso   1.00
C228   C     0.88961   0.13850   0.45847   0.00000  Uiso   1.00
C229   C     0.77550   0.12697   0.05614   0.00000  Uiso   1.00
C230   C     0.92154   0.14762   0.48100   0.00000  Uiso   1.00
C231   C     0.85941   0.12185   0.05240   0.00000  Uiso   1.00
C232   C     0.74395   0.13083   0.03175   0.00000  Uiso   1.00
C233   C     0.84125   0.12402   0.48441   0.00000  Uiso   1.00
C234   C     0.82508   0.12141   0.03191   0.00000  Uiso   1.00
C235   C     0.92859   0.15504   0.05707   0.00000  Uiso   1.00
C236   C     0.72059   0.10127   0.47242   0.00000  Uiso   1.00
C237   C     0.90178   0.03296   0.27857   0.00000  Uiso   1.00
C238   C     0.88183   0.01415   0.32825   0.00000  Uiso   1.00
C239   C     0.82680   0.01706   0.34950   0.00000  Uiso   1.00
C240   C     0.72926   0.29493   0.28877   0.00000  Uiso   1.00
C241   C     0.69334   0.27935   0.33595   0.00000  Uiso   1.00
C242   C     0.80707   0.11424   0.46516   0.00000  Uiso   1.00
C243   C     0.71977   0.26701   0.36850   0.00000  Uiso   1.00
C244   C     0.91568   0.29306   0.24003   0.00000  Uiso   1.00
C245   C     0.75722   0.03843   0.21567   0.00000  Uiso   1.00
C246   C     0.84775   0.13066   0.32758   0.00000  Uiso   1.00
C247   C     0.80742   0.22147   0.18725   0.00000  Uiso   1.00
C248   C     0.76379   0.10716   0.30735   0.00000  Uiso   1.00
C249   C     0.90756   0.21382   0.17682   0.00000  Uiso   1.00
C250   C     0.90542   0.13905   0.02848   0.00000  Uiso   1.00
C251   C     0.75744   0.11631   0.48956   0.00000  Uiso   1.00
C252   C     0.95391   0.01957   0.25613   0.00000  Uiso   1.00
C253   C     0.70244   0.31227   0.25818   0.00000  Uiso   1.00
C254   C     0.95749   0.31194   0.24801   0.00000  Uiso   1.00
Cu255  Cu    0.71355   0.16667   0.25000   0.00000  Uiso   1.00
Cu256  Cu    0.95311   0.16666   0.25000   0.00000  Uiso   1.00
H257   H     0.77869   0.13059   0.12292   0.00000  Uiso   1.00
H258   H     0.98538   0.07914   0.48681   0.00000  Uiso   1.00
H259   H     0.81632   0.04909   0.35046   0.00000  Uiso   1.00
H260   H     0.80864   0.00187   0.32996   0.00000  Uiso   1.00
H261   H     0.81396   0.00169   0.38450   0.00000  Uiso   1.00
H262   H     0.88984   0.31475   0.33113   0.00000  Uiso   1.00
H263   H     0.90037   0.02892   0.34780   0.00000  Uiso   1.00
H264   H     0.89627   0.06526   0.27508   0.00000  Uiso   1.00
H265   H     0.87762   0.02314   0.26127   0.00000  Uiso   1.00
H266   H     0.74649   0.24361   0.35535   0.00000  Uiso   1.00
H267   H     0.73885   0.29388   0.37371   0.00000  Uiso   1.00
H268   H     0.87949   0.14827   0.39461   0.00000  Uiso   1.00
H269   H     0.69295   0.25437   0.40159   0.00000  Uiso   1.00
H270   H     0.66798   0.30361   0.34939   0.00000  Uiso   1.00
H271   H     0.67143   0.25260   0.33436   0.00000  Uiso   1.00
H272   H     0.75357   0.27066   0.27433   0.00000  Uiso   1.00
H273   H     0.75281   0.31910   0.29322   0.00000  Uiso   1.00
H274   H     0.85275   0.25916   0.26607   0.00000  Uiso   1.00
H275   H     0.83013   0.03493   0.19795   0.00000  Uiso   1.00
H276   H     0.87840   0.09321   0.36327   0.00000  Uiso   1.00
H277   H     0.79595   0.28013   0.17095   0.00000  Uiso   1.00
H278   H     0.70741   0.08629   0.36297   0.00000  Uiso   1.00
H279   H     0.99526   0.19067   0.09787   0.00000  Uiso   1.00
H280   H     0.92712   0.23785   0.11203   0.00000  Uiso   1.00
H281   H     0.68835   0.18101   0.39011   0.00000  Uiso   1.00
H282   H     0.99342   0.17287   0.47081   0.00000  Uiso   1.00
H283   H     0.68745   0.16627   0.02320   0.00000  Uiso   1.00
H284   H     0.84885   0.11475   0.08838   0.00000  Uiso   1.00
H285   H     0.81867   0.10501   0.43191   0.00000  Uiso   1.00
H286   H     0.93218   0.14570   0.11972   0.00000  Uiso   1.00
N287   N     0.78403   0.16668   0.24999   0.00000  Uiso   1.00
N288   N     0.88264   0.16666   0.25001   0.00000  Uiso   1.00
O289   O     0.70625   0.10655   0.25000   0.00000  Uiso   1.00
O290   O     0.92858   0.13020   0.09548   0.00000  Uiso   1.00
O291   O     0.73219   0.09553   0.43303   0.00000  Uiso   1.00
O292   O     0.67318   0.09093   0.00206   0.00000  Uiso   1.00
O293   O     0.90824   0.30414   0.20531   0.00000  Uiso   1.00
O294   O     0.88160   0.26716   0.27430   0.00000  Uiso   1.00
O295   O     0.76184   0.06680   0.18642   0.00000  Uiso   1.00
O296   O     0.79888   0.02060   0.21964   0.00000  Uiso   1.00
O297   O     0.81670   0.14045   0.36144   0.00000  Uiso   1.00
O298   O     0.88395   0.10504   0.33127   0.00000  Uiso   1.00
O299   O     0.80495   0.21156   0.15237   0.00000  Uiso   1.00
O300   O     0.96042   0.22678   0.25000   0.00000  Uiso   1.00
O301   O     0.80351   0.26215   0.19524   0.00000  Uiso   1.00
O302   O     0.76922   0.07372   0.29397   0.00000  Uiso   1.00
O303   O     0.72846   0.11199   0.34880   0.00000  Uiso   1.00
O304   O     0.94133   0.23234   0.18066   0.00000  Uiso   1.00
O305   O     0.90264   0.21735   0.13473   0.00000  Uiso   1.00
O306   O     0.96039   0.10654   0.25000   0.00000  Uiso   1.00
O307   O     0.70628   0.22679   0.24999   0.00000  Uiso   1.00
O308   O     0.68519   0.16668   0.31491   0.00000  Uiso   1.00
O309   O     0.98148   0.16666   0.18508   0.00000  Uiso   1.00
O310   O     0.93933   0.16667   0.31492   0.00000  Uiso   1.00
O311   O     0.72733   0.16667   0.18508   0.00000  Uiso   1.00
O312   O     0.94112   0.19105   0.05080   0.00000  Uiso   1.00
C313   C     0.33277   0.42080   0.25021   0.00000  Uiso   1.00
C314   C     0.04094   0.35413   0.24387   0.00000  Uiso   1.00
C315   C     0.33108   0.62350   0.25205   0.00000  Uiso   1.00
C316   C     0.33123   0.37586   0.24976   0.00000  Uiso   1.00
C317   C     0.17769   0.47841   0.28366   0.00000  Uiso   1.00
C318   C     0.15364   0.52476   0.21857   0.00000  Uiso   1.00
C319   C     0.13034   0.47480   0.28042   0.00000  Uiso   1.00
C320   C     0.20368   0.52289   0.21637   0.00000  Uiso   1.00
C321   C     0.30437   0.49944   0.33604   0.00000  Uiso   1.00
C322   C     0.02909   0.49866   0.16453   0.00000  Uiso   1.00
C323   C     0.28633   0.49569   0.38596   0.00000  Uiso   1.00
C324   C     0.33287   0.57895   0.25073   0.00000  Uiso   1.00
C325   C     0.04834   0.49060   0.11732   0.00000  Uiso   1.00
C326   C     0.30164   0.49801   0.45540   0.00000  Uiso   1.00
C327   C     0.03769   0.48863   0.04636   0.00000  Uiso   1.00
C328   C     0.31781   0.50352   0.40859   0.00000  Uiso   1.00
C329   C     0.02426   0.50312   0.08814   0.00000  Uiso   1.00
C330   C     0.23832   0.48233   0.41146   0.00000  Uiso   1.00
C331   C     0.09165   0.47010   0.10094   0.00000  Uiso   1.00
C332   C     0.22294   0.47183   0.45847   0.00000  Uiso   1.00
C333   C     0.10884   0.46030   0.05614   0.00000  Uiso   1.00
C334   C     0.25487   0.48096   0.48100   0.00000  Uiso   1.00
C335   C     0.19274   0.45518   0.05240   0.00000  Uiso   1.00
C336   C     0.07728   0.46416   0.03175   0.00000  Uiso   1.00
C337   C     0.17459   0.45736   0.48441   0.00000  Uiso   1.00
C338   C     0.15841   0.45474   0.03191   0.00000  Uiso   1.00
C339   C     0.26192   0.48837   0.05707   0.00000  Uiso   1.00
C340   C     0.05392   0.43460   0.47242   0.00000  Uiso   1.00
C341   C     0.23511   0.36629   0.27857   0.00000  Uiso   1.00
C342   C     0.21516   0.34748   0.32825   0.00000  Uiso   1.00
C343   C     0.16013   0.35040   0.34950   0.00000  Uiso   1.00
C344   C     0.06259   0.62827   0.28877   0.00000  Uiso   1.00
C345   C     0.02667   0.61268   0.33595   0.00000  Uiso   1.00
C346   C     0.14041   0.44757   0.46516   0.00000  Uiso   1.00
C347   C     0.05310   0.60034   0.36850   0.00000  Uiso   1.00
C348   C     0.24901   0.62639   0.24003   0.00000  Uiso   1.00
C349   C     0.09055   0.37176   0.21567   0.00000  Uiso   1.00
C350   C     0.18108   0.46400   0.32758   0.00000  Uiso   1.00
C351   C     0.14075   0.55480   0.18725   0.00000  Uiso   1.00
C352   C     0.09712   0.44049   0.30735   0.00000  Uiso   1.00
C353   C     0.24089   0.54716   0.17682   0.00000  Uiso   1.00
C354   C     0.23875   0.47238   0.02848   0.00000  Uiso   1.00
C355   C     0.09077   0.44965   0.48956   0.00000  Uiso   1.00
C356   C     0.28725   0.35290   0.25613   0.00000  Uiso   1.00
C357   C     0.03578   0.64560   0.25818   0.00000  Uiso   1.00
C358   C     0.29083   0.64527   0.24801   0.00000  Uiso   1.00
Cu359  Cu    0.04689   0.50001   0.25000   0.00000  Uiso   1.00
Cu360  Cu    0.28645   0.49999   0.25000   0.00000  Uiso   1.00
H361   H     0.11203   0.46392   0.12292   0.00000  Uiso   1.00
H362   H     0.31871   0.41248   0.48681   0.00000  Uiso   1.00
H363   H     0.14965   0.38242   0.35046   0.00000  Uiso   1.00
H364   H     0.14197   0.33521   0.32996   0.00000  Uiso   1.00
H365   H     0.14729   0.33502   0.38450   0.00000  Uiso   1.00
H366   H     0.22317   0.64809   0.33113   0.00000  Uiso   1.00
H367   H     0.23370   0.36225   0.34780   0.00000  Uiso   1.00
H368   H     0.22961   0.39860   0.27508   0.00000  Uiso   1.00
H369   H     0.21095   0.35647   0.26127   0.00000  Uiso   1.00
H370   H     0.07982   0.57695   0.35535   0.00000  Uiso   1.00
H371   H     0.07219   0.62721   0.37371   0.00000  Uiso   1.00
H372   H     0.21283   0.48160   0.39461   0.00000  Uiso   1.00
H373   H     0.02628   0.58770   0.40159   0.00000  Uiso   1.00
H374   H     0.00131   0.63694   0.34939   0.00000  Uiso   1.00
H375   H     0.00476   0.58593   0.33436   0.00000  Uiso   1.00
H376   H     0.08690   0.60399   0.27433   0.00000  Uiso   1.00
H377   H     0.08614   0.65243   0.29322   0.00000  Uiso   1.00
H378   H     0.18608   0.59249   0.26607   0.00000  Uiso   1.00
H379   H     0.16347   0.36827   0.19795   0.00000  Uiso   1.00
H380   H     0.21173   0.42655   0.36327   0.00000  Uiso   1.00
H381   H     0.12928   0.61346   0.17095   0.00000  Uiso   1.00
H382   H     0.04074   0.41963   0.36297   0.00000  Uiso   1.00
H383   H     0.32860   0.52400   0.09787   0.00000  Uiso   1.00
H384   H     0.26046   0.57118   0.11203   0.00000  Uiso   1.00
H385   H     0.02169   0.51434   0.39011   0.00000  Uiso   1.00
H386   H     0.32675   0.50621   0.47081   0.00000  Uiso   1.00
H387   H     0.02078   0.49960   0.02320   0.00000  Uiso   1.00
H388   H     0.18218   0.44808   0.08838   0.00000  Uiso   1.00
H389   H     0.15200   0.43834   0.43191   0.00000  Uiso   1.00
H390   H     0.26551   0.47904   0.11972   0.00000  Uiso   1.00
N391   N     0.11736   0.50001   0.24999   0.00000  Uiso   1.00
N392   N     0.21597   0.49999   0.25001   0.00000  Uiso   1.00
O393   O     0.03958   0.43989   0.25000   0.00000  Uiso   1.00
O394   O     0.26192   0.46353   0.09548   0.00000  Uiso   1.00
O395   O     0.06552   0.42886   0.43303   0.00000  Uiso   1.00
O396   O     0.00651   0.42427   0.00206   0.00000  Uiso   1.00
O397   O     0.24157   0.63747   0.20531   0.00000  Uiso   1.00
O398   O     0.21493   0.60049   0.27430   0.00000  Uiso   1.00
O399   O     0.09517   0.40014   0.18642   0.00000  Uiso   1.00
O400   O     0.13221   0.35393   0.21964   0.00000  Uiso   1.00
O401   O     0.15004   0.47379   0.36144   0.00000  Uiso   1.00
O402   O     0.21728   0.43838   0.33127   0.00000  Uiso   1.00
O403   O     0.13828   0.54490   0.15237   0.00000  Uiso   1.00
O404   O     0.29375   0.56011   0.25000   0.00000  Uiso   1.00
O405   O     0.13685   0.59548   0.19524   0.00000  Uiso   1.00
O406   O     0.10255   0.40706   0.29397   0.00000  Uiso   1.00
O407   O     0.06179   0.44532   0.34880   0.00000  Uiso   1.00
O408   O     0.27466   0.56567   0.18066   0.00000  Uiso   1.00
O409   O     0.23597   0.55069   0.13473   0.00000  Uiso   1.00
O410   O     0.29372   0.43988   0.25000   0.00000  Uiso   1.00
O411   O     0.03961   0.56012   0.24999   0.00000  Uiso   1.00
O412   O     0.01852   0.50001   0.31491   0.00000  Uiso   1.00
O413   O     0.31481   0.49999   0.18508   0.00000  Uiso   1.00
O414   O     0.27267   0.50000   0.31492   0.00000  Uiso   1.00
O415   O     0.06067   0.50000   0.18508   0.00000  Uiso   1.00
O416   O     0.27445   0.52438   0.05080   0.00000  Uiso   1.00
C417   C     0.66610   0.42080   0.25021   0.00000  Uiso   1.00
C418   C     0.37427   0.35413   0.24387   0.00000  Uiso   1.00
C419   C     0.66441   0.62350   0.25205   0.00000  Uiso   1.00
C420   C     0.66456   0.37586   0.24976   0.00000  Uiso   1.00
C421   C     0.51103   0.47841   0.28366   0.00000  Uiso   1.00
C422   C     0.48697   0.52476   0.21857   0.00000  Uiso   1.00
C423   C     0.46367   0.47480   0.28042   0.00000  Uiso   1.00
C424   C     0.53701   0.52289   0.21637   0.00000  Uiso   1.00
C425   C     0.63770   0.49944   0.33604   0.00000  Uiso   1.00
C426   C     0.36243   0.49866   0.16453   0.00000  Uiso   1.00
C427   C     0.61966   0.49569   0.38596   0.00000  Uiso   1.00
C428   C     0.66620   0.57895   0.25073   0.00000  Uiso   1.00
C429   C     0.38168   0.49060   0.11732   0.00000  Uiso   1.00
C430   C     0.63497   0.49801   0.45540   0.00000  Uiso   1.00
C431   C     0.37103   0.48863   0.04636   0.00000  Uiso   1.00
C432   C     0.65114   0.50352   0.40859   0.00000  Uiso   1.00
C433   C     0.35760   0.50312   0.08814   0.00000  Uiso   1.00
C434   C     0.57166   0.48233   0.41146   0.00000  Uiso   1.00
C435   C     0.42498   0.47010   0.10094   0.00000  Uiso   1.00
C436   C     0.55627   0.47183   0.45847   0.00000  Uiso   1.00
C437   C     0.44217   0.46030   0.05614   0.00000  Uiso   1.00
C438   C     0.58820   0.48096   0.48100   0.00000  Uiso   1.00
C439   C     0.52607   0.45518   0.05240   0.00000  Uiso   1.00
C440   C     0.41061   0.46416   0.03175   0.00000  Uiso   1.00
C441   C     0.50792   0.45736   0.48441   0.00000  Uiso   1.00
C442   C     0.49175   0.45474   0.03191   0.00000  Uiso   1.00
C443   C     0.59526   0.48837   0.05707   0.00000  Uiso   1.00
C444   C     0.38725   0.43460   0.47242   0.00000  Uiso   1.00
C445   C     0.56844   0.36629   0.27857   0.00000  Uiso   1.00
C446   C     0.54850   0.34748   0.32825   0.00000  Uiso   1.00
C447   C     0.49347   0.35040   0.34950   0.00000  Uiso   1.00
C448   C     0.39592   0.62827   0.28877   0.00000  Uiso   1.00
C449   C     0.36000   0.61268   0.33595   0.00000  Uiso   1.00
C450   C     0.47374   0.44757   0.46516   0.00000  Uiso   1.00
C451   C     0.38644   0.60034   0.36850   0.00000  Uiso   1.00
C452   C     0.58235   0.62639   0.24003   0.00000  Uiso   1.00
C453   C     0.42388   0.37176   0.21567   0.00000  Uiso   1.00
C454   C     0.51442   0.46400   0.32758   0.00000  Uiso   1.00
C455   C     0.47409   0.55480   0.18725   0.00000  Uiso   1.00
C456   C     0.43046   0.44049   0.30735   0.00000  Uiso   1.00
C457   C     0.57423   0.54716   0.17682   0.00000  Uiso   1.00
C458   C     0.57208   0.47238   0.02848   0.00000  Uiso   1.00
C459   C     0.42411   0.44965   0.48956   0.00000  Uiso   1.00
C460   C     0.62058   0.35290   0.25613   0.00000  Uiso   1.00
C461   C     0.36911   0.64560   0.25818   0.00000  Uiso   1.00
C462   C     0.62416   0.64527   0.24801   0.00000  Uiso   1.00
Cu463  Cu    0.38022   0.50001   0.25000   0.00000  Uiso   1.00
Cu464  Cu    0.61978   0.49999   0.25000   0.00000  Uiso   1.00
H465   H     0.44536   0.46392   0.12292   0.00000  Uiso   1.00
H466   H     0.65204   0.41248   0.48681   0.00000  Uiso   1.00
H467   H     0.48298   0.38242   0.35046   0.00000  Uiso   1.00
H468   H     0.47530   0.33521   0.32996   0.00000  Uiso   1.00
H469   H     0.48062   0.33502   0.38450   0.00000  Uiso   1.00
H470   H     0.55650   0.64809   0.33113   0.00000  Uiso   1.00
H471   H     0.56704   0.36225   0.34780   0.00000  Uiso   1.00
H472   H     0.56294   0.39860   0.27508   0.00000  Uiso   1.00
H473   H     0.54429   0.35647   0.26127   0.00000  Uiso   1.00
H474   H     0.41316   0.57695   0.35535   0.00000  Uiso   1.00
H475   H     0.40552   0.62721   0.37371   0.00000  Uiso   1.00
H476   H     0.54616   0.48160   0.39461   0.00000  Uiso   1.00
H477   H     0.35961   0.58770   0.40159   0.00000  Uiso   1.00
H478   H     0.33464   0.63694   0.34939   0.00000  Uiso   1.00
H479   H     0.33810   0.58593   0.33436   0.00000  Uiso   1.00
H480   H     0.42024   0.60399   0.27433   0.00000  Uiso   1.00
H481   H     0.41947   0.65243   0.29322   0.00000  Uiso   1.00
H482   H     0.51942   0.59249   0.26607   0.00000  Uiso   1.00
H483   H     0.49680   0.36827   0.19795   0.00000  Uiso   1.00
H484   H     0.54507   0.42655   0.36327   0.00000  Uiso   1.00
H485   H     0.46262   0.61346   0.17095   0.00000  Uiso   1.00
H486   H     0.37408   0.41963   0.36297   0.00000  Uiso   1.00
H487   H     0.66193   0.52400   0.09787   0.00000  Uiso   1.00
H488   H     0.59379   0.57118   0.11203   0.00000  Uiso   1.00
H489   H     0.35502   0.51434   0.39011   0.00000  Uiso   1.00
H490   H     0.66009   0.50621   0.47081   0.00000  Uiso   1.00
H491   H     0.35411   0.49960   0.02320   0.00000  Uiso   1.00
H492   H     0.51551   0.44808   0.08838   0.00000  Uiso   1.00
H493   H     0.48534   0.43834   0.43191   0.00000  Uiso   1.00
H494   H     0.59884   0.47904   0.11972   0.00000  Uiso   1.00
N495   N     0.45069   0.50001   0.24999   0.00000  Uiso   1.00
N496   N     0.54931   0.49999   0.25001   0.00000  Uiso   1.00
O497   O     0.37291   0.43989   0.25000   0.00000  Uiso   1.00
O498   O     0.59525   0.46353   0.09548   0.00000  Uiso   1.00
O499   O     0.39886   0.42886   0.43303   0.00000  Uiso   1.00
O500   O     0.33985   0.42427   0.00206   0.00000  Uiso   1.00
O501   O     0.57491   0.63747   0.20531   0.00000  Uiso   1.00
O502   O     0.54827   0.60049   0.27430   0.00000  Uiso   1.00
O503   O     0.42851   0.40014   0.18642   0.00000  Uiso   1.00
O504   O     0.46555   0.35393   0.21964   0.00000  Uiso   1.00
O505   O     0.48337   0.47379   0.36144   0.00000  Uiso   1.00
O506   O     0.55061   0.43838   0.33127   0.00000  Uiso   1.00
O507   O     0.47161   0.54490   0.15237   0.00000  Uiso   1.00
O508   O     0.62709   0.56011   0.25000   0.00000  Uiso   1.00
O509   O     0.47018   0.59548   0.19524   0.00000  Uiso   1.00
O510   O     0.43589   0.40706   0.29397   0.00000  Uiso   1.00
O511   O     0.39512   0.44532   0.34880   0.00000  Uiso   1.00
O512   O     0.60799   0.56567   0.18066   0.00000  Uiso   1.00
O513   O     0.56931   0.55069   0.13473   0.00000  Uiso   1.00
O514   O     0.62706   0.43988   0.25000   0.00000  Uiso   1.00
O515   O     0.37294   0.56012   0.24999   0.00000  Uiso   1.00
O516   O     0.35186   0.50001   0.31491   0.00000  Uiso   1.00
O517   O     0.64814   0.49999   0.18508   0.00000  Uiso   1.00
O518   O     0.60600   0.50000   0.31492   0.00000  Uiso   1.00
O519   O     0.39400   0.50000   0.18508   0.00000  Uiso   1.00
O520   O     0.60779   0.52438   0.05080   0.00000  Uiso   1.00
C521   C     0.99944   0.42080   0.25021   0.00000  Uiso   1.00
C522   C     0.70761   0.35413   0.24387   0.00000  Uiso   1.00
C523   C     0.99775   0.62350   0.25205   0.00000  Uiso   1.00
C524   C     0.99790   0.37586   0.24976   0.00000  Uiso   1.00
C525   C     0.84436   0.47841   0.28366   0.00000  Uiso   1.00
C526   C     0.82031   0.52476   0.21857   0.00000  Uiso   1.00
C527   C     0.79701   0.47480   0.28042   0.00000  Uiso   1.00
C528   C     0.87034   0.52289   0.21637   0.00000  Uiso   1.00
C529   C     0.97104   0.49944   0.33604   0.00000  Uiso   1.00
C530   C     0.69576   0.49866   0.16453   0.00000  Uiso   1.00
C531   C     0.95299   0.49569   0.38596   0.00000  Uiso   1.00
C532   C     0.99953   0.57895   0.25073   0.00000  Uiso   1.00
C533   C     0.71501   0.49060   0.11732   0.00000  Uiso   1.00
C534   C     0.96830   0.49801   0.45540   0.00000  Uiso   1.00
C535   C     0.70436   0.48863   0.04636   0.00000  Uiso   1.00
C536   C     0.98447   0.50352   0.40859   0.00000  Uiso   1.00
C537   C     0.69093   0.50312   0.08814   0.00000  Uiso   1.00
C538   C     0.90499   0.48233   0.41146   0.00000  Uiso   1.00
C539   C     0.75831   0.47010   0.10094   0.00000  Uiso   1.00
C540   C     0.88961   0.47183   0.45847   0.00000  Uiso   1.00
C541   C     0.77550   0.46030   0.05614   0.00000  Uiso   1.00
C542   C     0.92154   0.48096   0.48100   0.00000  Uiso   1.00
C543   C     0.85941   0.45518   0.05240   0.00000  Uiso   1.00
C544   C     0.74395   0.46416   0.03175   0.00000  Uiso   1.00
C545   C     0.84125   0.45736   0.48441   0.00000  Uiso   1.00
C546   C     0.82508   0.45474   0.03191   0.00000  Uiso   1.00
C547   C     0.92859   0.48837   0.05707   0.00000  Uiso   1.00
C548   C     0.72059   0.43460   0.47242   0.00000  Uiso   1.00
C549   C     0.90178   0.36629   0.27857   0.00000  Uiso   1.00
C550   C     0.88183   0.34748   0.32825   0.00000  Uiso   1.00
C551   C     0.82680   0.35040   0.34950   0.00000  Uiso   1.00
C552   C     0.72926   0.62827   0.28877   0.00000  Uiso   1.00
C553   C     0.69334   0.61268   0.33595   0.00000  Uiso   1.00
C554   C     0.80707   0.44757   0.46516   0.00000  Uiso   1.00
C555   C     0.71977   0.60034   0.36850   0.00000  Uiso   1.00
C556   C     0.91568   0.62639   0.24003   0.00000  Uiso   1.00
C557   C     0.75722   0.37176   0.21567   0.00000  Uiso   1.00
C558   C     0.84775   0.46400   0.32758   0.00000  Uiso   1.00
C559   C     0.80742   0.55480   0.18725   0.00000  Uiso   1.00
C560   C     0.76379   0.44049   0.30735   0.00000  Uiso   1.00
C561   C     0.90756   0.54716   0.17682   0.00000  Uiso   1.00
C562   C     0.90542   0.47238   0.02848   0.00000  Uiso   1.00
C563   C     0.75744   0.44965   0.48956   0.00000  Uiso   1.00
C564   C     0.95391   0.35290   0.25613   0.00000  Uiso   1.00
C565   C     0.70244   0.64560   0.25818   0.00000  Uiso   1.00
C566   C     0.95749   0.64527   0.24801   0.00000  Uiso   1.00
Cu567  Cu    0.71355   0.50001   0.25000   0.00000  Uiso   1.00
Cu568  Cu    0.95311   0.49999   0.25000   0.00000  Uiso   1.00
H569   H     0.77869   0.46392   0.12292   0.00000  Uiso   1.00
H570   H     0.98538   0.41248   0.48681   0.00000  Uiso   1.00
H571   H     0.81632   0.38242   0.35046   0.00000  Uiso   1.00
H572   H     0.80864   0.33521   0.32996   0.00000  Uiso   1.00
H573   H     0.81396   0.33502   0.38450   0.00000  Uiso   1.00
H574   H     0.88984   0.64809   0.33113   0.00000  Uiso   1.00
H575   H     0.90037   0.36225   0.34780   0.00000  Uiso   1.00
H576   H     0.89627   0.39860   0.27508   0.00000  Uiso   1.00
H577   H     0.87762   0.35647   0.26127   0.00000  Uiso   1.00
H578   H     0.74649   0.57695   0.35535   0.00000  Uiso   1.00
H579   H     0.73885   0.62721   0.37371   0.00000  Uiso   1.00
H580   H     0.87949   0.48160   0.39461   0.00000  Uiso   1.00
H581   H     0.69295   0.58770   0.40159   0.00000  Uiso   1.00
H582   H     0.66798   0.63694   0.34939   0.00000  Uiso   1.00
H583   H     0.67143   0.58593   0.33436   0.00000  Uiso   1.00
H584   H     0.75357   0.60399   0.27433   0.00000  Uiso   1.00
H585   H     0.75281   0.65243   0.29322   0.00000  Uiso   1.00
H586   H     0.85275   0.59249   0.26607   0.00000  Uiso   1.00
H587   H     0.83013   0.36827   0.19795   0.00000  Uiso   1.00
H588   H     0.87840   0.42655   0.36327   0.00000  Uiso   1.00
H589   H     0.79595   0.61346   0.17095   0.00000  Uiso   1.00
H590   H     0.70741   0.41963   0.36297   0.00000  Uiso   1.00
H591   H     0.99526   0.52400   0.09787   0.00000  Uiso   1.00
H592   H     0.92712   0.57118   0.11203   0.00000  Uiso   1.00
H593   H     0.68835   0.51434   0.39011   0.00000  Uiso   1.00
H594   H     0.99342   0.50621   0.47081   0.00000  Uiso   1.00
H595   H     0.68745   0.49960   0.02320   0.00000  Uiso   1.00
H596   H     0.84885   0.44808   0.08838   0.00000  Uiso   1.00
H597   H     0.81867   0.43834   0.43191   0.00000  Uiso   1.00
H598   H     0.93218   0.47904   0.11972   0.00000  Uiso   1.00
N599   N     0.78403   0.50001   0.24999   0.00000  Uiso   1.00
N600   N     0.88264   0.49999   0.25001   0.00000  Uiso   1.00
O601   O     0.70625   0.43989   0.25000   0.00000  Uiso   1.00
O602   O     0.92858   0.46353   0.09548   0.00000  Uiso   1.00
O603   O     0.73219   0.42886   0.43303   0.00000  Uiso   1.00
O604   O     0.67318   0.42427   0.00206   0.00000  Uiso   1.00
O605   O     0.90824   0.63747   0.20531   0.00000  Uiso   1.00
O606   O     0.88160   0.60049   0.27430   0.00000  Uiso   1.00
O607   O     0.76184   0.40014   0.18642   0.00000  Uiso   1.00
O608   O     0.79888   0.35393   0.21964   0.00000  Uiso   1.00
O609   O     0.81670   0.47379   0.36144   0.00000  Uiso   1.00
O610   O     0.88395   0.43838   0.33127   0.00000  Uiso   1.00
O611   O     0.80495   0.54490   0.15237   0.00000  Uiso   1.00
O612   O     0.96042   0.56011   0.25000   0.00000  Uiso   1.00
O613   O     0.80351   0.59548   0.19524   0.00000  Uiso   1.00
O614   O     0.76922   0.40706   0.29397   0.00000  Uiso   1.00
O615   O     0.72846   0.44532   0.34880   0.00000  Uiso   1.00
O616   O     0.94133   0.56567   0.18066   0.00000  Uiso   1.00
O617   O     0.90264   0.55069   0.13473   0.00000  Uiso   1.00
O618   O     0.96039   0.43988   0.25000   0.00000  Uiso   1.00
O619   O     0.70628   0.56012   0.24999   0.00000  Uiso   1.00
O620   O     0.68519   0.50001   0.31491   0.00000  Uiso   1.00
O621   O     0.98148   0.49999   0.18508   0.00000  Uiso   1.00
O622   O     0.93933   0.50000   0.31492   0.00000  Uiso   1.00
O623   O     0.72733   0.50000   0.18508   0.00000  Uiso   1.00
O624   O     0.94112   0.52438   0.05080   0.00000  Uiso   1.00
C625   C     0.33277   0.75413   0.25021   0.00000  Uiso   1.00
C626   C     0.04094   0.68746   0.24387   0.00000  Uiso   1.00
C627   C     0.33108   0.95684   0.25205   0.00000  Uiso   1.00
C628   C     0.33123   0.70920   0.24976   0.00000  Uiso   1.00
C629   C     0.17769   0.81174   0.28366   0.00000  Uiso   1.00
C630   C     0.15364   0.85809   0.21857   0.00000  Uiso   1.00
C631   C     0.13034   0.80813   0.28042   0.00000  Uiso   1.00
C632   C     0.20368   0.85623   0.21637   0.00000  Uiso   1.00
C633   C     0.30437   0.83278   0.33604   0.00000  Uiso   1.00
C634   C     0.02909   0.83199   0.16453   0.00000  Uiso   1.00
C635   C     0.28633   0.82902   0.38596   0.00000  Uiso   1.00
C636   C     0.33287   0.91228   0.25073   0.00000  Uiso   1.00
C637   C     0.04834   0.82393   0.11732   0.00000  Uiso   1.00
C638   C     0.30164   0.83134   0.45540   0.00000  Uiso   1.00
C639   C     0.03769   0.82197   0.04636   0.00000  Uiso   1.00
C640   C     0.31781   0.83685   0.40859   0.00000  Uiso   1.00
C641   C     0.02426   0.83645   0.08814   0.00000  Uiso   1.00
C642   C     0.23832   0.81566   0.41146   0.00000  Uiso   1.00
C643   C     0.09165   0.80343   0.10094   0.00000  Uiso   1.00
C644   C     0.22294   0.80517   0.45847   0.00000  Uiso   1.00
C645   C     0.10884   0.79363   0.05614   0.00000  Uiso   1.00
C646   C     0.25487   0.81429   0.48100   0.00000  Uiso   1.00
C647   C     0.19274   0.78852   0.05240   0.00000  Uiso   1.00
C648   C     0.07728   0.79750   0.03175   0.00000  Uiso   1.00
C649   C     0.17459   0.79069   0.48441   0.00000  Uiso   1.00
C650   C     0.15841   0.78808   0.03191   0.00000  Uiso   1.00
C651   C     0.26192   0.82171   0.05707   0.00000  Uiso   1.00
C652   C     0.05392   0.76793   0.47242   0.00000  Uiso   1.00
C653   C     0.23511   0.69962   0.27857   0.00000  Uiso   1.00
C654   C     0.21516   0.68081   0.32825   0.00000  Uiso   1.00
C655   C     0.16013   0.68373   0.34950   0.00000  Uiso   1.00
C656   C     0.06259   0.96160   0.28877   0.00000  Uiso   1.00
C657   C     0.02667   0.94602   0.33595   0.00000  Uiso   1.00
C658   C     0.14041   0.78091   0.46516   0.00000  Uiso   1.00
C659   C     0.05310   0.93368   0.36850   0.00000  Uiso   1.00
C660   C     0.24901   0.95972   0.24003   0.00000  Uiso   1.00
C661   C     0.09055   0.70509   0.21567   0.00000  Uiso   1.00
C662   C     0.18108   0.79733   0.32758   0.00000  Uiso   1.00
C663   C     0.14075   0.88814   0.18725   0.00000  Uiso   1.00
C664   C     0.09712   0.77383   0.30735   0.00000  Uiso   1.00
C665   C     0.24089   0.88049   0.17682   0.00000  Uiso   1.00
C666   C     0.23875   0.80571   0.02848   0.00000  Uiso   1.00
C667   C     0.09077   0.78298   0.48956   0.00000  Uiso   1.00
C668   C     0.28725   0.68624   0.25613   0.00000  Uiso   1.00
C669   C     0.03578   0.97894   0.25818   0.00000  Uiso   1.00
C670   C     0.29083   0.97860   0.24801   0.00000  Uiso   1.00
Cu671  Cu    0.04689   0.83334   0.25000   0.00000  Uiso   1.00
Cu672  Cu    0.28645   0.83333   0.25000   0.00000  Uiso   1.00
H673   H     0.11203   0.79726   0.12292   0.00000  Uiso   1.00
H674   H     0.31871   0.74581   0.48681   0.00000  Uiso   1.00
H675   H     0.14965   0.71576   0.35046   0.00000  Uiso   1.00
H676   H     0.14197   0.66854   0.32996   0.00000  Uiso   1.00
H677   H     0.14729   0.66835   0.38450   0.00000  Uiso   1.00
H678   H     0.22317   0.98142   0.33113   0.00000  Uiso   1.00
H679   H     0.23370   0.69559   0.34780   0.00000  Uiso   1.00
H680   H     0.22961   0.73193   0.27508   0.00000  Uiso   1.00
H681   H     0.21095   0.68981   0.26127   0.00000  Uiso   1.00
H682   H     0.07982   0.91028   0.35535   0.00000  Uiso   1.00
H683   H     0.07219   0.96054   0.37371   0.00000  Uiso   1.00
H684   H     0.21283   0.81493   0.39461   0.00000  Uiso   1.00
H685   H     0.02628   0.92103   0.40159   0.00000  Uiso   1.00
H686   H     0.00131   0.97027   0.34939   0.00000  Uiso   1.00
H687   H     0.00476   0.91927   0.33436   0.00000  Uiso   1.00
H688   H     0.08690   0.93733   0.27433   0.00000  Uiso   1.00
H689   H     0.08614   0.98576   0.29322   0.00000  Uiso   1.00
H690   H     0.18608   0.92583   0.26607   0.00000  Uiso   1.00
H691   H     0.16347   0.70160   0.19795   0.00000  Uiso   1.00
H692   H     0.21173   0.75988   0.36327   0.00000  Uiso   1.00
H693   H     0.12928   0.94680   0.17095   0.00000  Uiso   1.00
H694   H     0.04074   0.75296   0.36297   0.00000  Uiso   1.00
H695   H     0.32860   0.85733   0.09787   0.00000  Uiso   1.00
H696   H     0.26046   0.90451   0.11203   0.00000  Uiso   1.00
H697   H     0.02169   0.84768   0.39011   0.00000  Uiso   1.00
H698   H     0.32675   0.83954   0.47081   0.00000  Uiso   1.00
H699   H     0.02078   0.83293   0.02320   0.00000  Uiso   1.00
H700   H     0.18218   0.78142   0.08838   0.00000  Uiso   1.00
H701   H     0.15200   0.77168   0.43191   0.00000  Uiso   1.00
H702   H     0.26551   0.81237   0.11972   0.00000  Uiso   1.00
N703   N     0.11736   0.83334   0.24999   0.00000  Uiso   1.00
N704   N     0.21597   0.83332   0.25001   0.00000  Uiso   1.00
O705   O     0.03958   0.77322   0.25000   0.00000  Uiso   1.00
O706   O     0.26192   0.79687   0.09548   0.00000  Uiso   1.00
O707   O     0.06552   0.76220   0.43303   0.00000  Uiso   1.00
O708   O     0.00651   0.75760   0.00206   0.00000  Uiso   1.00
O709   O     0.24157   0.97080   0.20531   0.00000  Uiso   1.00
O710   O     0.21493   0.93383   0.27430   0.00000  Uiso   1.00
O711   O     0.09517   0.73347   0.18642   0.00000  Uiso   1.00
O712   O     0.13221   0.68726   0.21964   0.00000  Uiso   1.00
O713   O     0.15004   0.80712   0.36144   0.00000  Uiso   1.00
O714   O     0.21728   0.77171   0.33127   0.00000  Uiso   1.00
O715   O     0.13828   0.87823   0.15237   0.00000  Uiso   1.00
O716   O     0.29375   0.89345   0.25000   0.00000  Uiso   1.00
O717   O     0.13685   0.92882   0.19524   0.00000  Uiso   1.00
O718   O     0.10255   0.74039   0.29397   0.00000  Uiso   1.00
O719   O     0.06179   0.77866   0.34880   0.00000  Uiso   1.00
O720   O     0.27466   0.89900   0.18066   0.00000  Uiso   1.00
O721   O     0.23597   0.88402   0.13473   0.00000  Uiso   1.00
O722   O     0.29372   0.77321   0.25000   0.00000  Uiso   1.00
O723   O     0.03961   0.89346   0.24999   0.00000  Uiso   1.00
O724   O     0.01852   0.83334   0.31491   0.00000  Uiso   1.00
O725   O     0.31481   0.83332   0.18508   0.00000  Uiso   1.00
O726   O     0.27267   0.83333   0.31492   0.00000  Uiso   1.00
O727   O     0.06067   0.83333   0.18508   0.00000  Uiso   1.00
O728   O     0.27445   0.85771   0.05080   0.00000  Uiso   1.00
C729   C     0.66610   0.75413   0.25021   0.00000  Uiso   1.00
C730   C     0.37427   0.68746   0.24387   0.00000  Uiso   1.00
C731   C     0.66441   0.95684   0.25205   0.00000  Uiso   1.00
C732   C     0.66456   0.70920   0.24976   0.00000  Uiso   1.00
C733   C     0.51103   0.81174   0.28366   0.00000  Uiso   1.00
C734   C     0.48697   0.85809   0.21857   0.00000  Uiso   1.00
C735   C     0.46367   0.80813   0.28042   0.00000  Uiso   1.00
C736   C     0.53701   0.85623   0.21637   0.00000  Uiso   1.00
C737   C     0.63770   0.83278   0.33604   0.00000  Uiso   1.00
C738   C     0.36243   0.83199   0.16453   0.00000  Uiso   1.00
C739   C     0.61966   0.82902   0.38596   0.00000  Uiso   1.00
C740   C     0.66620   0.91228   0.25073   0.00000  Uiso   1.00
C741   C     0.38168   0.82393   0.11732   0.00000  Uiso   1.00
C742   C     0.63497   0.83134   0.45540   0.00000  Uiso   1.00
C743   C     0.37103   0.82197   0.04636   0.00000  Uiso   1.00
C744   C     0.65114   0.83685   0.40859   0.00000  Uiso   1.00
C745   C     0.35760   0.83645   0.08814   0.00000  Uiso   1.00
C746   C     0.57166   0.81566   0.41146   0.00000  Uiso   1.00
C747   C     0.42498   0.80343   0.10094   0.00000  Uiso   1.00
C748   C     0.55627   0.80517   0.45847   0.00000  Uiso   1.00
C749   C     0.44217   0.79363   0.05614   0.00000  Uiso   1.00
C750   C     0.58820   0.81429   0.48100   0.00000  Uiso   1.00
C751   C     0.52607   0.78852   0.05240   0.00000  Uiso   1.00
C752   C     0.41061   0.79750   0.03175   0.00000  Uiso   1.00
C753   C     0.50792   0.79069   0.48441   0.00000  Uiso   1.00
C754   C     0.49175   0.78808   0.03191   0.00000  Uiso   1.00
C755   C     0.59526   0.82171   0.05707   0.00000  Uiso   1.00
C756   C     0.38725   0.76793   0.47242   0.00000  Uiso   1.00
C757   C     0.56844   0.69962   0.27857   0.00000  Uiso   1.00
C758   C     0.54850   0.68081   0.32825   0.00000  Uiso   1.00
C759   C     0.49347   0.68373   0.34950   0.00000  Uiso   1.00
C760   C     0.39592   0.96160   0.28877   0.00000  Uiso   1.00
C761   C     0.36000   0.94602   0.33595   0.00000  Uiso   1.00
C762   C     0.47374   0.78091   0.46516   0.00000  Uiso   1.00
C763   C     0.38644   0.93368   0.36850   0.00000  Uiso   1.00
C764   C     0.58235   0.95972   0.24003   0.00000  Uiso   1.00
C765   C     0.42388   0.70509   0.21567   0.00000  Uiso   1.00
C766   C     0.51442   0.79733   0.32758   0.00000  Uiso   1.00
C767   C     0.47409   0.88814   0.18725   0.00000  Uiso   1.00
C768   C     0.43046   0.77383   0.30735   0.00000  Uiso   1.00
C769   C     0.57423   0.88049   0.17682   0.00000  Uiso   1.00
C770   C     0.57208   0.80571   0.02848   0.00000  Uiso   1.00
C771   C     0.42411   0.78298   0.48956   0.00000  Uiso   1.00
C772   C     0.62058   0.68624   0.25613   0.00000  Uiso   1.00
C773   C     0.36911   0.97894   0.25818   0.00000  Uiso   1.00
C774   C     0.62416   0.97860   0.24801   0.00000  Uiso   1.00
Cu775  Cu    0.38022   0.83334   0.25000   0.00000  Uiso   1.00
Cu776  Cu    0.61978   0.83333   0.25000   0.00000  Uiso   1.00
H777   H     0.44536   0.79726   0.12292   0.00000  Uiso   1.00
H778   H     0.65204   0.74581   0.48681   0.00000  Uiso   1.00
H779   H     0.48298   0.71576   0.35046   0.00000  Uiso   1.00
H780   H     0.47530   0.66854   0.32996   0.00000  Uiso   1.00
H781   H     0.48062   0.66835   0.38450   0.00000  Uiso   1.00
H782   H     0.55650   0.98142   0.33113   0.00000  Uiso   1.00
H783   H     0.56704   0.69559   0.34780   0.00000  Uiso   1.00
H784   H     0.56294   0.73193   0.27508   0.00000  Uiso   1.00
H785   H     0.54429   0.68981   0.26127   0.00000  Uiso   1.00
H786   H     0.41316   0.91028   0.35535   0.00000  Uiso   1.00
H787   H     0.40552   0.96054   0.37371   0.00000  Uiso   1.00
H788   H     0.54616   0.81493   0.39461   0.00000  Uiso   1.00
H789   H     0.35961   0.92103   0.40159   0.00000  Uiso   1.00
H790   H     0.33464   0.97027   0.34939   0.00000  Uiso   1.00
H791   H     0.33810   0.91927   0.33436   0.00000  Uiso   1.00
H792   H     0.42024   0.93733   0.27433   0.00000  Uiso   1.00
H793   H     0.41947   0.98576   0.29322   0.00000  Uiso   1.00
H794   H     0.51942   0.92583   0.26607   0.00000  Uiso   1.00
H795   H     0.49680   0.70160   0.19795   0.00000  Uiso   1.00
H796   H     0.54507   0.75988   0.36327   0.00000  Uiso   1.00
H797   H     0.46262   0.94680   0.17095   0.00000  Uiso   1.00
H798   H     0.37408   0.75296   0.36297   0.00000  Uiso   1.00
H799   H     0.66193   0.85733   0.09787   0.00000  Uiso   1.00
H800   H     0.59379   0.90451   0.11203   0.00000  Uiso   1.00
H801   H     0.35502   0.84768   0.39011   0.00000  Uiso   1.00
H802   H     0.66009   0.83954   0.47081   0.00000  Uiso   1.00
H803   H     0.35411   0.83293   0.02320   0.00000  Uiso   1.00
H804   H     0.51551   0.78142   0.08838   0.00000  Uiso   1.00
H805   H     0.48534   0.77168   0.43191   0.00000  Uiso   1.00
H806   H     0.59884   0.81237   0.11972   0.00000  Uiso   1.00
N807   N     0.45069   0.83334   0.24999   0.00000  Uiso   1.00
N808   N     0.54931   0.83332   0.25001   0.00000  Uiso   1.00
O809   O     0.37291   0.77322   0.25000   0.00000  Uiso   1.00
O810   O     0.59525   0.79687   0.09548   0.00000  Uiso   1.00
O811   O     0.39886   0.76220   0.43303   0.00000  Uiso   1.00
O812   O     0.33985   0.75760   0.00206   0.00000  Uiso   1.00
O813   O     0.57491   0.97080   0.20531   0.00000  Uiso   1.00
O814   O     0.54827   0.93383   0.27430   0.00000  Uiso   1.00
O815   O     0.42851   0.73347   0.18642   0.00000  Uiso   1.00
O816   O     0.46555   0.68726   0.21964   0.00000  Uiso   1.00
O817   O     0.48337   0.80712   0.36144   0.00000  Uiso   1.00
O818   O     0.55061   0.77171   0.33127   0.00000  Uiso   1.00
O819   O     0.47161   0.87823   0.15237   0.00000  Uiso   1.00
O820   O     0.62709   0.89345   0.25000   0.00000  Uiso   1.00
O821   O     0.47018   0.92882   0.19524   0.00000  Uiso   1.00
O822   O     0.43589   0.74039   0.29397   0.00000  Uiso   1.00
O823   O     0.39512   0.77866   0.34880   0.00000  Uiso   1.00
O824   O     0.60799   0.89900   0.18066   0.00000  Uiso   1.00
O825   O     0.56931   0.88402   0.13473   0.00000  Uiso   1.00
O826   O     0.62706   0.77321   0.25000   0.00000  Uiso   1.00
O827   O     0.37294   0.89346   0.24999   0.00000  Uiso   1.00
O828   O     0.35186   0.83334   0.31491   0.00000  Uiso   1.00
O829   O     0.64814   0.83332   0.18508   0.00000  Uiso   1.00
O830   O     0.60600   0.83333   0.31492   0.00000  Uiso   1.00
O831   O     0.39400   0.83333   0.18508   0.00000  Uiso   1.00
O832   O     0.60779   0.85771   0.05080   0.00000  Uiso   1.00
C833   C     0.99944   0.75413   0.25021   0.00000  Uiso   1.00
C834   C     0.70761   0.68746   0.24387   0.00000  Uiso   1.00
C835   C     0.99775   0.95684   0.25205   0.00000  Uiso   1.00
C836   C     0.99790   0.70920   0.24976   0.00000  Uiso   1.00
C837   C     0.84436   0.81174   0.28366   0.00000  Uiso   1.00
C838   C     0.82031   0.85809   0.21857   0.00000  Uiso   1.00
C839   C     0.79701   0.80813   0.28042   0.00000  Uiso   1.00
C840   C     0.87034   0.85623   0.21637   0.00000  Uiso   1.00
C841   C     0.97104   0.83278   0.33604   0.00000  Uiso   1.00
C842   C     0.69576   0.83199   0.16453   0.00000  Uiso   1.00
C843   C     0.95299   0.82902   0.38596   0.00000  Uiso   1.00
C844   C     0.99953   0.91228   0.25073   0.00000  Uiso   1.00
C845   C     0.71501   0.82393   0.11732   0.00000  Uiso   1.00
C846   C     0.96830   0.83134   0.45540   0.00000  Uiso   1.00
C847   C     0.70436   0.82197   0.04636   0.00000  Uiso   1.00
C848   C     0.98447   0.83685   0.40859   0.00000  Uiso   1.00
C849   C     0.69093   0.83645   0.08814   0.00000  Uiso   1.00
C850   C     0.90499   0.81566   0.41146   0.00000  Uiso   1.00
C851   C     0.75831   0.80343   0.10094   0.00000  Uiso   1.00
C852   C     0.88961   0.80517   0.45847   0.00000  Uiso   1.00
C853   C     0.77550   0.79363   0.05614   0.00000  Uiso   1.00
C854   C     0.92154   0.81429   0.48100   0.00000  Uiso   1.00
C855   C     0.85941   0.78852   0.05240   0.00000  Uiso   1.00
C856   C     0.74395   0.79750   0.03175   0.00000  Uiso   1.00
C857   C     0.84125   0.79069   0.48441   0.00000  Uiso   1.00
C858   C     0.82508   0.78808   0.03191   0.00000  Uiso   1.00
C859   C     0.92859   0.82171   0.05707   0.00000  Uiso   1.00
C860   C     0.72059   0.76793   0.47242   0.00000  Uiso   1.00
C861   C     0.90178   0.69962   0.27857   0.00000  Uiso   1.00
C862   C     0.88183   0.68081   0.32825   0.00000  Uiso   1.00
C863   C     0.82680   0.68373   0.34950   0.00000  Uiso   1.00
C864   C     0.72926   0.96160   0.28877   0.00000  Uiso   1.00
C865   C     0.69334   0.94602   0.33595   0.00000  Uiso   1.00
C866   C     0.80707   0.78091   0.46516   0.00000  Uiso   1.00
C867   C     0.71977   0.93368   0.36850   0.00000  Uiso   1.00
C868   C     0.91568   0.95972   0.24003   0.00000  Uiso   1.00
C869   C     0.75722   0.70509   0.21567   0.00000  Uiso   1.00
C870   C     0.84775   0.79733   0.32758   0.00000  Uiso   1.00
C871   C     0.80742   0.88814   0.18725   0.00000  Uiso   1.00
C872   C     0.76379   0.77383   0.30735   0.00000  Uiso   1.00
C873   C     0.90756   0.88049   0.17682   0.00000  Uiso   1.00
C874   C     0.90542   0.80571   0.02848   0.00000  Uiso   1.00
C875   C     0.75744   0.78298   0.48956   0.00000  Uiso   1.00
C876   C     0.95391   0.68624   0.25613   0.00000  Uiso   1.00
C877   C     0.70244   0.97894   0.25818   0.00000  Uiso   1.00
C878   C     0.95749   0.97860   0.24801   0.00000  Uiso   1.00
Cu879  Cu    0.71355   0.83334   0.25000   0.00000  Uiso   1.00
Cu880  Cu    0.95311   0.83333   0.25000   0.00000  Uiso   1.00
H881   H     0.77869   0.79726   0.12292   0.00000  Uiso   1.00
H882   H     0.98538   0.74581   0.48681   0.00000  Uiso   1.00
H883   H     0.81632   0.71576   0.35046   0.00000  Uiso   1.00
H884   H     0.80864   0.66854   0.32996   0.00000  Uiso   1.00
H885   H     0.81396   0.66835   0.38450   0.00000  Uiso   1.00
H886   H     0.88984   0.98142   0.33113   0.00000  Uiso   1.00
H887   H     0.90037   0.69559   0.34780   0.00000  Uiso   1.00
H888   H     0.89627   0.73193   0.27508   0.00000  Uiso   1.00
H889   H     0.87762   0.68981   0.26127   0.00000  Uiso   1.00
H890   H     0.74649   0.91028   0.35535   0.00000  Uiso   1.00
H891   H     0.73885   0.96054   0.37371   0.00000  Uiso   1.00
H892   H     0.87949   0.81493   0.39461   0.00000  Uiso   1.00
H893   H     0.69295   0.92103   0.40159   0.00000  Uiso   1.00
H894   H     0.66798   0.97027   0.34939   0.00000  Uiso   1.00
H895   H     0.67143   0.91927   0.33436   0.00000  Uiso   1.00
H896   H     0.75357   0.93733   0.27433   0.00000  Uiso   1.00
H897   H     0.75281   0.98576   0.29322   0.00000  Uiso   1.00
H898   H     0.85275   0.92583   0.26607   0.00000  Uiso   1.00
H899   H     0.83013   0.70160   0.19795   0.00000  Uiso   1.00
H900   H     0.87840   0.75988   0.36327   0.00000  Uiso   1.00
H901   H     0.79595   0.94680   0.17095   0.00000  Uiso   1.00
H902   H     0.70741   0.75296   0.36297   0.00000  Uiso   1.00
H903   H     0.99526   0.85733   0.09787   0.00000  Uiso   1.00
H904   H     0.92712   0.90451   0.11203   0.00000  Uiso   1.00
H905   H     0.68835   0.84768   0.39011   0.00000  Uiso   1.00
H906   H     0.99342   0.83954   0.47081   0.00000  Uiso   1.00
H907   H     0.68745   0.83293   0.02320   0.00000  Uiso   1.00
H908   H     0.84885   0.78142   0.08838   0.00000  Uiso   1.00
H909   H     0.81867   0.77168   0.43191   0.00000  Uiso   1.00
H910   H     0.93218   0.81237   0.11972   0.00000  Uiso   1.00
N911   N     0.78403   0.83334   0.24999   0.00000  Uiso   1.00
N912   N     0.88264   0.83332   0.25001   0.00000  Uiso   1.00
O913   O     0.70625   0.77322   0.25000   0.00000  Uiso   1.00
O914   O     0.92858   0.79687   0.09548   0.00000  Uiso   1.00
O915   O     0.73219   0.76220   0.43303   0.00000  Uiso   1.00
O916   O     0.67318   0.75760   0.00206   0.00000  Uiso   1.00
O917   O     0.90824   0.97080   0.20531   0.00000  Uiso   1.00
O918   O     0.88160   0.93383   0.27430   0.00000  Uiso   1.00
O919   O     0.76184   0.73347   0.18642   0.00000  Uiso   1.00
O920   O     0.79888   0.68726   0.21964   0.00000  Uiso   1.00
O921   O     0.81670   0.80712   0.36144   0.00000  Uiso   1.00
O922   O     0.88395   0.77171   0.33127   0.00000  Uiso   1.00
O923   O     0.80495   0.87823   0.15237   0.00000  Uiso   1.00
O924   O     0.96042   0.89345   0.25000   0.00000  Uiso   1.00
O925   O     0.80351   0.92882   0.19524   0.00000  Uiso   1.00
O926   O     0.76922   0.74039   0.29397   0.00000  Uiso   1.00
O927   O     0.72846   0.77866   0.34880   0.00000  Uiso   1.00
O928   O     0.94133   0.89900   0.18066   0.00000  Uiso   1.00
O929   O     0.90264   0.88402   0.13473   0.00000  Uiso   1.00
O930   O     0.96039   0.77321   0.25000   0.00000  Uiso   1.00
O931   O     0.70628   0.89346   0.24999   0.00000  Uiso   1.00
O932   O     0.68519   0.83334   0.31491   0.00000  Uiso   1.00
O933   O     0.98148   0.83332   0.18508   0.00000  Uiso   1.00
O934   O     0.93933   0.83333   0.31492   0.00000  Uiso   1.00
O935   O     0.72733   0.83333   0.18508   0.00000  Uiso   1.00
O936   O     0.94112   0.85771   0.05080   0.00000  Uiso   1.00
C937   C     0.33277   0.08746   0.75021   0.00000  Uiso   1.00
C938   C     0.04094   0.02080   0.74387   0.00000  Uiso   1.00
C939   C     0.33108   0.29017   0.75205   0.00000  Uiso   1.00
C940   C     0.33123   0.04253   0.74976   0.00000  Uiso   1.00
C941   C     0.17769   0.14507   0.78366   0.00000  Uiso   1.00
C942   C     0.15364   0.19143   0.71857   0.00000  Uiso   1.00
C943   C     0.13034   0.14147   0.78042   0.00000  Uiso   1.00
C944   C     0.20368   0.18956   0.71637   0.00000  Uiso   1.00
C945   C     0.30437   0.16611   0.83604   0.00000  Uiso   1.00
C946   C     0.02909   0.16532   0.66453   0.00000  Uiso   1.00
C947   C     0.28633   0.16236   0.88596   0.00000  Uiso   1.00
C948   C     0.33287   0.24561   0.75073   0.00000  Uiso   1.00
C949   C     0.04834   0.15727   0.61732   0.00000  Uiso   1.00
C950   C     0.30164   0.16467   0.95540   0.00000  Uiso   1.00
C951   C     0.03769   0.15530   0.54636   0.00000  Uiso   1.00
C952   C     0.31781   0.17019   0.90859   0.00000  Uiso   1.00
C953   C     0.02426   0.16978   0.58814   0.00000  Uiso   1.00
C954   C     0.23832   0.14899   0.91146   0.00000  Uiso   1.00
C955   C     0.09165   0.13677   0.60094   0.00000  Uiso   1.00
C956   C     0.22294   0.13850   0.95847   0.00000  Uiso   1.00
C957   C     0.10884   0.12697   0.55614   0.00000  Uiso   1.00
C958   C     0.25487   0.14762   0.98100   0.00000  Uiso   1.00
C959   C     0.19274   0.12185   0.55240   0.00000  Uiso   1.00
C960   C     0.07728   0.13083   0.53175   0.00000  Uiso   1.00
C961   C     0.17459   0.12402   0.98441   0.00000  Uiso   1.00
C962   C     0.15841   0.12141   0.53191   0.00000  Uiso   1.00
C963   C     0.26192   0.15504   0.55707   0.00000  Uiso   1.00
C964   C     0.05392   0.10127   0.97242   0.00000  Uiso   1.00
C965   C     0.23511   0.03296   0.77857   0.00000  Uiso   1.00
C966   C     0.21516   0.01415   0.82825   0.00000  Uiso   1.00
C967   C     0.16013   0.01706   0.84950   0.00000  Uiso   1.00
C968   C     0.06259   0.29493   0.78877   0.00000  Uiso   1.00
C969   C     0.02667   0.27935   0.83595   0.00000  Uiso   1.00
C970   C     0.14041   0.11424   0.96516   0.00000  Uiso   1.00
C971   C     0.05310   0.26701   0.86850   0.00000  Uiso   1.00
C972   C     0.24901   0.29306   0.74003   0.00000  Uiso   1.00
C973   C     0.09055   0.03843   0.71567   0.00000  Uiso   1.00
C974   C     0.18108   0.13066   0.82758   0.00000  Uiso   1.00
C975   C     0.14075   0.22147   0.68725   0.00000  Uiso   1.00
C976   C     0.09712   0.10716   0.80735   0.00000  Uiso   1.00
C977   C     0.24089   0.21382   0.67682   0.00000  Uiso   1.00
C978   C     0.23875   0.13905   0.52848   0.00000  Uiso   1.00
C979   C     0.09077   0.11631   0.98956   0.00000  Uiso   1.00
C980   C     0.28725   0.01957   0.75613   0.00000  Uiso   1.00
C981   C     0.03578   0.31227   0.75818   0.00000  Uiso   1.00
C982   C     0.29083   0.31194   0.74801   0.00000  Uiso   1.00
Cu983  Cu    0.04689   0.16667   0.75000   0.00000  Uiso   1.00
Cu984  Cu    0.28645   0.16666   0.75000   0.00000  Uiso   1.00
H985   H     0.11203   0.13059   0.62292   0.00000  Uiso   1.00
H986   H     0.31871   0.07914   0.98681   0.00000  Uiso   1.00
H987   H     0.14965   0.04909   0.85046   0.00000  Uiso   1.00
H988   H     0.14197   0.00187   0.82996   0.00000  Uiso   1.00
H989   H     0.14729   0.00169   0.88450   0.00000  Uiso   1.00
H990   H     0.22317   0.31475   0.83113   0.00000  Uiso   1.00
H991   H     0.23370   0.02892   0.84780   0.00000  Uiso   1.00
H992   H     0.22961   0.06526   0.77508   0.00000  Uiso   1.00
H993   H     0.21095   0.02314   0.76127   0.00000  Uiso   1.00
H994   H     0.07982   0.24361   0.85535   0.00000  Uiso   1.00
H995   H     0.07219   0.29388   0.87371   0.00000  Uiso   1.00
H996   H     0.21283   0.14827   0.89461   0.00000  Uiso   1.00
H997   H     0.02628   0.25437   0.90159   0.00000  Uiso   1.00
H998   H     0.00131   0.30361   0.84939   0.00000  Uiso   1.00
H999   H     0.00476   0.25260   0.83436   0.00000  Uiso   1.00
H1000  H     0.08690   0.27066   0.77433   0.00000  Uiso   1.00
H1001  H     0.08614   0.31910   0.79322   0.00000  Uiso   1.00
H1002  H     0.18608   0.25916   0.76607   0.00000  Uiso   1.00
H1003  H     0.16347   0.03493   0.69795   0.00000  Uiso   1.00
H1004  H     0.21173   0.09321   0.86327   0.00000  Uiso   1.00
H1005  H     0.12928   0.28013   0.67095   0.00000  Uiso   1.00
H1006  H     0.04074   0.08629   0.86297   0.00000  Uiso   1.00
H1007  H     0.32860   0.19067   0.59787   0.00000  Uiso   1.00
H1008  H     0.26046   0.23785   0.61203   0.00000  Uiso   1.00
H1009  H     0.02169   0.18101   0.89011   0.00000  Uiso   1.00
H1010  H     0.32675   0.17287   0.97081   0.00000  Uiso   1.00
H1011  H     0.02078   0.16627   0.52320   0.00000  Uiso   1.00
H1012  H     0.18218   0.11475   0.58838   0.00000  Uiso   1.00
H1013  H     0.15200   0.10501   0.93191   0.00000  Uiso   1.00
H1014  H     0.26551   0.14570   0.61972   0.00000  Uiso   1.00
N1015  N     0.11736   0.16668   0.74999   0.00000  Uiso   1.00
N1016  N     0.21597   0.16666   0.75001   0.00000  Uiso   1.00
O1017  O     0.03958   0.10655   0.75000   0.00000  Uiso   1.00
O1018  O     0.26192   0.13020   0.59548   0.00000  Uiso   1.00
O1019  O     0.06552   0.09553   0.93303   0.00000  Uiso   1.00
O1020  O     0.00651   0.09093   0.50206   0.00000  Uiso   1.00
O1021  O     0.24157   0.30414   0.70531   0.00000  Uiso   1.00
O1022  O     0.21493   0.26716   0.77430   0.00000  Uiso   1.00
O1023  O     0.09517   0.06680   0.68642   0.00000  Uiso   1.00
O1024  O     0.13221   0.02060   0.71964   0.00000  Uiso   1.00
O1025  O     0.15004   0.14045   0.86144   0.00000  Uiso   1.00
O1026  O     0.21728   0.10504   0.83127   0.00000  Uiso   1.00
O1027  O     0.13828   0.21156   0.65237   0.00000  Uiso   1.00
O1028  O     0.29375   0.22678   0.75000   0.00000  Uiso   1.00
O1029  O     0.13685   0.26215   0.69524   0.00000  Uiso   1.00
O1030  O     0.10255   0.07372   0.79397   0.00000  Uiso   1.00
O1031  O     0.06179   0.11199   0.84880   0.00000  Uiso   1.00
O1032  O     0.27466   0.23234   0.68066   0.00000  Uiso   1.00
O1033  O     0.23597   0.21735   0.63473   0.00000  Uiso   1.00
O1034  O     0.29372   0.10654   0.75000   0.00000  Uiso   1.00
O1035  O     0.03961   0.22679   0.74999   0.00000  Uiso   1.00
O1036  O     0.01852   0.16668   0.81491   0.00000  Uiso   1.00
O1037  O     0.31481   0.16666   0.68508   0.00000  Uiso   1.00
O1038  O     0.27267   0.16667   0.81492   0.00000  Uiso   1.00
O1039  O     0.06067   0.16667   0.68508   0.00000  Uiso   1.00
O1040  O     0.27445   0.19105   0.55080   0.00000  Uiso   1.00
C1041  C     0.66610   0.08746   0.75021   0.00000  Uiso   1.00
C1042  C     0.37427   0.02080   0.74387   0.00000  Uiso   1.00
C1043  C     0.66441   0.29017   0.75205   0.00000  Uiso   1.00
C1044  C     0.66456   0.04253   0.74976   0.00000  Uiso   1.00
C1045  C     0.51103   0.14507   0.78366   0.00000  Uiso   1.00
C1046  C     0.48697   0.19143   0.71857   0.00000  Uiso   1.00
C1047  C     0.46367   0.14147   0.78042   0.00000  Uiso   1.00
C1048  C     0.53701   0.18956   0.71637   0.00000  Uiso   1.00
C1049  C     0.63770   0.16611   0.83604   0.00000  Uiso   1.00
C1050  C     0.36243   0.16532   0.66453   0.00000  Uiso   1.00
C1051  C     0.61966   0.16236   0.88596   0.00000  Uiso   1.00
C1052  C     0.66620   0.24561   0.75073   0.00000  Uiso   1.00
C1053  C     0.38168   0.15727   0.61732   0.00000  Uiso   1.00
C1054  C     0.63497   0.16467   0.95540   0.00000  Uiso   1.00
C1055  C     0.37103   0.15530   0.54636   0.00000  Uiso   1.00
C1056  C     0.65114   0.17019   0.90859   0.00000  Uiso   1.00
C1057  C     0.35760   0.16978   0.58814   0.00000  Uiso   1.00
C1058  C     0.57166   0.14899   0.91146   0.00000  Uiso   1.00
C1059  C     0.42498   0.13677   0.60094   0.00000  Uiso   1.00
C1060  C     0.55627   0.13850   0.95847   0.00000  Uiso   1.00
C1061  C     0.44217   0.12697   0.55614   0.00000  Uiso   1.00
C1062  C     0.58820   0.14762   0.98100   0.00000  Uiso   1.00
C1063  C     0.52607   0.12185   0.55240   0.00000  Uiso   1.00
C1064  C     0.41061   0.13083   0.53175   0.00000  Uiso   1.00
C1065  C     0.50792   0.12402   0.98441   0.00000  Uiso   1.00
C1066  C     0.49175   0.12141   0.53191   0.00000  Uiso   1.00
C1067  C     0.59526   0.15504   0.55707   0.00000  Uiso   1.00
C1068  C     0.38725   0.10127   0.97242   0.00000  Uiso   1.00
C1069  C     0.56844   0.03296   0.77857   0.00000  Uiso   1.00
C1070  C     0.54850   0.01415   0.82825   0.00000  Uiso   1.00
C1071  C     0.49347   0.01706   0.84950   0.00000  Uiso   1.00
C1072  C     0.39592   0.29493   0.78877   0.00000  Uiso   1.00
C1073  C     0.36000   0.27935   0.83595   0.00000  Uiso   1.00
C1074  C     0.47374   0.11424   0.96516   0.00000  Uiso   1.00
C1075  C     0.38644   0.26701   0.86850   0.00000  Uiso   1.00
C1076  C     0.58235   0.29306   0.74003   0.00000  Uiso   1.00
C1077  C     0.42388   0.03843   0.71567   0.00000  Uiso   1.00
C1078  C     0.51442   0.13066   0.82758   0.00000  Uiso   1.00
C1079  C     0.47409   0.22147   0.68725   0.00000  Uiso   1.00
C1080  C     0.43046   0.10716   0.80735   0.00000  Uiso   1.00
C1081  C     0.57423   0.21382   0.67682   0.00000  Uiso   1.00
C1082  C     0.57208   0.13905   0.52848   0.00000  Uiso   1.00
C1083  C     0.42411   0.11631   0.98956   0.00000  Uiso   1.00
C1084  C     0.62058   0.01957   0.75613   0.00000  Uiso   1.00
C1085  C     0.36911   0.31227   0.75818   0.00000  Uiso   1.00
C1086  C     0.62416   0.31194   0.74801   0.00000  Uiso   1.00
Cu1087 Cu    0.38022   0.16667   0.75000   0.00000  Uiso   1.00
Cu1088 Cu    0.61978   0.16666   0.75000   0.00000  Uiso   1.00
H1089  H     0.44536   0.13059   0.62292   0.00000  Uiso   1.00
H1090  H     0.65204   0.07914   0.98681   0.00000  Uiso   1.00
H1091  H     0.48298   0.04909   0.85046   0.00000  Uiso   1.00
H1092  H     0.47530   0.00187   0.82996   0.00000  Uiso   1.00
H1093  H     0.48062   0.00169   0.88450   0.00000  Uiso   1.00
H1094  H     0.55650   0.31475   0.83113   0.00000  Uiso   1.00
H1095  H     0.56704   0.02892   0.84780   0.00000  Uiso   1.00
H1096  H     0.56294   0.06526   0.77508   0.00000  Uiso   1.00
H1097  H     0.54429   0.02314   0.76127   0.00000  Uiso   1.00
H1098  H     0.41316   0.24361   0.85535   0.00000  Uiso   1.00
H1099  H     0.40552   0.29388   0.87371   0.00000  Uiso   1.00
H1100  H     0.54616   0.14827   0.89461   0.00000  Uiso   1.00
H1101  H     0.35961   0.25437   0.90159   0.00000  Uiso   1.00
H1102  H     0.33464   0.30361   0.84939   0.00000  Uiso   1.00
H1103  H     0.33810   0.25260   0.83436   0.00000  Uiso   1.00
H1104  H     0.42024   0.27066   0.77433   0.00000  Uiso   1.00
H1105  H     0.41947   0.31910   0.79322   0.00000  Uiso   1.00
H1106  H     0.51942   0.25916   0.76607   0.00000  Uiso   1.00
H1107  H     0.49680   0.03493   0.69795   0.00000  Uiso   1.00
H1108  H     0.54507   0.09321   0.86327   0.00000  Uiso   1.00
H1109  H     0.46262   0.28013   0.67095   0.00000  Uiso   1.00
H1110  H     0.37408   0.08629   0.86297   0.00000  Uiso   1.00
H1111  H     0.66193   0.19067   0.59787   0.00000  Uiso   1.00
H1112  H     0.59379   0.23785   0.61203   0.00000  Uiso   1.00
H1113  H     0.35502   0.18101   0.89011   0.00000  Uiso   1.00
H1114  H     0.66009   0.17287   0.97081   0.00000  Uiso   1.00
H1115  H     0.35411   0.16627   0.52320   0.00000  Uiso   1.00
H1116  H     0.51551   0.11475   0.58838   0.00000  Uiso   1.00
H1117  H     0.48534   0.10501   0.93191   0.00000  Uiso   1.00
H1118  H     0.59884   0.14570   0.61972   0.00000  Uiso   1.00
N1119  N     0.45069   0.16668   0.74999   0.00000  Uiso   1.00
N1120  N     0.54931   0.16666   0.75001   0.00000  Uiso   1.00
O1121  O     0.37291   0.10655   0.75000   0.00000  Uiso   1.00
O1122  O     0.59525   0.13020   0.59548   0.00000  Uiso   1.00
O1123  O     0.39886   0.09553   0.93303   0.00000  Uiso   1.00
O1124  O     0.33985   0.09093   0.50206   0.00000  Uiso   1.00
O1125  O     0.57491   0.30414   0.70531   0.00000  Uiso   1.00
O1126  O     0.54827   0.26716   0.77430   0.00000  Uiso   1.00
O1127  O     0.42851   0.06680   0.68642   0.00000  Uiso   1.00
O1128  O     0.46555   0.02060   0.71964   0.00000  Uiso   1.00
O1129  O     0.48337   0.14045   0.86144   0.00000  Uiso   1.00
O1130  O     0.55061   0.10504   0.83127   0.00000  Uiso   1.00
O1131  O     0.47161   0.21156   0.65237   0.00000  Uiso   1.00
O1132  O     0.62709   0.22678   0.75000   0.00000  Uiso   1.00
O1133  O     0.47018   0.26215   0.69524   0.00000  Uiso   1.00
O1134  O     0.43589   0.07372   0.79397   0.00000  Uiso   1.00
O1135  O     0.39512   0.11199   0.84880   0.00000  Uiso   1.00
O1136  O     0.60799   0.23234   0.68066   0.00000  Uiso   1.00
O1137  O     0.56931   0.21735   0.63473   0.00000  Uiso   1.00
O1138  O     0.62706   0.10654   0.75000   0.00000  Uiso   1.00
O1139  O     0.37294   0.22679   0.74999   0.00000  Uiso   1.00
O1140  O     0.35186   0.16668   0.81491   0.00000  Uiso   1.00
O1141  O     0.64814   0.16666   0.68508   0.00000  Uiso   1.00
O1142  O     0.60600   0.16667   0.81492   0.00000  Uiso   1.00
O1143  O     0.39400   0.16667   0.68508   0.00000  Uiso   1.00
O1144  O     0.60779   0.19105   0.55080   0.00000  Uiso   1.00
C1145  C     0.99944   0.08746   0.75021   0.00000  Uiso   1.00
C1146  C     0.70761   0.02080   0.74387   0.00000  Uiso   1.00
C1147  C     0.99775   0.29017   0.75205   0.00000  Uiso   1.00
C1148  C     0.99790   0.04253   0.74976   0.00000  Uiso   1.00
C1149  C     0.84436   0.14507   0.78366   0.00000  Uiso   1.00
C1150  C     0.82031   0.19143   0.71857   0.00000  Uiso   1.00
C1151  C     0.79701   0.14147   0.78042   0.00000  Uiso   1.00
C1152  C     0.87034   0.18956   0.71637   0.00000  Uiso   1.00
C1153  C     0.97104   0.16611   0.83604   0.00000  Uiso   1.00
C1154  C     0.69576   0.16532   0.66453   0.00000  Uiso   1.00
C1155  C     0.95299   0.16236   0.88596   0.00000  Uiso   1.00
C1156  C     0.99953   0.24561   0.75073   0.00000  Uiso   1.00
C1157  C     0.71501   0.15727   0.61732   0.00000  Uiso   1.00
C1158  C     0.96830   0.16467   0.95540   0.00000  Uiso   1.00
C1159  C     0.70436   0.15530   0.54636   0.00000  Uiso   1.00
C1160  C     0.98447   0.17019   0.90859   0.00000  Uiso   1.00
C1161  C     0.69093   0.16978   0.58814   0.00000  Uiso   1.00
C1162  C     0.90499   0.14899   0.91146   0.00000  Uiso   1.00
C1163  C     0.75831   0.13677   0.60094   0.00000  Uiso   1.00
C1164  C     0.88961   0.13850   0.95847   0.00000  Uiso   1.00
C1165  C     0.77550   0.12697   0.55614   0.00000  Uiso   1.00
C1166  C     0.92154   0.14762   0.98100   0.00000  Uiso   1.00
C1167  C     0.85941   0.12185   0.55240   0.00000  Uiso   1.00
C1168  C     0.74395   0.13083   0.53175   0.00000  Uiso   1.00
C1169  C     0.84125   0.12402   0.98441   0.00000  Uiso   1.00
C1170  C     0.82508   0.12141   0.53191   0.00000  Uiso   1.00
C1171  C     0.92859   0.15504   0.55707   0.00000  Uiso   1.00
C1172  C     0.72059   0.10127   0.97242   0.00000  Uiso   1.00
C1173  C     0.90178   0.03296   0.77857   0.00000  Uiso   1.00
C1174  C     0.88183   0.01415   0.82825   0.00000  Uiso   1.00
C1175  C     0.82680   0.01706   0.84950   0.00000  Uiso   1.00
C1176  C     0.72926   0.29493   0.78877   0.00000  Uiso   1.00
C1177  C     0.69334   0.27935   0.83595   0.00000  Uiso   1.00
C1178  C     0.80707   0.11424   0.96516   0.00000  Uiso   1.00
C1179  C     0.71977   0.26701   0.86850   0.00000  Uiso   1.00
C1180  C     0.91568   0.29306   0.74003   0.00000  Uiso   1.00
C1181  C     0.75722   0.03843   0.71567   0.00000  Uiso   1.00
C1182  C     0.84775   0.13066   0.82758   0.00000  Uiso   1.00
C1183  C     0.80742   0.22147   0.68725   0.00000  Uiso   1.00
C1184  C     0.76379   0.10716   0.80735   0.00000  Uiso   1.00
C1185  C     0.90756   0.21382   0.67682   0.00000  Uiso   1.00
C1186  C     0.90542   0.13905   0.52848   0.00000  Uiso   1.00
C1187  C     0.75744   0.11631   0.98956   0.00000  Uiso   1.00
C1188  C     0.95391   0.01957   0.75613   0.00000  Uiso   1.00
C1189  C     0.70244   0.31227   0.75818   0.00000  Uiso   1.00
C1190  C     0.95749   0.31194   0.74801   0.00000  Uiso   1.00
Cu1191 Cu    0.71355   0.16667   0.75000   0.00000  Uiso   1.00
Cu1192 Cu    0.95311   0.16666   0.75000   0.00000  Uiso   1.00
H1193  H     0.77869   0.13059   0.62292   0.00000  Uiso   1.00
H1194  H     0.98538   0.07914   0.98681   0.00000  Uiso   1.00
H1195  H     0.81632   0.04909   0.85046   0.00000  Uiso   1.00
H1196  H     0.80864   0.00187   0.82996   0.00000  Uiso   1.00
H1197  H     0.81396   0.00169   0.88450   0.00000  Uiso   1.00
H1198  H     0.88984   0.31475   0.83113   0.00000  Uiso   1.00
H1199  H     0.90037   0.02892   0.84780   0.00000  Uiso   1.00
H1200  H     0.89627   0.06526   0.77508   0.00000  Uiso   1.00
H1201  H     0.87762   0.02314   0.76127   0.00000  Uiso   1.00
H1202  H     0.74649   0.24361   0.85535   0.00000  Uiso   1.00
H1203  H     0.73885   0.29388   0.87371   0.00000  Uiso   1.00
H1204  H     0.87949   0.14827   0.89461   0.00000  Uiso   1.00
H1205  H     0.69295   0.25437   0.90159   0.00000  Uiso   1.00
H1206  H     0.66798   0.30361   0.84939   0.00000  Uiso   1.00
H1207  H     0.67143   0.25260   0.83436   0.00000  Uiso   1.00
H1208  H     0.75357   0.27066   0.77433   0.00000  Uiso   1.00
H1209  H     0.75281   0.31910   0.79322   0.00000  Uiso   1.00
H1210  H     0.85275   0.25916   0.76607   0.00000  Uiso   1.00
H1211  H     0.83013   0.03493   0.69795   0.00000  Uiso   1.00
H1212  H     0.87840   0.09321   0.86327   0.00000  Uiso   1.00
H1213  H     0.79595   0.28013   0.67095   0.00000  Uiso   1.00
H1214  H     0.70741   0.08629   0.86297   0.00000  Uiso   1.00
H1215  H     0.99526   0.19067   0.59787   0.00000  Uiso   1.00
H1216  H     0.92712   0.23785   0.61203   0.00000  Uiso   1.00
H1217  H     0.68835   0.18101   0.89011   0.00000  Uiso   1.00
H1218  H     0.99342   0.17287   0.97081   0.00000  Uiso   1.00
H1219  H     0.68745   0.16627   0.52320   0.00000  Uiso   1.00
H1220  H     0.84885   0.11475   0.58838   0.00000  Uiso   1.00
H1221  H     0.81867   0.10501   0.93191   0.00000  Uiso   1.00
H1222  H     0.93218   0.14570   0.61972   0.00000  Uiso   1.00
N1223  N     0.78403   0.16668   0.74999   0.00000  Uiso   1.00
N1224  N     0.88264   0.16666   0.75001   0.00000  Uiso   1.00
O1225  O     0.70625   0.10655   0.75000   0.00000  Uiso   1.00
O1226  O     0.92858   0.13020   0.59548   0.00000  Uiso   1.00
O1227  O     0.73219   0.09553   0.93303   0.00000  Uiso   1.00
O1228  O     0.67318   0.09093   0.50206   0.00000  Uiso   1.00
O1229  O     0.90824   0.30414   0.70531   0.00000  Uiso   1.00
O1230  O     0.88160   0.26716   0.77430   0.00000  Uiso   1.00
O1231  O     0.76184   0.06680   0.68642   0.00000  Uiso   1.00
O1232  O     0.79888   0.02060   0.71964   0.00000  Uiso   1.00
O1233  O     0.81670   0.14045   0.86144   0.00000  Uiso   1.00
O1234  O     0.88395   0.10504   0.83127   0.00000  Uiso   1.00
O1235  O     0.80495   0.21156   0.65237   0.00000  Uiso   1.00
O1236  O     0.96042   0.22678   0.75000   0.00000  Uiso   1.00
O1237  O     0.80351   0.26215   0.69524   0.00000  Uiso   1.00
O1238  O     0.76922   0.07372   0.79397   0.00000  Uiso   1.00
O1239  O     0.72846   0.11199   0.84880   0.00000  Uiso   1.00
O1240  O     0.94133   0.23234   0.68066   0.00000  Uiso   1.00
O1241  O     0.90264   0.21735   0.63473   0.00000  Uiso   1.00
O1242  O     0.96039   0.10654   0.75000   0.00000  Uiso   1.00
O1243  O     0.70628   0.22679   0.74999   0.00000  Uiso   1.00
O1244  O     0.68519   0.16668   0.81491   0.00000  Uiso   1.00
O1245  O     0.98148   0.16666   0.68508   0.00000  Uiso   1.00
O1246  O     0.93933   0.16667   0.81492   0.00000  Uiso   1.00
O1247  O     0.72733   0.16667   0.68508   0.00000  Uiso   1.00
O1248  O     0.94112   0.19105   0.55080   0.00000  Uiso   1.00
C1249  C     0.33277   0.42080   0.75021   0.00000  Uiso   1.00
C1250  C     0.04094   0.35413   0.74387   0.00000  Uiso   1.00
C1251  C     0.33108   0.62350   0.75205   0.00000  Uiso   1.00
C1252  C     0.33123   0.37586   0.74976   0.00000  Uiso   1.00
C1253  C     0.17769   0.47841   0.78366   0.00000  Uiso   1.00
C1254  C     0.15364   0.52476   0.71857   0.00000  Uiso   1.00
C1255  C     0.13034   0.47480   0.78042   0.00000  Uiso   1.00
C1256  C     0.20368   0.52289   0.71637   0.00000  Uiso   1.00
C1257  C     0.30437   0.49944   0.83604   0.00000  Uiso   1.00
C1258  C     0.02909   0.49866   0.66453   0.00000  Uiso   1.00
C1259  C     0.28633   0.49569   0.88596   0.00000  Uiso   1.00
C1260  C     0.33287   0.57895   0.75073   0.00000  Uiso   1.00
C1261  C     0.04834   0.49060   0.61732   0.00000  Uiso   1.00
C1262  C     0.30164   0.49801   0.95540   0.00000  Uiso   1.00
C1263  C     0.03769   0.48863   0.54636   0.00000  Uiso   1.00
C1264  C     0.31781   0.50352   0.90859   0.00000  Uiso   1.00
C1265  C     0.02426   0.50312   0.58814   0.00000  Uiso   1.00
C1266  C     0.23832   0.48233   0.91146   0.00000  Uiso   1.00
C1267  C     0.09165   0.47010   0.60094   0.00000  Uiso   1.00
C1268  C     0.22294   0.47183   0.95847   0.00000  Uiso   1.00
C1269  C     0.10884   0.46030   0.55614   0.00000  Uiso   1.00
C1270  C     0.25487   0.48096   0.98100   0.00000  Uiso   1.00
C1271  C     0.19274   0.45518   0.55240   0.00000  Uiso   1.00
C1272  C     0.07728   0.46416   0.53175   0.00000  Uiso   1.00
C1273  C     0.17459   0.45736   0.98441   0.00000  Uiso   1.00
C1274  C     0.15841   0.45474   0.53191   0.00000  Uiso   1.00
C1275  C     0.26192   0.48837   0.55707   0.00000  Uiso   1.00
C1276  C     0.05392   0.43460   0.97242   0.00000  Uiso   1.00
C1277  C     0.23511   0.36629   0.77857   0.00000  Uiso   1.00
C1278  C     0.21516   0.34748   0.82825   0.00000  Uiso   1.00
C1279  C     0.16013   0.35040   0.84950   0.00000  Uiso   1.00
C1280  C     0.06259   0.62827   0.78877   0.00000  Uiso   1.00
C1281  C     0.02667   0.61268   0.83595   0.00000  Uiso   1.00
C1282  C     0.14041   0.44757   0.96516   0.00000  Uiso   1.00
C1283  C     0.05310   0.60034   0.86850   0.00000  Uiso   1.00
C1284  C     0.24901   0.62639   0.74003   0.00000  Uiso   1.00
C1285  C     0.09055   0.37176   0.71567   0.00000  Uiso   1.00
C1286  C     0.18108   0.46400   0.82758   0.00000  Uiso   1.00
C1287  C     0.14075   0.55480   0.68725   0.00000  Uiso   1.00
C1288  C     0.09712   0.44049   0.80735   0.00000  Uiso   1.00
C1289  C     0.24089   0.54716   0.67682   0.00000  Uiso   1.00
C1290  C     0.23875   0.47238   0.52848   0.00000  Uiso   1.00
C1291  C     0.09077   0.44965   0.98956   0.00000  Uiso   1.00
C1292  C     0.28725   0.35290   0.75613   0.00000  Uiso   1.00
C1293  C     0.03578   0.64560   0.75818   0.00000  Uiso   1.00
C1294  C     0.29083   0.64527   0.74801   0.00000  Uiso   1.00
Cu1295 Cu    0.04689   0.50001   0.75000   0.00000  Uiso   1.00
Cu1296 Cu    0.28645   0.49999   0.75000   0.00000  Uiso   1.00
H1297  H     0.11203   0.46392   0.62292   0.00000  Uiso   1.00
H1298  H     0.31871   0.41248   0.98681   0.00000  Uiso   1.00
H1299  H     0.14965   0.38242   0.85046   0.00000  Uiso   1.00
H1300  H     0.14197   0.33521   0.82996   0.00000  Uiso   1.00
H1301  H     0.14729   0.33502   0.88450   0.00000  Uiso   1.00
H1302  H     0.22317   0.64809   0.83113   0.00000  Uiso   1.00
H1303  H     0.23370   0.36225   0.84780   0.00000  Uiso   1.00
H1304  H     0.22961   0.39860   0.77508   0.00000  Uiso   1.00
H1305  H     0.21095   0.35647   0.76127   0.00000  Uiso   1.00
H1306  H     0.07982   0.57695   0.85535   0.00000  Uiso   1.00
H1307  H     0.07219   0.62721   0.87371   0.00000  Uiso   1.00
H1308  H     0.21283   0.48160   0.89461   0.00000  Uiso   1.00
H1309  H     0.02628   0.58770   0.90159   0.00000  Uiso   1.00
H1310  H     0.00131   0.63694   0.84939   0.00000  Uiso   1.00
H1311  H     0.00476   0.58593   0.83436   0.00000  Uiso   1.00
H1312  H     0.08690   0.60399   0.77433   0.00000  Uiso   1.00
H1313  H     0.08614   0.65243   0.79322   0.00000  Uiso   1.00
H1314  H     0.18608   0.59249   0.76607   0.00000  Uiso   1.00
H1315  H     0.16347   0.36827   0.69795   0.00000  Uiso   1.00
H1316  H     0.21173   0.42655   0.86327   0.00000  Uiso   1.00
H1317  H     0.12928   0.61346   0.67095   0.00000  Uiso   1.00
H1318  H     0.04074   0.41963   0.86297   0.00000  Uiso   1.00
H1319  H     0.32860   0.52400   0.59787   0.00000  Uiso   1.00
H1320  H     0.26046   0.57118   0.61203   0.00000  Uiso   1.00
H1321  H     0.02169   0.51434   0.89011   0.00000  Uiso   1.00
H1322  H     0.32675   0.50621   0.97081   0.00000  Uiso   1.00
H1323  H     0.02078   0.49960   0.52320   0.00000  Uiso   1.00
H1324  H     0.18218   0.44808   0.58838   0.00000  Uiso   1.00
H1325  H     0.15200   0.43834   0.93191   0.00000  Uiso   1.00
H1326  H     0.26551   0.47904   0.61972   0.00000  Uiso   1.00
N1327  N     0.11736   0.50001   0.74999   0.00000  Uiso   1.00
N1328  N     0.21597   0.49999   0.75001   0.00000  Uiso   1.00
O1329  O     0.03958   0.43989   0.75000   0.00000  Uiso   1.00
O1330  O     0.26192   0.46353   0.59548   0.00000  Uiso   1.00
O1331  O     0.06552   0.42886   0.93303   0.00000  Uiso   1.00
O1332  O     0.00651   0.42427   0.50206   0.00000  Uiso   1.00
O1333  O     0.24157   0.63747   0.70531   0.00000  Uiso   1.00
O1334  O     0.21493   0.60049   0.77430   0.00000  Uiso   1.00
O1335  O     0.09517   0.40014   0.68642   0.00000  Uiso   1.00
O1336  O     0.13221   0.35393   0.71964   0.00000  Uiso   1.00
O1337  O     0.15004   0.47379   0.86144   0.00000  Uiso   1.00
O1338  O     0.21728   0.43838   0.83127   0.00000  Uiso   1.00
O1339  O     0.13828   0.54490   0.65237   0.00000  Uiso   1.00
O1340  O     0.29375   0.56011   0.75000   0.00000  Uiso   1.00
O1341  O     0.13685   0.59548   0.69524   0.00000  Uiso   1.00
O1342  O     0.10255   0.40706   0.79397   0.00000  Uiso   1.00
O1343  O     0.06179   0.44532   0.84880   0.00000  Uiso   1.00
O1344  O     0.27466   0.56567   0.68066   0.00000  Uiso   1.00
O1345  O     0.23597   0.55069   0.63473   0.00000  Uiso   1.00
O1346  O     0.29372   0.43988   0.75000   0.00000  Uiso   1.00
O1347  O     0.03961   0.56012   0.74999   0.00000  Uiso   1.00
O1348  O     0.01852   0.50001   0.81491   0.00000  Uiso   1.00
O1349  O     0.31481   0.49999   0.68508   0.00000  Uiso   1.00
O1350  O     0.27267   0.50000   0.81492   0.00000  Uiso   1.00
O1351  O     0.06067   0.50000   0.68508   0.00000  Uiso   1.00
O1352  O     0.27445   0.52438   0.55080   0.00000  Uiso   1.00
C1353  C     0.66610   0.42080   0.75021   0.00000  Uiso   1.00
C1354  C     0.37427   0.35413   0.74387   0.00000  Uiso   1.00
C1355  C     0.66441   0.62350   0.75205   0.00000  Uiso   1.00
C1356  C     0.66456   0.37586   0.74976   0.00000  Uiso   1.00
C1357  C     0.51103   0.47841   0.78366   0.00000  Uiso   1.00
C1358  C     0.48697   0.52476   0.71857   0.00000  Uiso   1.00
C1359  C     0.46367   0.47480   0.78042   0.00000  Uiso   1.00
C1360  C     0.53701   0.52289   0.71637   0.00000  Uiso   1.00
C1361  C     0.63770   0.49944   0.83604   0.00000  Uiso   1.00
C1362  C     0.36243   0.49866   0.66453   0.00000  Uiso   1.00
C1363  C     0.61966   0.49569   0.88596   0.00000  Uiso   1.00
C1364  C     0.66620   0.57895   0.75073   0.00000  Uiso   1.00
C1365  C     0.38168   0.49060   0.61732   0.00000  Uiso   1.00
C1366  C     0.63497   0.49801   0.95540   0.00000  Uiso   1.00
C1367  C     0.37103   0.48863   0.54636   0.00000  Uiso   1.00
C1368  C     0.65114   0.50352   0.90859   0.00000  Uiso   1.00
C1369  C     0.35760   0.50312   0.58814   0.00000  Uiso   1.00
C1370  C     0.57166   0.48233   0.91146   0.00000  Uiso   1.00
C1371  C     0.42498   0.47010   0.60094   0.00000  Uiso   1.00
C1372  C     0.55627   0.47183   0.95847   0.00000  Uiso   1.00
C1373  C     0.44217   0.46030   0.55614   0.00000  Uiso   1.00
C1374  C     0.58820   0.48096   0.98100   0.00000  Uiso   1.00
C1375  C     0.52607   0.45518   0.55240   0.00000  Uiso   1.00
C1376  C     0.41061   0.46416   0.53175   0.00000  Uiso   1.00
C1377  C     0.50792   0.45736   0.98441   0.00000  Uiso   1.00
C1378  C     0.49175   0.45474   0.53191   0.00000  Uiso   1.00
C1379  C     0.59526   0.48837   0.55707   0.00000  Uiso   1.00
C1380  C     0.38725   0.43460   0.97242   0.00000  Uiso   1.00
C1381  C     0.56844   0.36629   0.77857   0.00000  Uiso   1.00
C1382  C     0.54850   0.34748   0.82825   0.00000  Uiso   1.00
C1383  C     0.49347   0.35040   0.84950   0.00000  Uiso   1.00
C1384  C     0.39592   0.62827   0.78877   0.00000  Uiso   1.00
C1385  C     0.36000   0.61268   0.83595   0.00000  Uiso   1.00
C1386  C     0.47374   0.44757   0.96516   0.00000  Uiso   1.00
C1387  C     0.38644   0.60034   0.86850   0.00000  Uiso   1.00
C1388  C     0.58235   0.62639   0.74003   0.00000  Uiso   1.00
C1389  C     0.42388   0.37176   0.71567   0.00000  Uiso   1.00
C1390  C     0.51442   0.46400   0.82758   0.00000  Uiso   1.00
C1391  C     0.47409   0.55480   0.68725   0.00000  Uiso   1.00
C1392  C     0.43046   0.44049   0.80735   0.00000  Uiso   1.00
C1393  C     0.57423   0.54716   0.67682   0.00000  Uiso   1.00
C1394  C     0.57208   0.47238   0.52848   0.00000  Uiso   1.00
C1395  C     0.42411   0.44965   0.98956   0.00000  Uiso   1.00
C1396  C     0.62058   0.35290   0.75613   0.00000  Uiso   1.00
C1397  C     0.36911   0.64560   0.75818   0.00000  Uiso   1.00
C1398  C     0.62416   0.64527   0.74801   0.00000  Uiso   1.00
Cu1399 Cu    0.38022   0.50001   0.75000   0.00000  Uiso   1.00
Cu1400 Cu    0.61978   0.49999   0.75000   0.00000  Uiso   1.00
H1401  H     0.44536   0.46392   0.62292   0.00000  Uiso   1.00
H1402  H     0.65204   0.41248   0.98681   0.00000  Uiso   1.00
H1403  H     0.48298   0.38242   0.85046   0.00000  Uiso   1.00
H1404  H     0.47530   0.33521   0.82996   0.00000  Uiso   1.00
H1405  H     0.48062   0.33502   0.88450   0.00000  Uiso   1.00
H1406  H     0.55650   0.64809   0.83113   0.00000  Uiso   1.00
H1407  H     0.56704   0.36225   0.84780   0.00000  Uiso   1.00
H1408  H     0.56294   0.39860   0.77508   0.00000  Uiso   1.00
H1409  H     0.54429   0.35647   0.76127   0.00000  Uiso   1.00
H1410  H     0.41316   0.57695   0.85535   0.00000  Uiso   1.00
H1411  H     0.40552   0.62721   0.87371   0.00000  Uiso   1.00
H1412  H     0.54616   0.48160   0.89461   0.00000  Uiso   1.00
H1413  H     0.35961   0.58770   0.90159   0.00000  Uiso   1.00
H1414  H     0.33464   0.63694   0.84939   0.00000  Uiso   1.00
H1415  H     0.33810   0.58593   0.83436   0.00000  Uiso   1.00
H1416  H     0.42024   0.60399   0.77433   0.00000  Uiso   1.00
H1417  H     0.41947   0.65243   0.79322   0.00000  Uiso   1.00
H1418  H     0.51942   0.59249   0.76607   0.00000  Uiso   1.00
H1419  H     0.49680   0.36827   0.69795   0.00000  Uiso   1.00
H1420  H     0.54507   0.42655   0.86327   0.00000  Uiso   1.00
H1421  H     0.46262   0.61346   0.67095   0.00000  Uiso   1.00
H1422  H     0.37408   0.41963   0.86297   0.00000  Uiso   1.00
H1423  H     0.66193   0.52400   0.59787   0.00000  Uiso   1.00
H1424  H     0.59379   0.57118   0.61203   0.00000  Uiso   1.00
H1425  H     0.35502   0.51434   0.89011   0.00000  Uiso   1.00
H1426  H     0.66009   0.50621   0.97081   0.00000  Uiso   1.00
H1427  H     0.35411   0.49960   0.52320   0.00000  Uiso   1.00
H1428  H     0.51551   0.44808   0.58838   0.00000  Uiso   1.00
H1429  H     0.48534   0.43834   0.93191   0.00000  Uiso   1.00
H1430  H     0.59884   0.47904   0.61972   0.00000  Uiso   1.00
N1431  N     0.45069   0.50001   0.74999   0.00000  Uiso   1.00
N1432  N     0.54931   0.49999   0.75001   0.00000  Uiso   1.00
O1433  O     0.37291   0.43989   0.75000   0.00000  Uiso   1.00
O1434  O     0.59525   0.46353   0.59548   0.00000  Uiso   1.00
O1435  O     0.39886   0.42886   0.93303   0.00000  Uiso   1.00
O1436  O     0.33985   0.42427   0.50206   0.00000  Uiso   1.00
O1437  O     0.57491   0.63747   0.70531   0.00000  Uiso   1.00
O1438  O     0.54827   0.60049   0.77430   0.00000  Uiso   1.00
O1439  O     0.42851   0.40014   0.68642   0.00000  Uiso   1.00
O1440  O     0.46555   0.35393   0.71964   0.00000  Uiso   1.00
O1441  O     0.48337   0.47379   0.86144   0.00000  Uiso   1.00
O1442  O     0.55061   0.43838   0.83127   0.00000  Uiso   1.00
O1443  O     0.47161   0.54490   0.65237   0.00000  Uiso   1.00
O1444  O     0.62709   0.56011   0.75000   0.00000  Uiso   1.00
O1445  O     0.47018   0.59548   0.69524   0.00000  Uiso   1.00
O1446  O     0.43589   0.40706   0.79397   0.00000  Uiso   1.00
O1447  O     0.39512   0.44532   0.84880   0.00000  Uiso   1.00
O1448  O     0.60799   0.56567   0.68066   0.00000  Uiso   1.00
O1449  O     0.56931   0.55069   0.63473   0.00000  Uiso   1.00
O1450  O     0.62706   0.43988   0.75000   0.00000  Uiso   1.00
O1451  O     0.37294   0.56012   0.74999   0.00000  Uiso   1.00
O1452  O     0.35186   0.50001   0.81491   0.00000  Uiso   1.00
O1453  O     0.64814   0.49999   0.68508   0.00000  Uiso   1.00
O1454  O     0.60600   0.50000   0.81492   0.00000  Uiso   1.00
O1455  O     0.39400   0.50000   0.68508   0.00000  Uiso   1.00
O1456  O     0.60779   0.52438   0.55080   0.00000  Uiso   1.00
C1457  C     0.99944   0.42080   0.75021   0.00000  Uiso   1.00
C1458  C     0.70761   0.35413   0.74387   0.00000  Uiso   1.00
C1459  C     0.99775   0.62350   0.75205   0.00000  Uiso   1.00
C1460  C     0.99790   0.37586   0.74976   0.00000  Uiso   1.00
C1461  C     0.84436   0.47841   0.78366   0.00000  Uiso   1.00
C1462  C     0.82031   0.52476   0.71857   0.00000  Uiso   1.00
C1463  C     0.79701   0.47480   0.78042   0.00000  Uiso   1.00
C1464  C     0.87034   0.52289   0.71637   0.00000  Uiso   1.00
C1465  C     0.97104   0.49944   0.83604   0.00000  Uiso   1.00
C1466  C     0.69576   0.49866   0.66453   0.00000  Uiso   1.00
C1467  C     0.95299   0.49569   0.88596   0.00000  Uiso   1.00
C1468  C     0.99953   0.57895   0.75073   0.00000  Uiso   1.00
C1469  C     0.71501   0.49060   0.61732   0.00000  Uiso   1.00
C1470  C     0.96830   0.49801   0.95540   0.00000  Uiso   1.00
C1471  C     0.70436   0.48863   0.54636   0.00000  Uiso   1.00
C1472  C     0.98447   0.50352   0.90859   0.00000  Uiso   1.00
C1473  C     0.69093   0.50312   0.58814   0.00000  Uiso   1.00
C1474  C     0.90499   0.48233   0.91146   0.00000  Uiso   1.00
C1475  C     0.75831   0.47010   0.60094   0.00000  Uiso   1.00
C1476  C     0.88961   0.47183   0.95847   0.00000  Uiso   1.00
C1477  C     0.77550   0.46030   0.55614   0.00000  Uiso   1.00
C1478  C     0.92154   0.48096   0.98100   0.00000  Uiso   1.00
C1479  C     0.85941   0.45518   0.55240   0.00000  Uiso   1.00
C1480  C     0.74395   0.46416   0.53175   0.00000  Uiso   1.00
C1481  C     0.84125   0.45736   0.98441   0.00000  Uiso   1.00
C1482  C     0.82508   0.45474   0.53191   0.00000  Uiso   1.00
C1483  C     0.92859   0.48837   0.55707   0.00000  Uiso   1.00
C1484  C     0.72059   0.43460   0.97242   0.00000  Uiso   1.00
C1485  C     0.90178   0.36629   0.77857   0.00000  Uiso   1.00
C1486  C     0.88183   0.34748   0.82825   0.00000  Uiso   1.00
C1487  C     0.82680   0.35040   0.84950   0.00000  Uiso   1.00
C1488  C     0.72926   0.62827   0.78877   0.00000  Uiso   1.00
C1489  C     0.69334   0.61268   0.83595   0.00000  Uiso   1.00
C1490  C     0.80707   0.44757   0.96516   0.00000  Uiso   1.00
C1491  C     0.71977   0.60034   0.86850   0.00000  Uiso   1.00
C1492  C     0.91568   0.62639   0.74003   0.00000  Uiso   1.00
C1493  C     0.75722   0.37176   0.71567   0.00000  Uiso   1.00
C1494  C     0.84775   0.46400   0.82758   0.00000  Uiso   1.00
C1495  C     0.80742   0.55480   0.68725   0.00000  Uiso   1.00
C1496  C     0.76379   0.44049   0.80735   0.00000  Uiso   1.00
C1497  C     0.90756   0.54716   0.67682   0.00000  Uiso   1.00
C1498  C     0.90542   0.47238   0.52848   0.00000  Uiso   1.00
C1499  C     0.75744   0.44965   0.98956   0.00000  Uiso   1.00
C1500  C     0.95391   0.35290   0.75613   0.00000  Uiso   1.00
C1501  C     0.70244   0.64560   0.75818   0.00000  Uiso   1.00
C1502  C     0.95749   0.64527   0.74801   0.00000  Uiso   1.00
Cu1503 Cu    0.71355   0.50001   0.75000   0.00000  Uiso   1.00
Cu1504 Cu    0.95311   0.49999   0.75000   0.00000  Uiso   1.00
H1505  H     0.77869   0.46392   0.62292   0.00000  Uiso   1.00
H1506  H     0.98538   0.41248   0.98681   0.00000  Uiso   1.00
H1507  H     0.81632   0.38242   0.85046   0.00000  Uiso   1.00
H1508  H     0.80864   0.33521   0.82996   0.00000  Uiso   1.00
H1509  H     0.81396   0.33502   0.88450   0.00000  Uiso   1.00
H1510  H     0.88984   0.64809   0.83113   0.00000  Uiso   1.00
H1511  H     0.90037   0.36225   0.84780   0.00000  Uiso   1.00
H1512  H     0.89627   0.39860   0.77508   0.00000  Uiso   1.00
H1513  H     0.87762   0.35647   0.76127   0.00000  Uiso   1.00
H1514  H     0.74649   0.57695   0.85535   0.00000  Uiso   1.00
H1515  H     0.73885   0.62721   0.87371   0.00000  Uiso   1.00
H1516  H     0.87949   0.48160   0.89461   0.00000  Uiso   1.00
H1517  H     0.69295   0.58770   0.90159   0.00000  Uiso   1.00
H1518  H     0.66798   0.63694   0.84939   0.00000  Uiso   1.00
H1519  H     0.67143   0.58593   0.83436   0.00000  Uiso   1.00
H1520  H     0.75357   0.60399   0.77433   0.00000  Uiso   1.00
H1521  H     0.75281   0.65243   0.79322   0.00000  Uiso   1.00
H1522  H     0.85275   0.59249   0.76607   0.00000  Uiso   1.00
H1523  H     0.83013   0.36827   0.69795   0.00000  Uiso   1.00
H1524  H     0.87840   0.42655   0.86327   0.00000  Uiso   1.00
H1525  H     0.79595   0.61346   0.67095   0.00000  Uiso   1.00
H1526  H     0.70741   0.41963   0.86297   0.00000  Uiso   1.00
H1527  H     0.99526   0.52400   0.59787   0.00000  Uiso   1.00
H1528  H     0.92712   0.57118   0.61203   0.00000  Uiso   1.00
H1529  H     0.68835   0.51434   0.89011   0.00000  Uiso   1.00
H1530  H     0.99342   0.50621   0.97081   0.00000  Uiso   1.00
H1531  H     0.68745   0.49960   0.52320   0.00000  Uiso   1.00
H1532  H     0.84885   0.44808   0.58838   0.00000  Uiso   1.00
H1533  H     0.81867   0.43834   0.93191   0.00000  Uiso   1.00
H1534  H     0.93218   0.47904   0.61972   0.00000  Uiso   1.00
N1535  N     0.78403   0.50001   0.74999   0.00000  Uiso   1.00
N1536  N     0.88264   0.49999   0.75001   0.00000  Uiso   1.00
O1537  O     0.70625   0.43989   0.75000   0.00000  Uiso   1.00
O1538  O     0.92858   0.46353   0.59548   0.00000  Uiso   1.00
O1539  O     0.73219   0.42886   0.93303   0.00000  Uiso   1.00
O1540  O     0.67318   0.42427   0.50206   0.00000  Uiso   1.00
O1541  O     0.90824   0.63747   0.70531   0.00000  Uiso   1.00
O1542  O     0.88160   0.60049   0.77430   0.00000  Uiso   1.00
O1543  O     0.76184   0.40014   0.68642   0.00000  Uiso   1.00
O1544  O     0.79888   0.35393   0.71964   0.00000  Uiso   1.00
O1545  O     0.81670   0.47379   0.86144   0.00000  Uiso   1.00
O1546  O     0.88395   0.43838   0.83127   0.00000  Uiso   1.00
O1547  O     0.80495   0.54490   0.65237   0.00000  Uiso   1.00
O1548  O     0.96042   0.56011   0.75000   0.00000  Uiso   1.00
O1549  O     0.80351   0.59548   0.69524   0.00000  Uiso   1.00
O1550  O     0.76922   0.40706   0.79397   0.00000  Uiso   1.00
O1551  O     0.72846   0.44532   0.84880   0.00000  Uiso   1.00
O1552  O     0.94133   0.56567   0.68066   0.00000  Uiso   1.00
O1553  O     0.90264   0.55069   0.63473   0.00000  Uiso   1.00
O1554  O     0.96039   0.43988   0.75000   0.00000  Uiso   1.00
O1555  O     0.70628   0.56012   0.74999   0.00000  Uiso   1.00
O1556  O     0.68519   0.50001   0.81491   0.00000  Uiso   1.00
O1557  O     0.98148   0.49999   0.68508   0.00000  Uiso   1.00
O1558  O     0.93933   0.50000   0.81492   0.00000  Uiso   1.00
O1559  O     0.72733   0.50000   0.68508   0.00000  Uiso   1.00
O1560  O     0.94112   0.52438   0.55080   0.00000  Uiso   1.00
C1561  C     0.33277   0.75413   0.75021   0.00000  Uiso   1.00
C1562  C     0.04094   0.68746   0.74387   0.00000  Uiso   1.00
C1563  C     0.33108   0.95684   0.75205   0.00000  Uiso   1.00
C1564  C     0.33123   0.70920   0.74976   0.00000  Uiso   1.00
C1565  C     0.17769   0.81174   0.78366   0.00000  Uiso   1.00
C1566  C     0.15364   0.85809   0.71857   0.00000  Uiso   1.00
C1567  C     0.13034   0.80813   0.78042   0.00000  Uiso   1.00
C1568  C     0.20368   0.85623   0.71637   0.00000  Uiso   1.00
C1569  C     0.30437   0.83278   0.83604   0.00000  Uiso   1.00
C1570  C     0.02909   0.83199   0.66453   0.00000  Uiso   1.00
C1571  C     0.28633   0.82902   0.88596   0.00000  Uiso   1.00
C1572  C     0.33287   0.91228   0.75073   0.00000  Uiso   1.00
C1573  C     0.04834   0.82393   0.61732   0.00000  Uiso   1.00
C1574  C     0.30164   0.83134   0.95540   0.00000  Uiso   1.00
C1575  C     0.03769   0.82197   0.54636   0.00000  Uiso   1.00
C1576  C     0.31781   0.83685   0.90859   0.00000  Uiso   1.00
C1577  C     0.02426   0.83645   0.58814   0.00000  Uiso   1.00
C1578  C     0.23832   0.81566   0.91146   0.00000  Uiso   1.00
C1579  C     0.09165   0.80343   0.60094   0.00000  Uiso   1.00
C1580  C     0.22294   0.80517   0.95847   0.00000  Uiso   1.00
C1581  C     0.10884   0.79363   0.55614   0.00000  Uiso   1.00
C1582  C     0.25487   0.81429   0.98100   0.00000  Uiso   1.00
C1583  C     0.19274   0.78852   0.55240   0.00000  Uiso   1.00
C1584  C     0.07728   0.79750   0.53175   0.00000  Uiso   1.00
C1585  C     0.17459   0.79069   0.98441   0.00000  Uiso   1.00
C1586  C     0.15841   0.78808   0.53191   0.00000  Uiso   1.00
C1587  C     0.26192   0.82171   0.55707   0.00000  Uiso   1.00
C1588  C     0.05392   0.76793   0.97242   0.00000  Uiso   1.00
C1589  C     0.23511   0.69962   0.77857   0.00000  Uiso   1.00
C1590  C     0.21516   0.68081   0.82825   0.00000  Uiso   1.00
C1591  C     0.16013   0.68373   0.84950   0.00000  Uiso   1.00
C1592  C     0.06259   0.96160   0.78877   0.00000  Uiso   1.00
C1593  C     0.02667   0.94602   0.83595   0.00000  Uiso   1.00
C1594  C     0.14041   0.78091   0.96516   0.00000  Uiso   1.00
C1595  C     0.05310   0.93368   0.86850   0.00000  Uiso   1.00
C1596  C     0.24901   0.95972   0.74003   0.00000  Uiso   1.00
C1597  C     0.09055   0.70509   0.71567   0.00000  Uiso   1.00
C1598  C     0.18108   0.79733   0.82758   0.00000  Uiso   1.00
C1599  C     0.14075   0.88814   0.68725   0.00000  Uiso   1.00
C1600  C     0.09712   0.77383   0.80735   0.00000  Uiso   1.00
C1601  C     0.24089   0.88049   0.67682   0.00000  Uiso   1.00
C1602  C     0.23875   0.80571   0.52848   0.00000  Uiso   1.00
C1603  C     0.09077   0.78298   0.98956   0.00000  Uiso   1.00
C1604  C     0.28725   0.68624   0.75613   0.00000  Uiso   1.00
C1605  C     0.03578   0.97894   0.75818   0.00000  Uiso   1.00
C1606  C     0.29083   0.97860   0.74801   0.00000  Uiso   1.00
Cu1607 Cu    0.04689   0.83334   0.75000   0.00000  Uiso   1.00
Cu1608 Cu    0.28645   0.83333   0.75000   0.00000  Uiso   1.00
H1609  H     0.11203   0.79726   0.62292   0.00000  Uiso   1.00
H1610  H     0.31871   0.74581   0.98681   0.00000  Uiso   1.00
H1611  H     0.14965   0.71576   0.85046   0.00000  Uiso   1.00
H1612  H     0.14197   0.66854   0.82996   0.00000  Uiso   1.00
H1613  H     0.14729   0.66835   0.88450   0.00000  Uiso   1.00
H1614  H     0.22317   0.98142   0.83113   0.00000  Uiso   1.00
H1615  H     0.23370   0.69559   0.84780   0.00000  Uiso   1.00
H1616  H     0.22961   0.73193   0.77508   0.00000  Uiso   1.00
H1617  H     0.21095   0.68981   0.76127   0.00000  Uiso   1.00
H1618  H     0.07982   0.91028   0.85535   0.00000  Uiso   1.00
H1619  H     0.07219   0.96054   0.87371   0.00000  Uiso   1.00
H1620  H     0.21283   0.81493   0.89461   0.00000  Uiso   1.00
H1621  H     0.02628   0.92103   0.90159   0.00000  Uiso   1.00
H1622  H     0.00131   0.97027   0.84939   0.00000  Uiso   1.00
H1623  H     0.00476   0.91927   0.83436   0.00000  Uiso   1.00
H1624  H     0.08690   0.93733   0.77433   0.00000  Uiso   1.00
H1625  H     0.08614   0.98576   0.79322   0.00000  Uiso   1.00
H1626  H     0.18608   0.92583   0.76607   0.00000  Uiso   1.00
H1627  H     0.16347   0.70160   0.69795   0.00000  Uiso   1.00
H1628  H     0.21173   0.75988   0.86327   0.00000  Uiso   1.00
H1629  H     0.12928   0.94680   0.67095   0.00000  Uiso   1.00
H1630  H     0.04074   0.75296   0.86297   0.00000  Uiso   1.00
H1631  H     0.32860   0.85733   0.59787   0.00000  Uiso   1.00
H1632  H     0.26046   0.90451   0.61203   0.00000  Uiso   1.00
H1633  H     0.02169   0.84768   0.89011   0.00000  Uiso   1.00
H1634  H     0.32675   0.83954   0.97081   0.00000  Uiso   1.00
H1635  H     0.02078   0.83293   0.52320   0.00000  Uiso   1.00
H1636  H     0.18218   0.78142   0.58838   0.00000  Uiso   1.00
H1637  H     0.15200   0.77168   0.93191   0.00000  Uiso   1.00
H1638  H     0.26551   0.81237   0.61972   0.00000  Uiso   1.00
N1639  N     0.11736   0.83334   0.74999   0.00000  Uiso   1.00
N1640  N     0.21597   0.83332   0.75001   0.00000  Uiso   1.00
O1641  O     0.03958   0.77322   0.75000   0.00000  Uiso   1.00
O1642  O     0.26192   0.79687   0.59548   0.00000  Uiso   1.00
O1643  O     0.06552   0.76220   0.93303   0.00000  Uiso   1.00
O1644  O     0.00651   0.75760   0.50206   0.00000  Uiso   1.00
O1645  O     0.24157   0.97080   0.70531   0.00000  Uiso   1.00
O1646  O     0.21493   0.93383   0.77430   0.00000  Uiso   1.00
O1647  O     0.09517   0.73347   0.68642   0.00000  Uiso   1.00
O1648  O     0.13221   0.68726   0.71964   0.00000  Uiso   1.00
O1649  O     0.15004   0.80712   0.86144   0.00000  Uiso   1.00
O1650  O     0.21728   0.77171   0.83127   0.00000  Uiso   1.00
O1651  O     0.13828   0.87823   0.65237   0.00000  Uiso   1.00
O1652  O     0.29375   0.89345   0.75000   0.00000  Uiso   1.00
O1653  O     0.13685   0.92882   0.69524   0.00000  Uiso   1.00
O1654  O     0.10255   0.74039   0.79397   0.00000  Uiso   1.00
O1655  O     0.06179   0.77866   0.84880   0.00000  Uiso   1.00
O1656  O     0.27466   0.89900   0.68066   0.00000  Uiso   1.00
O1657  O     0.23597   0.88402   0.63473   0.00000  Uiso   1.00
O1658  O     0.29372   0.77321   0.75000   0.00000  Uiso   1.00
O1659  O     0.03961   0.89346   0.74999   0.00000  Uiso   1.00
O1660  O     0.01852   0.83334   0.81491   0.00000  Uiso   1.00
O1661  O     0.31481   0.83332   0.68508   0.00000  Uiso   1.00
O1662  O     0.27267   0.83333   0.81492   0.00000  Uiso   1.00
O1663  O     0.06067   0.83333   0.68508   0.00000  Uiso   1.00
O1664  O     0.27445   0.85771   0.55080   0.00000  Uiso   1.00
C1665  C     0.66610   0.75413   0.75021   0.00000  Uiso   1.00
C1666  C     0.37427   0.68746   0.74387   0.00000  Uiso   1.00
C1667  C     0.66441   0.95684   0.75205   0.00000  Uiso   1.00
C1668  C     0.66456   0.70920   0.74976   0.00000  Uiso   1.00
C1669  C     0.51103   0.81174   0.78366   0.00000  Uiso   1.00
C1670  C     0.48697   0.85809   0.71857   0.00000  Uiso   1.00
C1671  C     0.46367   0.80813   0.78042   0.00000  Uiso   1.00
C1672  C     0.53701   0.85623   0.71637   0.00000  Uiso   1.00
C1673  C     0.63770   0.83278   0.83604   0.00000  Uiso   1.00
C1674  C     0.36243   0.83199   0.66453   0.00000  Uiso   1.00
C1675  C     0.61966   0.82902   0.88596   0.00000  Uiso   1.00
C1676  C     0.66620   0.91228   0.75073   0.00000  Uiso   1.00
C1677  C     0.38168   0.82393   0.61732   0.00000  Uiso   1.00
C1678  C     0.63497   0.83134   0.95540   0.00000  Uiso   1.00
C1679  C     0.37103   0.82197   0.54636   0.00000  Uiso   1.00
C1680  C     0.65114   0.83685   0.90859   0.00000  Uiso   1.00
C1681  C     0.35760   0.83645   0.58814   0.00000  Uiso   1.00
C1682  C     0.57166   0.81566   0.91146   0.00000  Uiso   1.00
C1683  C     0.42498   0.80343   0.60094   0.00000  Uiso   1.00
C1684  C     0.55627   0.80517   0.95847   0.00000  Uiso   1.00
C1685  C     0.44217   0.79363   0.55614   0.00000  Uiso   1.00
C1686  C     0.58820   0.81429   0.98100   0.00000  Uiso   1.00
C1687  C     0.52607   0.78852   0.55240   0.00000  Uiso   1.00
C1688  C     0.41061   0.79750   0.53175   0.00000  Uiso   1.00
C1689  C     0.50792   0.79069   0.98441   0.00000  Uiso   1.00
C1690  C     0.49175   0.78808   0.53191   0.00000  Uiso   1.00
C1691  C     0.59526   0.82171   0.55707   0.00000  Uiso   1.00
C1692  C     0.38725   0.76793   0.97242   0.00000  Uiso   1.00
C1693  C     0.56844   0.69962   0.77857   0.00000  Uiso   1.00
C1694  C     0.54850   0.68081   0.82825   0.00000  Uiso   1.00
C1695  C     0.49347   0.68373   0.84950   0.00000  Uiso   1.00
C1696  C     0.39592   0.96160   0.78877   0.00000  Uiso   1.00
C1697  C     0.36000   0.94602   0.83595   0.00000  Uiso   1.00
C1698  C     0.47374   0.78091   0.96516   0.00000  Uiso   1.00
C1699  C     0.38644   0.93368   0.86850   0.00000  Uiso   1.00
C1700  C     0.58235   0.95972   0.74003   0.00000  Uiso   1.00
C1701  C     0.42388   0.70509   0.71567   0.00000  Uiso   1.00
C1702  C     0.51442   0.79733   0.82758   0.00000  Uiso   1.00
C1703  C     0.47409   0.88814   0.68725   0.00000  Uiso   1.00
C1704  C     0.43046   0.77383   0.80735   0.00000  Uiso   1.00
C1705  C     0.57423   0.88049   0.67682   0.00000  Uiso   1.00
C1706  C     0.57208   0.80571   0.52848   0.00000  Uiso   1.00
C1707  C     0.42411   0.78298   0.98956   0.00000  Uiso   1.00
C1708  C     0.62058   0.68624   0.75613   0.00000  Uiso   1.00
C1709  C     0.36911   0.97894   0.75818   0.00000  Uiso   1.00
C1710  C     0.62416   0.97860   0.74801   0.00000  Uiso   1.00
Cu1711 Cu    0.38022   0.83334   0.75000   0.00000  Uiso   1.00
Cu1712 Cu    0.61978   0.83333   0.75000   0.00000  Uiso   1.00
H1713  H     0.44536   0.79726   0.62292   0.00000  Uiso   1.00
H1714  H     0.65204   0.74581   0.98681   0.00000  Uiso   1.00
H1715  H     0.48298   0.71576   0.85046   0.00000  Uiso   1.00
H1716  H     0.47530   0.66854   0.82996   0.00000  Uiso   1.00
H1717  H     0.48062   0.66835   0.88450   0.00000  Uiso   1.00
H1718  H     0.55650   0.98142   0.83113   0.00000  Uiso   1.00
H1719  H     0.56704   0.69559   0.84780   0.00000  Uiso   1.00
H1720  H     0.56294   0.73193   0.77508   0.00000  Uiso   1.00
H1721  H     0.54429   0.68981   0.76127   0.00000  Uiso   1.00
H1722  H     0.41316   0.91028   0.85535   0.00000  Uiso   1.00
H1723  H     0.40552   0.96054   0.87371   0.00000  Uiso   1.00
H1724  H     0.54616   0.81493   0.89461   0.00000  Uiso   1.00
H1725  H     0.35961   0.92103   0.90159   0.00000  Uiso   1.00
H1726  H     0.33464   0.97027   0.84939   0.00000  Uiso   1.00
H1727  H     0.33810   0.91927   0.83436   0.00000  Uiso   1.00
H1728  H     0.42024   0.93733   0.77433   0.00000  Uiso   1.00
H1729  H     0.41947   0.98576   0.79322   0.00000  Uiso   1.00
H1730  H     0.51942   0.92583   0.76607   0.00000  Uiso   1.00
H1731  H     0.49680   0.70160   0.69795   0.00000  Uiso   1.00
H1732  H     0.54507   0.75988   0.86327   0.00000  Uiso   1.00
H1733  H     0.46262   0.94680   0.67095   0.00000  Uiso   1.00
H1734  H     0.37408   0.75296   0.86297   0.00000  Uiso   1.00
H1735  H     0.66193   0.85733   0.59787   0.00000  Uiso   1.00
H1736  H     0.59379   0.90451   0.61203   0.00000  Uiso   1.00
H1737  H     0.35502   0.84768   0.89011   0.00000  Uiso   1.00
H1738  H     0.66009   0.83954   0.97081   0.00000  Uiso   1.00
H1739  H     0.35411   0.83293   0.52320   0.00000  Uiso   1.00
H1740  H     0.51551   0.78142   0.58838   0.00000  Uiso   1.00
H1741  H     0.48534   0.77168   0.93191   0.00000  Uiso   1.00
H1742  H     0.59884   0.81237   0.61972   0.00000  Uiso   1.00
N1743  N     0.45069   0.83334   0.74999   0.00000  Uiso   1.00
N1744  N     0.54931   0.83332   0.75001   0.00000  Uiso   1.00
O1745  O     0.37291   0.77322   0.75000   0.00000  Uiso   1.00
O1746  O     0.59525   0.79687   0.59548   0.00000  Uiso   1.00
O1747  O     0.39886   0.76220   0.93303   0.00000  Uiso   1.00
O1748  O     0.33985   0.75760   0.50206   0.00000  Uiso   1.00
O1749  O     0.57491   0.97080   0.70531   0.00000  Uiso   1.00
O1750  O     0.54827   0.93383   0.77430   0.00000  Uiso   1.00
O1751  O     0.42851   0.73347   0.68642   0.00000  Uiso   1.00
O1752  O     0.46555   0.68726   0.71964   0.00000  Uiso   1.00
O1753  O     0.48337   0.80712   0.86144   0.00000  Uiso   1.00
O1754  O     0.55061   0.77171   0.83127   0.00000  Uiso   1.00
O1755  O     0.47161   0.87823   0.65237   0.00000  Uiso   1.00
O1756  O     0.62709   0.89345   0.75000   0.00000  Uiso   1.00
O1757  O     0.47018   0.92882   0.69524   0.00000  Uiso   1.00
O1758  O     0.43589   0.74039   0.79397   0.00000  Uiso   1.00
O1759  O     0.39512   0.77866   0.84880   0.00000  Uiso   1.00
O1760  O     0.60799   0.89900   0.68066   0.00000  Uiso   1.00
O1761  O     0.56931   0.88402   0.63473   0.00000  Uiso   1.00
O1762  O     0.62706   0.77321   0.75000   0.00000  Uiso   1.00
O1763  O     0.37294   0.89346   0.74999   0.00000  Uiso   1.00
O1764  O     0.35186   0.83334   0.81491   0.00000  Uiso   1.00
O1765  O     0.64814   0.83332   0.68508   0.00000  Uiso   1.00
O1766  O     0.60600   0.83333   0.81492   0.00000  Uiso   1.00
O1767  O     0.39400   0.83333   0.68508   0.00000  Uiso   1.00
O1768  O     0.60779   0.85771   0.55080   0.00000  Uiso   1.00
C1769  C     0.99944   0.75413   0.75021   0.00000  Uiso   1.00
C1770  C     0.70761   0.68746   0.74387   0.00000  Uiso   1.00
C1771  C     0.99775   0.95684   0.75205   0.00000  Uiso   1.00
C1772  C     0.99790   0.70920   0.74976   0.00000  Uiso   1.00
C1773  C     0.84436   0.81174   0.78366   0.00000  Uiso   1.00
C1774  C     0.82031   0.85809   0.71857   0.00000  Uiso   1.00
C1775  C     0.79701   0.80813   0.78042   0.00000  Uiso   1.00
C1776  C     0.87034   0.85623   0.71637   0.00000  Uiso   1.00
C1777  C     0.97104   0.83278   0.83604   0.00000  Uiso   1.00
C1778  C     0.69576   0.83199   0.66453   0.00000  Uiso   1.00
C1779  C     0.95299   0.82902   0.88596   0.00000  Uiso   1.00
C1780  C     0.99953   0.91228   0.75073   0.00000  Uiso   1.00
C1781  C     0.71501   0.82393   0.61732   0.00000  Uiso   1.00
C1782  C     0.96830   0.83134   0.95540   0.00000  Uiso   1.00
C1783  C     0.70436   0.82197   0.54636   0.00000  Uiso   1.00
C1784  C     0.98447   0.83685   0.90859   0.00000  Uiso   1.00
C1785  C     0.69093   0.83645   0.58814   0.00000  Uiso   1.00
C1786  C     0.90499   0.81566   0.91146   0.00000  Uiso   1.00
C1787  C     0.75831   0.80343   0.60094   0.00000  Uiso   1.00
C1788  C     0.88961   0.80517   0.95847   0.00000  Uiso   1.00
C1789  C     0.77550   0.79363   0.55614   0.00000  Uiso   1.00
C1790  C     0.92154   0.81429   0.98100   0.00000  Uiso   1.00
C1791  C     0.85941   0.78852   0.55240   0.00000  Uiso   1.00
C1792  C     0.74395   0.79750   0.53175   0.00000  Uiso   1.00
C1793  C     0.84125   0.79069   0.98441   0.00000  Uiso   1.00
C1794  C     0.82508   0.78808   0.53191   0.00000  Uiso   1.00
C1795  C     0.92859   0.82171   0.55707   0.00000  Uiso   1.00
C1796  C     0.72059   0.76793   0.97242   0.00000  Uiso   1.00
C1797  C     0.90178   0.69962   0.77857   0.00000  Uiso   1.00
C1798  C     0.88183   0.68081   0.82825   0.00000  Uiso   1.00
C1799  C     0.82680   0.68373   0.84950   0.00000  Uiso   1.00
C1800  C     0.72926   0.96160   0.78877   0.00000  Uiso   1.00
C1801  C     0.69334   0.94602   0.83595   0.00000  Uiso   1.00
C1802  C     0.80707   0.78091   0.96516   0.00000  Uiso   1.00
C1803  C     0.71977   0.93368   0.86850   0.00000  Uiso   1.00
C1804  C     0.91568   0.95972   0.74003   0.00000  Uiso   1.00
C1805  C     0.75722   0.70509   0.71567   0.00000  Uiso   1.00
C1806  C     0.84775   0.79733   0.82758   0.00000  Uiso   1.00
C1807  C     0.80742   0.88814   0.68725   0.00000  Uiso   1.00
C1808  C     0.76379   0.77383   0.80735   0.00000  Uiso   1.00
C1809  C     0.90756   0.88049   0.67682   0.00000  Uiso   1.00
C1810  C     0.90542   0.80571   0.52848   0.00000  Uiso   1.00
C1811  C     0.75744   0.78298   0.98956   0.00000  Uiso   1.00
C1812  C     0.95391   0.68624   0.75613   0.00000  Uiso   1.00
C1813  C     0.70244   0.97894   0.75818   0.00000  Uiso   1.00
C1814  C     0.95749   0.97860   0.74801   0.00000  Uiso   1.00
Cu1815 Cu    0.71355   0.83334   0.75000   0.00000  Uiso   1.00
Cu1816 Cu    0.95311   0.83333   0.75000   0.00000  Uiso   1.00
H1817  H     0.77869   0.79726   0.62292   0.00000  Uiso   1.00
H1818  H     0.98538   0.74581   0.98681   0.00000  Uiso   1.00
H1819  H     0.81632   0.71576   0.85046   0.00000  Uiso   1.00
H1820  H     0.80864   0.66854   0.82996   0.00000  Uiso   1.00
H1821  H     0.81396   0.66835   0.88450   0.00000  Uiso   1.00
H1822  H     0.88984   0.98142   0.83113   0.00000  Uiso   1.00
H1823  H     0.90037   0.69559   0.84780   0.00000  Uiso   1.00
H1824  H     0.89627   0.73193   0.77508   0.00000  Uiso   1.00
H1825  H     0.87762   0.68981   0.76127   0.00000  Uiso   1.00
H1826  H     0.74649   0.91028   0.85535   0.00000  Uiso   1.00
H1827  H     0.73885   0.96054   0.87371   0.00000  Uiso   1.00
H1828  H     0.87949   0.81493   0.89461   0.00000  Uiso   1.00
H1829  H     0.69295   0.92103   0.90159   0.00000  Uiso   1.00
H1830  H     0.66798   0.97027   0.84939   0.00000  Uiso   1.00
H1831  H     0.67143   0.91927   0.83436   0.00000  Uiso   1.00
H1832  H     0.75357   0.93733   0.77433   0.00000  Uiso   1.00
H1833  H     0.75281   0.98576   0.79322   0.00000  Uiso   1.00
H1834  H     0.85275   0.92583   0.76607   0.00000  Uiso   1.00
H1835  H     0.83013   0.70160   0.69795   0.00000  Uiso   1.00
H1836  H     0.87840   0.75988   0.86327   0.00000  Uiso   1.00
H1837  H     0.79595   0.94680   0.67095   0.00000  Uiso   1.00
H1838  H     0.70741   0.75296   0.86297   0.00000  Uiso   1.00
H1839  H     0.99526   0.85733   0.59787   0.00000  Uiso   1.00
H1840  H     0.92712   0.90451   0.61203   0.00000  Uiso   1.00
H1841  H     0.68835   0.84768   0.89011   0.00000  Uiso   1.00
H1842  H     0.99342   0.83954   0.97081   0.00000  Uiso   1.00
H1843  H     0.68745   0.83293   0.52320   0.00000  Uiso   1.00
H1844  H     0.84885   0.78142   0.58838   0.00000  Uiso   1.00
H1845  H     0.81867   0.77168   0.93191   0.00000  Uiso   1.00
H1846  H     0.93218   0.81237   0.61972   0.00000  Uiso   1.00
N1847  N     0.78403   0.83334   0.74999   0.00000  Uiso   1.00
N1848  N     0.88264   0.83332   0.75001   0.00000  Uiso   1.00
O1849  O     0.70625   0.77322   0.75000   0.00000  Uiso   1.00
O1850  O     0.92858   0.79687   0.59548   0.00000  Uiso   1.00
O1851  O     0.73219   0.76220   0.93303   0.00000  Uiso   1.00
O1852  O     0.67318   0.75760   0.50206   0.00000  Uiso   1.00
O1853  O     0.90824   0.97080   0.70531   0.00000  Uiso   1.00
O1854  O     0.88160   0.93383   0.77430   0.00000  Uiso   1.00
O1855  O     0.76184   0.73347   0.68642   0.00000  Uiso   1.00
O1856  O     0.79888   0.68726   0.71964   0.00000  Uiso   1.00
O1857  O     0.81670   0.80712   0.86144   0.00000  Uiso   1.00
O1858  O     0.88395   0.77171   0.83127   0.00000  Uiso   1.00
O1859  O     0.80495   0.87823   0.65237   0.00000  Uiso   1.00
O1860  O     0.96042   0.89345   0.75000   0.00000  Uiso   1.00
O1861  O     0.80351   0.92882   0.69524   0.00000  Uiso   1.00
O1862  O     0.76922   0.74039   0.79397   0.00000  Uiso   1.00
O1863  O     0.72846   0.77866   0.84880   0.00000  Uiso   1.00
O1864  O     0.94133   0.89900   0.68066   0.00000  Uiso   1.00
O1865  O     0.90264   0.88402   0.63473   0.00000  Uiso   1.00
O1866  O     0.96039   0.77321   0.75000   0.00000  Uiso   1.00
O1867  O     0.70628   0.89346   0.74999   0.00000  Uiso   1.00
O1868  O     0.68519   0.83334   0.81491   0.00000  Uiso   1.00
O1869  O     0.98148   0.83332   0.68508   0.00000  Uiso   1.00
O1870  O     0.93933   0.83333   0.81492   0.00000  Uiso   1.00
O1871  O     0.72733   0.83333   0.68508   0.00000  Uiso   1.00
O1872  O     0.94112   0.85771   0.55080   0.00000  Uiso   1.00
loop_
_geom_bond_atom_site_label_1
_geom_bond_atom_site_label_2
_geom_bond_distance
_geom_bond_site_symmetry_2
_ccdc_geom_bond_type
C1     O98     1.312   .     A
C1     C4      1.490   .     S
C1     O185    1.334   .     S
C2     C37     1.495   .     S
C2     C212    1.420   1_455 S
C2     C669    1.402   1_545 S
C3     C12     1.481   .     S
C3     C46     1.423   .     A
C3     C149    1.415   .     S
C4     C44     1.437   .     A
C4     C106    1.420   .     S
C5     C38     1.470   .     S
C5     C7      1.436   .     A
C5     N80     1.383   .     A
C6     C8      1.448   .     A
C6     N79     1.372   .     A
C6     C39     1.479   .     S
C7     C40     1.475   .     S
C7     N79     1.369   .     A
C8     C41     1.498   .     S
C8     N80     1.399   .     A
C9     O102    1.327   .     A
C9     C11     1.485   .     S
C9     O204    1.318   .     S
C10    O103    1.314   .     A
C10    C13     1.469   .     S
C10    O309    1.323   1_455 S
C11    C18     1.400   .     A
C11    C16     1.398   .     A
C12    O92     1.314   .     A
C12    O203    1.327   .     S
C13    C19     1.402   .     A
C13    C17     1.386   .     A
C14    H74     1.069   .     S
C14    C16     1.393   .     A
C14    C22     1.408   .     A
C15    H75     1.061   .     S
C15    C24     1.390   .     A
C15    C17     1.393   .     A
C16    H177    1.082   .     S
C17    H279    1.079   1_455 S
C18    C20     1.412   .     A
C18    H60     1.066   .     S
C19    C21     1.416   .     A
C19    H49     1.076   .     S
C20    C25     1.420   .     A
C20    C22     1.417   .     A
C21    C26     1.412   .     A
C21    C24     1.403   .     A
C22    C978    1.418   .     S
C23    C42     1.382   .     A
C23    C26     1.382   .     A
C23    H76     1.079   .     S
C24    C979    1.405   1_554 S
C25    C34     1.402   .     A
C25    C962    1.416   .     S
C26    C961    1.416   1_554 S
C27    O104    1.221   .     D
C27    O82     1.402   .     S
C27    C42     1.455   .     S
C28    O83     1.220   .     D
C28    C43     1.481   .     S
C28    O1020   1.398   .     S
C29    C30     1.544   .     S
C29    C44     1.535   .     S
C29    H57     1.108   .     S
C29    H56     1.082   .     S
C30    C31     1.525   .     S
C30    H55     1.109   .     S
C30    H678    1.110   1_545 S
C31    H52     1.108   .     S
C31    H53     1.110   .     S
C31    H51     1.106   .     S
C32    C45     1.525   .     S
C32    H64     1.105   .     S
C32    C33     1.538   .     S
C32    H65     1.109   .     S
C33    H62     1.112   .     S
C33    H63     1.110   .     S
C33    C35     1.526   .     S
C34    H77     1.075   .     S
C34    C43     1.397   .     A
C35    H58     1.111   .     S
C35    H59     1.108   .     S
C35    H61     1.110   .     S
C36    C46     1.488   .     S
C36    O86     1.400   .     S
C36    O85     1.223   .     D
C37    O88     1.399   .     S
C37    O87     1.223   .     D
C38    O89     1.222   .     D
C38    O90     1.390   .     S
C39    O93     1.396   .     S
C39    O91     1.222   .     D
C40    O94     1.221   .     D
C40    O95     1.393   .     S
C41    O96     1.214   .     D
C41    O97     1.395   .     S
C42    C958    1.418   1_554 S
C43    C960    1.405   .     S
C44    C670    1.406   1_545 S
C45    C211    1.415   1_455 S
C45    C314    1.402   .     S
C46    C356    1.406   .     S
Cu47   N79     2.069   .     S
Cu47   O99     2.002   .     S
Cu47   O103    1.970   .     S
Cu47   O100    1.946   .     S
Cu47   O81     2.002   .     S
Cu47   Cu256   2.753   1_455 S
Cu48   O102    1.970   .     S
Cu48   O98     2.002   .     S
Cu48   N80     2.069   .     S
Cu48   O101    1.946   .     S
Cu48   O92     2.002   .     S
Cu48   Cu151   2.753   .     S
H50    O1124   1.014   .     S
H54    C342    1.110   .     S
H66    O86     1.014   .     S
H67    O88     1.014   .     S
H68    O90     1.011   .     S
H69    O93     1.014   .     S
H70    O95     1.014   .     S
H71    C121    1.079   .     S
H72    O97     1.014   .     S
H73    C224    1.082   1_455 S
H78    O82     1.009   .     S
O81    C209    1.334   1_455 S
O84    C964    1.398   1_554 S
O84    H1194   1.014   1_454 S
O99    C220    1.327   1_455 S
O100   C217    1.318   1_455 S
O101   C114    1.323   .     S
C105   O202    1.312   .     A
C105   C108    1.490   .     S
C105   O289    1.334   .     S
C106   C141    1.495   .     S
C106   C773    1.402   1_545 S
C107   C116    1.481   .     S
C107   C150    1.423   .     A
C107   C253    1.415   .     S
C108   C148    1.437   .     A
C108   C210    1.420   .     S
C109   C142    1.470   .     S
C109   C111    1.436   .     A
C109   N184    1.383   .     A
C110   C112    1.448   .     A
C110   N183    1.372   .     A
C110   C143    1.479   .     S
C111   C144    1.475   .     S
C111   N183    1.369   .     A
C112   C145    1.498   .     S
C112   N184    1.399   .     A
C113   O206    1.327   .     A
C113   C115    1.485   .     S
C113   O308    1.318   .     S
C114   O207    1.314   .     A
C114   C117    1.469   .     S
C115   C122    1.400   .     A
C115   C120    1.398   .     A
C116   O196    1.314   .     A
C116   O307    1.327   .     S
C117   C123    1.402   .     A
C117   C121    1.386   .     A
C118   H178    1.069   .     S
C118   C120    1.393   .     A
C118   C126    1.408   .     A
C119   H179    1.061   .     S
C119   C128    1.390   .     A
C119   C121    1.393   .     A
C120   H281    1.082   .     S
C122   C124    1.412   .     A
C122   H164    1.066   .     S
C123   C125    1.416   .     A
C123   H153    1.076   .     S
C124   C129    1.420   .     A
C124   C126    1.417   .     A
C125   C130    1.412   .     A
C125   C128    1.403   .     A
C126   C1082   1.418   .     S
C127   C146    1.382   .     A
C127   C130    1.382   .     A
C127   H180    1.079   .     S
C128   C1083   1.405   1_554 S
C129   C138    1.402   .     A
C129   C1066   1.416   .     S
C130   C1065   1.416   1_554 S
C131   O208    1.221   .     D
C131   O186    1.402   .     S
C131   C146    1.455   .     S
C132   O187    1.220   .     D
C132   C147    1.481   .     S
C132   O1124   1.398   .     S
C133   C134    1.544   .     S
C133   C148    1.535   .     S
C133   H161    1.108   .     S
C133   H160    1.082   .     S
C134   C135    1.525   .     S
C134   H159    1.109   .     S
C134   H782    1.110   1_545 S
C135   H156    1.108   .     S
C135   H157    1.110   .     S
C135   H155    1.106   .     S
C136   C149    1.525   .     S
C136   H168    1.105   .     S
C136   C137    1.538   .     S
C136   H169    1.109   .     S
C137   H166    1.112   .     S
C137   H167    1.110   .     S
C137   C139    1.526   .     S
C138   H181    1.075   .     S
C138   C147    1.397   .     A
C139   H162    1.111   .     S
C139   H163    1.108   .     S
C139   H165    1.110   .     S
C140   C150    1.488   .     S
C140   O190    1.400   .     S
C140   O189    1.223   .     D
C141   O192    1.399   .     S
C141   O191    1.223   .     D
C142   O193    1.222   .     D
C142   O194    1.390   .     S
C143   O197    1.396   .     S
C143   O195    1.222   .     D
C144   O198    1.221   .     D
C144   O199    1.393   .     S
C145   O200    1.214   .     D
C145   O201    1.395   .     S
C146   C1062   1.418   1_554 S
C147   C1064   1.405   .     S
C148   C774    1.406   1_545 S
C149   C418    1.402   .     S
C150   C460    1.406   .     S
Cu151  N183    2.069   .     S
Cu151  O203    2.002   .     S
Cu151  O207    1.970   .     S
Cu151  O204    1.946   .     S
Cu151  O185    2.002   .     S
Cu152  O206    1.970   .     S
Cu152  O202    2.002   .     S
Cu152  N184    2.069   .     S
Cu152  O205    1.946   .     S
Cu152  O196    2.002   .     S
Cu152  Cu255   2.753   .     S
H154   O1228   1.014   .     S
H158   C446    1.110   .     S
H170   O190    1.014   .     S
H171   O192    1.014   .     S
H172   O194    1.011   .     S
H173   O197    1.014   .     S
H174   O199    1.014   .     S
H175   C225    1.079   .     S
H176   O201    1.014   .     S
H182   O186    1.009   .     S
O188   C1068   1.398   1_554 S
O188   H986    1.014   1_554 S
O205   C218    1.323   .     S
C209   O306    1.312   .     A
C209   C212    1.490   .     S
C209   O81     1.334   1_655 S
C210   C245    1.495   .     S
C210   C877    1.402   1_545 S
C211   C220    1.481   .     S
C211   C254    1.423   .     A
C211   C45     1.415   1_655 S
C212   C252    1.437   .     A
C212   C2      1.420   1_655 S
C213   C246    1.470   .     S
C213   C215    1.436   .     A
C213   N288    1.383   .     A
C214   C216    1.448   .     A
C214   N287    1.372   .     A
C214   C247    1.479   .     S
C215   C248    1.475   .     S
C215   N287    1.369   .     A
C216   C249    1.498   .     S
C216   N288    1.399   .     A
C217   O310    1.327   .     A
C217   C219    1.485   .     S
C217   O100    1.318   1_655 S
C218   O311    1.314   .     A
C218   C221    1.469   .     S
C219   C226    1.400   .     A
C219   C224    1.398   .     A
C220   O300    1.314   .     A
C220   O99     1.327   1_655 S
C221   C227    1.402   .     A
C221   C225    1.386   .     A
C222   H282    1.069   .     S
C222   C224    1.393   .     A
C222   C230    1.408   .     A
C223   H283    1.061   .     S
C223   C232    1.390   .     A
C223   C225    1.393   .     A
C224   H73     1.082   1_655 S
C226   C228    1.412   .     A
C226   H268    1.066   .     S
C227   C229    1.416   .     A
C227   H257    1.076   .     S
C228   C233    1.420   .     A
C228   C230    1.417   .     A
C229   C234    1.412   .     A
C229   C232    1.403   .     A
C230   C1186   1.418   .     S
C231   C250    1.382   .     A
C231   C234    1.382   .     A
C231   H284    1.079   .     S
C232   C1187   1.405   1_554 S
C233   C242    1.402   .     A
C233   C1170   1.416   .     S
C234   C1169   1.416   1_554 S
C235   O312    1.221   .     D
C235   O290    1.402   .     S
C235   C250    1.455   .     S
C236   O291    1.220   .     D
C236   C251    1.481   .     S
C236   O1228   1.398   .     S
C237   C238    1.544   .     S
C237   C252    1.535   .     S
C237   H265    1.108   .     S
C237   H264    1.082   .     S
C238   C239    1.525   .     S
C238   H263    1.109   .     S
C238   H886    1.110   1_545 S
C239   H260    1.108   .     S
C239   H261    1.110   .     S
C239   H259    1.106   .     S
C240   C253    1.525   .     S
C240   H272    1.105   .     S
C240   C241    1.538   .     S
C240   H273    1.109   .     S
C241   H270    1.112   .     S
C241   H271    1.110   .     S
C241   C243    1.526   .     S
C242   H285    1.075   .     S
C242   C251    1.397   .     A
C243   H266    1.111   .     S
C243   H267    1.108   .     S
C243   H269    1.110   .     S
C244   C254    1.488   .     S
C244   O294    1.400   .     S
C244   O293    1.223   .     D
C245   O296    1.399   .     S
C245   O295    1.223   .     D
C246   O297    1.222   .     D
C246   O298    1.390   .     S
C247   O301    1.396   .     S
C247   O299    1.222   .     D
C248   O302    1.221   .     D
C248   O303    1.393   .     S
C249   O304    1.214   .     D
C249   O305    1.395   .     S
C250   C1166   1.418   1_554 S
C251   C1168   1.405   .     S
C252   C878    1.406   1_545 S
C253   C522    1.402   .     S
C254   C564    1.406   .     S
Cu255  N287    2.069   .     S
Cu255  O307    2.002   .     S
Cu255  O311    1.970   .     S
Cu255  O308    1.946   .     S
Cu255  O289    2.002   .     S
Cu256  O310    1.970   .     S
Cu256  O306    2.002   .     S
Cu256  N288    2.069   .     S
Cu256  O309    1.946   .     S
Cu256  O300    2.002   .     S
Cu256  Cu47    2.753   1_655 S
H258   O1020   1.014   1_655 S
H262   C550    1.110   .     S
H274   O294    1.014   .     S
H275   O296    1.014   .     S
H276   O298    1.011   .     S
H277   O301    1.014   .     S
H278   O303    1.014   .     S
H279   C17     1.079   1_655 S
H280   O305    1.014   .     S
H286   O290    1.009   .     S
O292   C1172   1.398   1_554 S
O292   H1090   1.014   1_554 S
O309   C10     1.323   1_655 S
C313   O410    1.312   .     A
C313   C316    1.490   .     S
C313   O497    1.334   .     S
C314   C349    1.495   .     S
C314   C524    1.420   1_455 S
C315   C324    1.481   .     S
C315   C358    1.423   .     A
C315   C461    1.415   .     S
C316   C356    1.437   .     A
C316   C418    1.420   .     S
C317   C350    1.470   .     S
C317   C319    1.436   .     A
C317   N392    1.383   .     A
C318   C320    1.448   .     A
C318   N391    1.372   .     A
C318   C351    1.479   .     S
C319   C352    1.475   .     S
C319   N391    1.369   .     A
C320   C353    1.498   .     S
C320   N392    1.399   .     A
C321   O414    1.327   .     A
C321   C323    1.485   .     S
C321   O516    1.318   .     S
C322   O415    1.314   .     A
C322   C325    1.469   .     S
C322   O621    1.323   1_455 S
C323   C330    1.400   .     A
C323   C328    1.398   .     A
C324   O404    1.314   .     A
C324   O515    1.327   .     S
C325   C331    1.402   .     A
C325   C329    1.386   .     A
C326   H386    1.069   .     S
C326   C328    1.393   .     A
C326   C334    1.408   .     A
C327   H387    1.061   .     S
C327   C336    1.390   .     A
C327   C329    1.393   .     A
C328   H489    1.082   .     S
C329   H591    1.079   1_455 S
C330   C332    1.412   .     A
C330   H372    1.066   .     S
C331   C333    1.416   .     A
C331   H361    1.076   .     S
C332   C337    1.420   .     A
C332   C334    1.417   .     A
C333   C338    1.412   .     A
C333   C336    1.403   .     A
C334   C1290   1.418   .     S
C335   C354    1.382   .     A
C335   C338    1.382   .     A
C335   H388    1.079   .     S
C336   C1291   1.405   1_554 S
C337   C346    1.402   .     A
C337   C1274   1.416   .     S
C338   C1273   1.416   1_554 S
C339   O416    1.221   .     D
C339   O394    1.402   .     S
C339   C354    1.455   .     S
C340   O395    1.220   .     D
C340   C355    1.481   .     S
C340   O1332   1.398   .     S
C341   C342    1.544   .     S
C341   C356    1.535   .     S
C341   H369    1.108   .     S
C341   H368    1.082   .     S
C342   C343    1.525   .     S
C342   H367    1.109   .     S
C343   H364    1.108   .     S
C343   H365    1.110   .     S
C343   H363    1.106   .     S
C344   C357    1.525   .     S
C344   H376    1.105   .     S
C344   C345    1.538   .     S
C344   H377    1.109   .     S
C345   H374    1.112   .     S
C345   H375    1.110   .     S
C345   C347    1.526   .     S
C346   H389    1.075   .     S
C346   C355    1.397   .     A
C347   H370    1.111   .     S
C347   H371    1.108   .     S
C347   H373    1.110   .     S
C348   C358    1.488   .     S
C348   O398    1.400   .     S
C348   O397    1.223   .     D
C349   O400    1.399   .     S
C349   O399    1.223   .     D
C350   O401    1.222   .     D
C350   O402    1.390   .     S
C351   O405    1.396   .     S
C351   O403    1.222   .     D
C352   O406    1.221   .     D
C352   O407    1.393   .     S
C353   O408    1.214   .     D
C353   O409    1.395   .     S
C354   C1270   1.418   1_554 S
C355   C1272   1.405   .     S
C357   C523    1.415   1_455 S
C357   C626    1.402   .     S
C358   C668    1.406   .     S
Cu359  N391    2.069   .     S
Cu359  O411    2.002   .     S
Cu359  O415    1.970   .     S
Cu359  O412    1.946   .     S
Cu359  O393    2.002   .     S
Cu359  Cu568   2.753   1_455 S
Cu360  O414    1.970   .     S
Cu360  O410    2.002   .     S
Cu360  N392    2.069   .     S
Cu360  O413    1.946   .     S
Cu360  O404    2.002   .     S
Cu360  Cu463   2.753   .     S
H362   O1436   1.014   .     S
H366   C654    1.110   .     S
H378   O398    1.014   .     S
H379   O400    1.014   .     S
H380   O402    1.011   .     S
H381   O405    1.014   .     S
H382   O407    1.014   .     S
H383   C433    1.079   .     S
H384   O409    1.014   .     S
H385   C536    1.082   1_455 S
H390   O394    1.009   .     S
O393   C521    1.334   1_455 S
O396   C1276   1.398   1_554 S
O396   H1506   1.014   1_454 S
O411   C532    1.327   1_455 S
O412   C529    1.318   1_455 S
O413   C426    1.323   .     S
C417   O514    1.312   .     A
C417   C420    1.490   .     S
C417   O601    1.334   .     S
C418   C453    1.495   .     S
C419   C428    1.481   .     S
C419   C462    1.423   .     A
C419   C565    1.415   .     S
C420   C460    1.437   .     A
C420   C522    1.420   .     S
C421   C454    1.470   .     S
C421   C423    1.436   .     A
C421   N496    1.383   .     A
C422   C424    1.448   .     A
C422   N495    1.372   .     A
C422   C455    1.479   .     S
C423   C456    1.475   .     S
C423   N495    1.369   .     A
C424   C457    1.498   .     S
C424   N496    1.399   .     A
C425   O518    1.327   .     A
C425   C427    1.485   .     S
C425   O620    1.318   .     S
C426   O519    1.314   .     A
C426   C429    1.469   .     S
C427   C434    1.400   .     A
C427   C432    1.398   .     A
C428   O508    1.314   .     A
C428   O619    1.327   .     S
C429   C435    1.402   .     A
C429   C433    1.386   .     A
C430   H490    1.069   .     S
C430   C432    1.393   .     A
C430   C438    1.408   .     A
C431   H491    1.061   .     S
C431   C440    1.390   .     A
C431   C433    1.393   .     A
C432   H593    1.082   .     S
C434   C436    1.412   .     A
C434   H476    1.066   .     S
C435   C437    1.416   .     A
C435   H465    1.076   .     S
C436   C441    1.420   .     A
C436   C438    1.417   .     A
C437   C442    1.412   .     A
C437   C440    1.403   .     A
C438   C1394   1.418   .     S
C439   C458    1.382   .     A
C439   C442    1.382   .     A
C439   H492    1.079   .     S
C440   C1395   1.405   1_554 S
C441   C450    1.402   .     A
C441   C1378   1.416   .     S
C442   C1377   1.416   1_554 S
C443   O520    1.221   .     D
C443   O498    1.402   .     S
C443   C458    1.455   .     S
C444   O499    1.220   .     D
C444   C459    1.481   .     S
C444   O1436   1.398   .     S
C445   C446    1.544   .     S
C445   C460    1.535   .     S
C445   H473    1.108   .     S
C445   H472    1.082   .     S
C446   C447    1.525   .     S
C446   H471    1.109   .     S
C447   H468    1.108   .     S
C447   H469    1.110   .     S
C447   H467    1.106   .     S
C448   C461    1.525   .     S
C448   H480    1.105   .     S
C448   C449    1.538   .     S
C448   H481    1.109   .     S
C449   H478    1.112   .     S
C449   H479    1.110   .     S
C449   C451    1.526   .     S
C450   H493    1.075   .     S
C450   C459    1.397   .     A
C451   H474    1.111   .     S
C451   H475    1.108   .     S
C451   H477    1.110   .     S
C452   C462    1.488   .     S
C452   O502    1.400   .     S
C452   O501    1.223   .     D
C453   O504    1.399   .     S
C453   O503    1.223   .     D
C454   O505    1.222   .     D
C454   O506    1.390   .     S
C455   O509    1.396   .     S
C455   O507    1.222   .     D
C456   O510    1.221   .     D
C456   O511    1.393   .     S
C457   O512    1.214   .     D
C457   O513    1.395   .     S
C458   C1374   1.418   1_554 S
C459   C1376   1.405   .     S
C461   C730    1.402   .     S
C462   C772    1.406   .     S
Cu463  N495    2.069   .     S
Cu463  O515    2.002   .     S
Cu463  O519    1.970   .     S
Cu463  O516    1.946   .     S
Cu463  O497    2.002   .     S
Cu464  O518    1.970   .     S
Cu464  O514    2.002   .     S
Cu464  N496    2.069   .     S
Cu464  O517    1.946   .     S
Cu464  O508    2.002   .     S
Cu464  Cu567   2.753   .     S
H466   O1540   1.014   .     S
H470   C758    1.110   .     S
H482   O502    1.014   .     S
H483   O504    1.014   .     S
H484   O506    1.011   .     S
H485   O509    1.014   .     S
H486   O511    1.014   .     S
H487   C537    1.079   .     S
H488   O513    1.014   .     S
H494   O498    1.009   .     S
O500   C1380   1.398   1_554 S
O500   H1298   1.014   1_554 S
O517   C530    1.323   .     S
C521   O618    1.312   .     A
C521   C524    1.490   .     S
C521   O393    1.334   1_655 S
C522   C557    1.495   .     S
C523   C532    1.481   .     S
C523   C566    1.423   .     A
C523   C357    1.415   1_655 S
C524   C564    1.437   .     A
C524   C314    1.420   1_655 S
C525   C558    1.470   .     S
C525   C527    1.436   .     A
C525   N600    1.383   .     A
C526   C528    1.448   .     A
C526   N599    1.372   .     A
C526   C559    1.479   .     S
C527   C560    1.475   .     S
C527   N599    1.369   .     A
C528   C561    1.498   .     S
C528   N600    1.399   .     A
C529   O622    1.327   .     A
C529   C531    1.485   .     S
C529   O412    1.318   1_655 S
C530   O623    1.314   .     A
C530   C533    1.469   .     S
C531   C538    1.400   .     A
C531   C536    1.398   .     A
C532   O612    1.314   .     A
C532   O411    1.327   1_655 S
C533   C539    1.402   .     A
C533   C537    1.386   .     A
C534   H594    1.069   .     S
C534   C536    1.393   .     A
C534   C542    1.408   .     A
C535   H595    1.061   .     S
C535   C544    1.390   .     A
C535   C537    1.393   .     A
C536   H385    1.082   1_655 S
C538   C540    1.412   .     A
C538   H580    1.066   .     S
C539   C541    1.416   .     A
C539   H569    1.076   .     S
C540   C545    1.420   .     A
C540   C542    1.417   .     A
C541   C546    1.412   .     A
C541   C544    1.403   .     A
C542   C1498   1.418   .     S
C543   C562    1.382   .     A
C543   C546    1.382   .     A
C543   H596    1.079   .     S
C544   C1499   1.405   1_554 S
C545   C554    1.402   .     A
C545   C1482   1.416   .     S
C546   C1481   1.416   1_554 S
C547   O624    1.221   .     D
C547   O602    1.402   .     S
C547   C562    1.455   .     S
C548   O603    1.220   .     D
C548   C563    1.481   .     S
C548   O1540   1.398   .     S
C549   C550    1.544   .     S
C549   C564    1.535   .     S
C549   H577    1.108   .     S
C549   H576    1.082   .     S
C550   C551    1.525   .     S
C550   H575    1.109   .     S
C551   H572    1.108   .     S
C551   H573    1.110   .     S
C551   H571    1.106   .     S
C552   C565    1.525   .     S
C552   H584    1.105   .     S
C552   C553    1.538   .     S
C552   H585    1.109   .     S
C553   H582    1.112   .     S
C553   H583    1.110   .     S
C553   C555    1.526   .     S
C554   H597    1.075   .     S
C554   C563    1.397   .     A
C555   H578    1.111   .     S
C555   H579    1.108   .     S
C555   H581    1.110   .     S
C556   C566    1.488   .     S
C556   O606    1.400   .     S
C556   O605    1.223   .     D
C557   O608    1.399   .     S
C557   O607    1.223   .     D
C558   O609    1.222   .     D
C558   O610    1.390   .     S
C559   O613    1.396   .     S
C559   O611    1.222   .     D
C560   O614    1.221   .     D
C560   O615    1.393   .     S
C561   O616    1.214   .     D
C561   O617    1.395   .     S
C562   C1478   1.418   1_554 S
C563   C1480   1.405   .     S
C565   C834    1.402   .     S
C566   C876    1.406   .     S
Cu567  N599    2.069   .     S
Cu567  O619    2.002   .     S
Cu567  O623    1.970   .     S
Cu567  O620    1.946   .     S
Cu567  O601    2.002   .     S
Cu568  O622    1.970   .     S
Cu568  O618    2.002   .     S
Cu568  N600    2.069   .     S
Cu568  O621    1.946   .     S
Cu568  O612    2.002   .     S
Cu568  Cu359   2.753   1_655 S
H570   O1332   1.014   1_655 S
H574   C862    1.110   .     S
H586   O606    1.014   .     S
H587   O608    1.014   .     S
H588   O610    1.011   .     S
H589   O613    1.014   .     S
H590   O615    1.014   .     S
H591   C329    1.079   1_655 S
H592   O617    1.014   .     S
H598   O602    1.009   .     S
O604   C1484   1.398   1_554 S
O604   H1402   1.014   1_554 S
O621   C322    1.323   1_655 S
C625   O722    1.312   .     A
C625   C628    1.490   .     S
C625   O809    1.334   .     S
C626   C661    1.495   .     S
C626   C836    1.420   1_455 S
C627   C636    1.481   .     S
C627   C670    1.423   .     A
C627   C773    1.415   .     S
C628   C668    1.437   .     A
C628   C730    1.420   .     S
C629   C662    1.470   .     S
C629   C631    1.436   .     A
C629   N704    1.383   .     A
C630   C632    1.448   .     A
C630   N703    1.372   .     A
C630   C663    1.479   .     S
C631   C664    1.475   .     S
C631   N703    1.369   .     A
C632   C665    1.498   .     S
C632   N704    1.399   .     A
C633   O726    1.327   .     A
C633   C635    1.485   .     S
C633   O828    1.318   .     S
C634   O727    1.314   .     A
C634   C637    1.469   .     S
C634   O933    1.323   1_455 S
C635   C642    1.400   .     A
C635   C640    1.398   .     A
C636   O716    1.314   .     A
C636   O827    1.327   .     S
C637   C643    1.402   .     A
C637   C641    1.386   .     A
C638   H698    1.069   .     S
C638   C640    1.393   .     A
C638   C646    1.408   .     A
C639   H699    1.061   .     S
C639   C648    1.390   .     A
C639   C641    1.393   .     A
C640   H801    1.082   .     S
C641   H903    1.079   1_455 S
C642   C644    1.412   .     A
C642   H684    1.066   .     S
C643   C645    1.416   .     A
C643   H673    1.076   .     S
C644   C649    1.420   .     A
C644   C646    1.417   .     A
C645   C650    1.412   .     A
C645   C648    1.403   .     A
C646   C1602   1.418   .     S
C647   C666    1.382   .     A
C647   C650    1.382   .     A
C647   H700    1.079   .     S
C648   C1603   1.405   1_554 S
C649   C658    1.402   .     A
C649   C1586   1.416   .     S
C650   C1585   1.416   1_554 S
C651   O728    1.221   .     D
C651   O706    1.402   .     S
C651   C666    1.455   .     S
C652   O707    1.220   .     D
C652   C667    1.481   .     S
C652   O1644   1.398   .     S
C653   C654    1.544   .     S
C653   C668    1.535   .     S
C653   H681    1.108   .     S
C653   H680    1.082   .     S
C654   C655    1.525   .     S
C654   H679    1.109   .     S
C655   H676    1.108   .     S
C655   H677    1.110   .     S
C655   H675    1.106   .     S
C656   C669    1.525   .     S
C656   H688    1.105   .     S
C656   C657    1.538   .     S
C656   H689    1.109   .     S
C657   H686    1.112   .     S
C657   H687    1.110   .     S
C657   C659    1.526   .     S
C658   H701    1.075   .     S
C658   C667    1.397   .     A
C659   H682    1.111   .     S
C659   H683    1.108   .     S
C659   H685    1.110   .     S
C660   C670    1.488   .     S
C660   O710    1.400   .     S
C660   O709    1.223   .     D
C661   O712    1.399   .     S
C661   O711    1.223   .     D
C662   O713    1.222   .     D
C662   O714    1.390   .     S
C663   O717    1.396   .     S
C663   O715    1.222   .     D
C664   O718    1.221   .     D
C664   O719    1.393   .     S
C665   O720    1.214   .     D
C665   O721    1.395   .     S
C666   C1582   1.418   1_554 S
C667   C1584   1.405   .     S
C669   C835    1.415   1_455 S
C669   C2      1.402   1_565 S
C670   C44     1.406   1_565 S
Cu671  N703    2.069   .     S
Cu671  O723    2.002   .     S
Cu671  O727    1.970   .     S
Cu671  O724    1.946   .     S
Cu671  O705    2.002   .     S
Cu671  Cu880   2.753   1_455 S
Cu672  O726    1.970   .     S
Cu672  O722    2.002   .     S
Cu672  N704    2.069   .     S
Cu672  O725    1.946   .     S
Cu672  O716    2.002   .     S
Cu672  Cu775   2.753   .     S
H674   O1748   1.014   .     S
H678   C30     1.110   1_565 S
H690   O710    1.014   .     S
H691   O712    1.014   .     S
H692   O714    1.011   .     S
H693   O717    1.014   .     S
H694   O719    1.014   .     S
H695   C745    1.079   .     S
H696   O721    1.014   .     S
H697   C848    1.082   1_455 S
H702   O706    1.009   .     S
O705   C833    1.334   1_455 S
O708   C1588   1.398   1_554 S
O708   H1818   1.014   1_454 S
O723   C844    1.327   1_455 S
O724   C841    1.318   1_455 S
O725   C738    1.323   .     S
C729   O826    1.312   .     A
C729   C732    1.490   .     S
C729   O913    1.334   .     S
C730   C765    1.495   .     S
C731   C740    1.481   .     S
C731   C774    1.423   .     A
C731   C877    1.415   .     S
C732   C772    1.437   .     A
C732   C834    1.420   .     S
C733   C766    1.470   .     S
C733   C735    1.436   .     A
C733   N808    1.383   .     A
C734   C736    1.448   .     A
C734   N807    1.372   .     A
C734   C767    1.479   .     S
C735   C768    1.475   .     S
C735   N807    1.369   .     A
C736   C769    1.498   .     S
C736   N808    1.399   .     A
C737   O830    1.327   .     A
C737   C739    1.485   .     S
C737   O932    1.318   .     S
C738   O831    1.314   .     A
C738   C741    1.469   .     S
C739   C746    1.400   .     A
C739   C744    1.398   .     A
C740   O820    1.314   .     A
C740   O931    1.327   .     S
C741   C747    1.402   .     A
C741   C745    1.386   .     A
C742   H802    1.069   .     S
C742   C744    1.393   .     A
C742   C750    1.408   .     A
C743   H803    1.061   .     S
C743   C752    1.390   .     A
C743   C745    1.393   .     A
C744   H905    1.082   .     S
C746   C748    1.412   .     A
C746   H788    1.066   .     S
C747   C749    1.416   .     A
C747   H777    1.076   .     S
C748   C753    1.420   .     A
C748   C750    1.417   .     A
C749   C754    1.412   .     A
C749   C752    1.403   .     A
C750   C1706   1.418   .     S
C751   C770    1.382   .     A
C751   C754    1.382   .     A
C751   H804    1.079   .     S
C752   C1707   1.405   1_554 S
C753   C762    1.402   .     A
C753   C1690   1.416   .     S
C754   C1689   1.416   1_554 S
C755   O832    1.221   .     D
C755   O810    1.402   .     S
C755   C770    1.455   .     S
C756   O811    1.220   .     D
C756   C771    1.481   .     S
C756   O1748   1.398   .     S
C757   C758    1.544   .     S
C757   C772    1.535   .     S
C757   H785    1.108   .     S
C757   H784    1.082   .     S
C758   C759    1.525   .     S
C758   H783    1.109   .     S
C759   H780    1.108   .     S
C759   H781    1.110   .     S
C759   H779    1.106   .     S
C760   C773    1.525   .     S
C760   H792    1.105   .     S
C760   C761    1.538   .     S
C760   H793    1.109   .     S
C761   H790    1.112   .     S
C761   H791    1.110   .     S
C761   C763    1.526   .     S
C762   H805    1.075   .     S
C762   C771    1.397   .     A
C763   H786    1.111   .     S
C763   H787    1.108   .     S
C763   H789    1.110   .     S
C764   C774    1.488   .     S
C764   O814    1.400   .     S
C764   O813    1.223   .     D
C765   O816    1.399   .     S
C765   O815    1.223   .     D
C766   O817    1.222   .     D
C766   O818    1.390   .     S
C767   O821    1.396   .     S
C767   O819    1.222   .     D
C768   O822    1.221   .     D
C768   O823    1.393   .     S
C769   O824    1.214   .     D
C769   O825    1.395   .     S
C770   C1686   1.418   1_554 S
C771   C1688   1.405   .     S
C773   C106    1.402   1_565 S
C774   C148    1.406   1_565 S
Cu775  N807    2.069   .     S
Cu775  O827    2.002   .     S
Cu775  O831    1.970   .     S
Cu775  O828    1.946   .     S
Cu775  O809    2.002   .     S
Cu776  O830    1.970   .     S
Cu776  O826    2.002   .     S
Cu776  N808    2.069   .     S
Cu776  O829    1.946   .     S
Cu776  O820    2.002   .     S
Cu776  Cu879   2.753   .     S
H778   O1852   1.014   .     S
H782   C134    1.110   1_565 S
H794   O814    1.014   .     S
H795   O816    1.014   .     S
H796   O818    1.011   .     S
H797   O821    1.014   .     S
H798   O823    1.014   .     S
H799   C849    1.079   .     S
H800   O825    1.014   .     S
H806   O810    1.009   .     S
O812   C1692   1.398   1_554 S
O812   H1610   1.014   1_554 S
O829   C842    1.323   .     S
C833   O930    1.312   .     A
C833   C836    1.490   .     S
C833   O705    1.334   1_655 S
C834   C869    1.495   .     S
C835   C844    1.481   .     S
C835   C878    1.423   .     A
C835   C669    1.415   1_655 S
C836   C876    1.437   .     A
C836   C626    1.420   1_655 S
C837   C870    1.470   .     S
C837   C839    1.436   .     A
C837   N912    1.383   .     A
C838   C840    1.448   .     A
C838   N911    1.372   .     A
C838   C871    1.479   .     S
C839   C872    1.475   .     S
C839   N911    1.369   .     A
C840   C873    1.498   .     S
C840   N912    1.399   .     A
C841   O934    1.327   .     A
C841   C843    1.485   .     S
C841   O724    1.318   1_655 S
C842   O935    1.314   .     A
C842   C845    1.469   .     S
C843   C850    1.400   .     A
C843   C848    1.398   .     A
C844   O924    1.314   .     A
C844   O723    1.327   1_655 S
C845   C851    1.402   .     A
C845   C849    1.386   .     A
C846   H906    1.069   .     S
C846   C848    1.393   .     A
C846   C854    1.408   .     A
C847   H907    1.061   .     S
C847   C856    1.390   .     A
C847   C849    1.393   .     A
C848   H697    1.082   1_655 S
C850   C852    1.412   .     A
C850   H892    1.066   .     S
C851   C853    1.416   .     A
C851   H881    1.076   .     S
C852   C857    1.420   .     A
C852   C854    1.417   .     A
C853   C858    1.412   .     A
C853   C856    1.403   .     A
C854   C1810   1.418   .     S
C855   C874    1.382   .     A
C855   C858    1.382   .     A
C855   H908    1.079   .     S
C856   C1811   1.405   1_554 S
C857   C866    1.402   .     A
C857   C1794   1.416   .     S
C858   C1793   1.416   1_554 S
C859   O936    1.221   .     D
C859   O914    1.402   .     S
C859   C874    1.455   .     S
C860   O915    1.220   .     D
C860   C875    1.481   .     S
C860   O1852   1.398   .     S
C861   C862    1.544   .     S
C861   C876    1.535   .     S
C861   H889    1.108   .     S
C861   H888    1.082   .     S
C862   C863    1.525   .     S
C862   H887    1.109   .     S
C863   H884    1.108   .     S
C863   H885    1.110   .     S
C863   H883    1.106   .     S
C864   C877    1.525   .     S
C864   H896    1.105   .     S
C864   C865    1.538   .     S
C864   H897    1.109   .     S
C865   H894    1.112   .     S
C865   H895    1.110   .     S
C865   C867    1.526   .     S
C866   H909    1.075   .     S
C866   C875    1.397   .     A
C867   H890    1.111   .     S
C867   H891    1.108   .     S
C867   H893    1.110   .     S
C868   C878    1.488   .     S
C868   O918    1.400   .     S
C868   O917    1.223   .     D
C869   O920    1.399   .     S
C869   O919    1.223   .     D
C870   O921    1.222   .     D
C870   O922    1.390   .     S
C871   O925    1.396   .     S
C871   O923    1.222   .     D
C872   O926    1.221   .     D
C872   O927    1.393   .     S
C873   O928    1.214   .     D
C873   O929    1.395   .     S
C874   C1790   1.418   1_554 S
C875   C1792   1.405   .     S
C877   C210    1.402   1_565 S
C878   C252    1.406   1_565 S
Cu879  N911    2.069   .     S
Cu879  O931    2.002   .     S
Cu879  O935    1.970   .     S
Cu879  O932    1.946   .     S
Cu879  O913    2.002   .     S
Cu880  O934    1.970   .     S
Cu880  O930    2.002   .     S
Cu880  N912    2.069   .     S
Cu880  O933    1.946   .     S
Cu880  O924    2.002   .     S
Cu880  Cu671   2.753   1_655 S
H882   O1644   1.014   1_655 S
H886   C238    1.110   1_565 S
H898   O918    1.014   .     S
H899   O920    1.014   .     S
H900   O922    1.011   .     S
H901   O925    1.014   .     S
H902   O927    1.014   .     S
H903   C641    1.079   1_655 S
H904   O929    1.014   .     S
H910   O914    1.009   .     S
O916   C1796   1.398   1_554 S
O916   H1714   1.014   1_554 S
O933   C634    1.323   1_655 S
C937   O1034   1.312   .     A
C937   C940    1.490   .     S
C937   O1121   1.334   .     S
C938   C973    1.495   .     S
C938   C1148   1.420   1_455 S
C938   C1605   1.402   1_545 S
C939   C948    1.481   .     S
C939   C982    1.423   .     A
C939   C1085   1.415   .     S
C940   C980    1.437   .     A
C940   C1042   1.420   .     S
C941   C974    1.470   .     S
C941   C943    1.436   .     A
C941   N1016   1.383   .     A
C942   C944    1.448   .     A
C942   N1015   1.372   .     A
C942   C975    1.479   .     S
C943   C976    1.475   .     S
C943   N1015   1.369   .     A
C944   C977    1.498   .     S
C944   N1016   1.399   .     A
C945   O1038   1.327   .     A
C945   C947    1.485   .     S
C945   O1140   1.318   .     S
C946   O1039   1.314   .     A
C946   C949    1.469   .     S
C946   O1245   1.323   1_455 S
C947   C954    1.400   .     A
C947   C952    1.398   .     A
C948   O1028   1.314   .     A
C948   O1139   1.327   .     S
C949   C955    1.402   .     A
C949   C953    1.386   .     A
C950   H1010   1.069   .     S
C950   C952    1.393   .     A
C950   C958    1.408   .     A
C951   H1011   1.061   .     S
C951   C960    1.390   .     A
C951   C953    1.393   .     A
C952   H1113   1.082   .     S
C953   H1215   1.079   1_455 S
C954   C956    1.412   .     A
C954   H996    1.066   .     S
C955   C957    1.416   .     A
C955   H985    1.076   .     S
C956   C961    1.420   .     A
C956   C958    1.417   .     A
C957   C962    1.412   .     A
C957   C960    1.403   .     A
C958   C42     1.418   1_556 S
C959   C978    1.382   .     A
C959   C962    1.382   .     A
C959   H1012   1.079   .     S
C961   C970    1.402   .     A
C961   C26     1.416   1_556 S
C963   O1040   1.221   .     D
C963   O1018   1.402   .     S
C963   C978    1.455   .     S
C964   O1019   1.220   .     D
C964   C979    1.481   .     S
C964   O84     1.398   1_556 S
C965   C966    1.544   .     S
C965   C980    1.535   .     S
C965   H993    1.108   .     S
C965   H992    1.082   .     S
C966   C967    1.525   .     S
C966   H991    1.109   .     S
C966   H1614   1.110   1_545 S
C967   H988    1.108   .     S
C967   H989    1.110   .     S
C967   H987    1.106   .     S
C968   C981    1.525   .     S
C968   H1000   1.105   .     S
C968   C969    1.538   .     S
C968   H1001   1.109   .     S
C969   H998    1.112   .     S
C969   H999    1.110   .     S
C969   C971    1.526   .     S
C970   H1013   1.075   .     S
C970   C979    1.397   .     A
C971   H994    1.111   .     S
C971   H995    1.108   .     S
C971   H997    1.110   .     S
C972   C982    1.488   .     S
C972   O1022   1.400   .     S
C972   O1021   1.223   .     D
C973   O1024   1.399   .     S
C973   O1023   1.223   .     D
C974   O1025   1.222   .     D
C974   O1026   1.390   .     S
C975   O1029   1.396   .     S
C975   O1027   1.222   .     D
C976   O1030   1.221   .     D
C976   O1031   1.393   .     S
C977   O1032   1.214   .     D
C977   O1033   1.395   .     S
C979   C24     1.405   1_556 S
C980   C1606   1.406   1_545 S
C981   C1147   1.415   1_455 S
C981   C1250   1.402   .     S
C982   C1292   1.406   .     S
Cu983  N1015   2.069   .     S
Cu983  O1035   2.002   .     S
Cu983  O1039   1.970   .     S
Cu983  O1036   1.946   .     S
Cu983  O1017   2.002   .     S
Cu983  Cu1192  2.753   1_455 S
Cu984  O1038   1.970   .     S
Cu984  O1034   2.002   .     S
Cu984  N1016   2.069   .     S
Cu984  O1037   1.946   .     S
Cu984  O1028   2.002   .     S
Cu984  Cu1087  2.753   .     S
H986   O188    1.014   1_556 S
H990   C1278   1.110   .     S
H1002  O1022   1.014   .     S
H1003  O1024   1.014   .     S
H1004  O1026   1.011   .     S
H1005  O1029   1.014   .     S
H1006  O1031   1.014   .     S
H1007  C1057   1.079   .     S
H1008  O1033   1.014   .     S
H1009  C1160   1.082   1_455 S
H1014  O1018   1.009   .     S
O1017  C1145   1.334   1_455 S
O1020  H258    1.014   1_455 S
O1035  C1156   1.327   1_455 S
O1036  C1153   1.318   1_455 S
O1037  C1050   1.323   .     S
C1041  O1138   1.312   .     A
C1041  C1044   1.490   .     S
C1041  O1225   1.334   .     S
C1042  C1077   1.495   .     S
C1042  C1709   1.402   1_545 S
C1043  C1052   1.481   .     S
C1043  C1086   1.423   .     A
C1043  C1189   1.415   .     S
C1044  C1084   1.437   .     A
C1044  C1146   1.420   .     S
C1045  C1078   1.470   .     S
C1045  C1047   1.436   .     A
C1045  N1120   1.383   .     A
C1046  C1048   1.448   .     A
C1046  N1119   1.372   .     A
C1046  C1079   1.479   .     S
C1047  C1080   1.475   .     S
C1047  N1119   1.369   .     A
C1048  C1081   1.498   .     S
C1048  N1120   1.399   .     A
C1049  O1142   1.327   .     A
C1049  C1051   1.485   .     S
C1049  O1244   1.318   .     S
C1050  O1143   1.314   .     A
C1050  C1053   1.469   .     S
C1051  C1058   1.400   .     A
C1051  C1056   1.398   .     A
C1052  O1132   1.314   .     A
C1052  O1243   1.327   .     S
C1053  C1059   1.402   .     A
C1053  C1057   1.386   .     A
C1054  H1114   1.069   .     S
C1054  C1056   1.393   .     A
C1054  C1062   1.408   .     A
C1055  H1115   1.061   .     S
C1055  C1064   1.390   .     A
C1055  C1057   1.393   .     A
C1056  H1217   1.082   .     S
C1058  C1060   1.412   .     A
C1058  H1100   1.066   .     S
C1059  C1061   1.416   .     A
C1059  H1089   1.076   .     S
C1060  C1065   1.420   .     A
C1060  C1062   1.417   .     A
C1061  C1066   1.412   .     A
C1061  C1064   1.403   .     A
C1062  C146    1.418   1_556 S
C1063  C1082   1.382   .     A
C1063  C1066   1.382   .     A
C1063  H1116   1.079   .     S
C1065  C1074   1.402   .     A
C1065  C130    1.416   1_556 S
C1067  O1144   1.221   .     D
C1067  O1122   1.402   .     S
C1067  C1082   1.455   .     S
C1068  O1123   1.220   .     D
C1068  C1083   1.481   .     S
C1068  O188    1.398   1_556 S
C1069  C1070   1.544   .     S
C1069  C1084   1.535   .     S
C1069  H1097   1.108   .     S
C1069  H1096   1.082   .     S
C1070  C1071   1.525   .     S
C1070  H1095   1.109   .     S
C1070  H1718   1.110   1_545 S
C1071  H1092   1.108   .     S
C1071  H1093   1.110   .     S
C1071  H1091   1.106   .     S
C1072  C1085   1.525   .     S
C1072  H1104   1.105   .     S
C1072  C1073   1.538   .     S
C1072  H1105   1.109   .     S
C1073  H1102   1.112   .     S
C1073  H1103   1.110   .     S
C1073  C1075   1.526   .     S
C1074  H1117   1.075   .     S
C1074  C1083   1.397   .     A
C1075  H1098   1.111   .     S
C1075  H1099   1.108   .     S
C1075  H1101   1.110   .     S
C1076  C1086   1.488   .     S
C1076  O1126   1.400   .     S
C1076  O1125   1.223   .     D
C1077  O1128   1.399   .     S
C1077  O1127   1.223   .     D
C1078  O1129   1.222   .     D
C1078  O1130   1.390   .     S
C1079  O1133   1.396   .     S
C1079  O1131   1.222   .     D
C1080  O1134   1.221   .     D
C1080  O1135   1.393   .     S
C1081  O1136   1.214   .     D
C1081  O1137   1.395   .     S
C1083  C128    1.405   1_556 S
C1084  C1710   1.406   1_545 S
C1085  C1354   1.402   .     S
C1086  C1396   1.406   .     S
Cu1087 N1119   2.069   .     S
Cu1087 O1139   2.002   .     S
Cu1087 O1143   1.970   .     S
Cu1087 O1140   1.946   .     S
Cu1087 O1121   2.002   .     S
Cu1088 O1142   1.970   .     S
Cu1088 O1138   2.002   .     S
Cu1088 N1120   2.069   .     S
Cu1088 O1141   1.946   .     S
Cu1088 O1132   2.002   .     S
Cu1088 Cu1191  2.753   .     S
H1090  O292    1.014   1_556 S
H1094  C1382   1.110   .     S
H1106  O1126   1.014   .     S
H1107  O1128   1.014   .     S
H1108  O1130   1.011   .     S
H1109  O1133   1.014   .     S
H1110  O1135   1.014   .     S
H1111  C1161   1.079   .     S
H1112  O1137   1.014   .     S
H1118  O1122   1.009   .     S
O1141  C1154   1.323   .     S
C1145  O1242   1.312   .     A
C1145  C1148   1.490   .     S
C1145  O1017   1.334   1_655 S
C1146  C1181   1.495   .     S
C1146  C1813   1.402   1_545 S
C1147  C1156   1.481   .     S
C1147  C1190   1.423   .     A
C1147  C981    1.415   1_655 S
C1148  C1188   1.437   .     A
C1148  C938    1.420   1_655 S
C1149  C1182   1.470   .     S
C1149  C1151   1.436   .     A
C1149  N1224   1.383   .     A
C1150  C1152   1.448   .     A
C1150  N1223   1.372   .     A
C1150  C1183   1.479   .     S
C1151  C1184   1.475   .     S
C1151  N1223   1.369   .     A
C1152  C1185   1.498   .     S
C1152  N1224   1.399   .     A
C1153  O1246   1.327   .     A
C1153  C1155   1.485   .     S
C1153  O1036   1.318   1_655 S
C1154  O1247   1.314   .     A
C1154  C1157   1.469   .     S
C1155  C1162   1.400   .     A
C1155  C1160   1.398   .     A
C1156  O1236   1.314   .     A
C1156  O1035   1.327   1_655 S
C1157  C1163   1.402   .     A
C1157  C1161   1.386   .     A
C1158  H1218   1.069   .     S
C1158  C1160   1.393   .     A
C1158  C1166   1.408   .     A
C1159  H1219   1.061   .     S
C1159  C1168   1.390   .     A
C1159  C1161   1.393   .     A
C1160  H1009   1.082   1_655 S
C1162  C1164   1.412   .     A
C1162  H1204   1.066   .     S
C1163  C1165   1.416   .     A
C1163  H1193   1.076   .     S
C1164  C1169   1.420   .     A
C1164  C1166   1.417   .     A
C1165  C1170   1.412   .     A
C1165  C1168   1.403   .     A
C1166  C250    1.418   1_556 S
C1167  C1186   1.382   .     A
C1167  C1170   1.382   .     A
C1167  H1220   1.079   .     S
C1169  C1178   1.402   .     A
C1169  C234    1.416   1_556 S
C1171  O1248   1.221   .     D
C1171  O1226   1.402   .     S
C1171  C1186   1.455   .     S
C1172  O1227   1.220   .     D
C1172  C1187   1.481   .     S
C1172  O292    1.398   1_556 S
C1173  C1174   1.544   .     S
C1173  C1188   1.535   .     S
C1173  H1201   1.108   .     S
C1173  H1200   1.082   .     S
C1174  C1175   1.525   .     S
C1174  H1199   1.109   .     S
C1174  H1822   1.110   1_545 S
C1175  H1196   1.108   .     S
C1175  H1197   1.110   .     S
C1175  H1195   1.106   .     S
C1176  C1189   1.525   .     S
C1176  H1208   1.105   .     S
C1176  C1177   1.538   .     S
C1176  H1209   1.109   .     S
C1177  H1206   1.112   .     S
C1177  H1207   1.110   .     S
C1177  C1179   1.526   .     S
C1178  H1221   1.075   .     S
C1178  C1187   1.397   .     A
C1179  H1202   1.111   .     S
C1179  H1203   1.108   .     S
C1179  H1205   1.110   .     S
C1180  C1190   1.488   .     S
C1180  O1230   1.400   .     S
C1180  O1229   1.223   .     D
C1181  O1232   1.399   .     S
C1181  O1231   1.223   .     D
C1182  O1233   1.222   .     D
C1182  O1234   1.390   .     S
C1183  O1237   1.396   .     S
C1183  O1235   1.222   .     D
C1184  O1238   1.221   .     D
C1184  O1239   1.393   .     S
C1185  O1240   1.214   .     D
C1185  O1241   1.395   .     S
C1187  C232    1.405   1_556 S
C1188  C1814   1.406   1_545 S
C1189  C1458   1.402   .     S
C1190  C1500   1.406   .     S
Cu1191 N1223   2.069   .     S
Cu1191 O1243   2.002   .     S
Cu1191 O1247   1.970   .     S
Cu1191 O1244   1.946   .     S
Cu1191 O1225   2.002   .     S
Cu1192 O1246   1.970   .     S
Cu1192 O1242   2.002   .     S
Cu1192 N1224   2.069   .     S
Cu1192 O1245   1.946   .     S
Cu1192 O1236   2.002   .     S
Cu1192 Cu983   2.753   1_655 S
H1194  O84     1.014   1_656 S
H1198  C1486   1.110   .     S
H1210  O1230   1.014   .     S
H1211  O1232   1.014   .     S
H1212  O1234   1.011   .     S
H1213  O1237   1.014   .     S
H1214  O1239   1.014   .     S
H1215  C953    1.079   1_655 S
H1216  O1241   1.014   .     S
H1222  O1226   1.009   .     S
O1245  C946    1.323   1_655 S
C1249  O1346   1.312   .     A
C1249  C1252   1.490   .     S
C1249  O1433   1.334   .     S
C1250  C1285   1.495   .     S
C1250  C1460   1.420   1_455 S
C1251  C1260   1.481   .     S
C1251  C1294   1.423   .     A
C1251  C1397   1.415   .     S
C1252  C1292   1.437   .     A
C1252  C1354   1.420   .     S
C1253  C1286   1.470   .     S
C1253  C1255   1.436   .     A
C1253  N1328   1.383   .     A
C1254  C1256   1.448   .     A
C1254  N1327   1.372   .     A
C1254  C1287   1.479   .     S
C1255  C1288   1.475   .     S
C1255  N1327   1.369   .     A
C1256  C1289   1.498   .     S
C1256  N1328   1.399   .     A
C1257  O1350   1.327   .     A
C1257  C1259   1.485   .     S
C1257  O1452   1.318   .     S
C1258  O1351   1.314   .     A
C1258  C1261   1.469   .     S
C1258  O1557   1.323   1_455 S
C1259  C1266   1.400   .     A
C1259  C1264   1.398   .     A
C1260  O1340   1.314   .     A
C1260  O1451   1.327   .     S
C1261  C1267   1.402   .     A
C1261  C1265   1.386   .     A
C1262  H1322   1.069   .     S
C1262  C1264   1.393   .     A
C1262  C1270   1.408   .     A
C1263  H1323   1.061   .     S
C1263  C1272   1.390   .     A
C1263  C1265   1.393   .     A
C1264  H1425   1.082   .     S
C1265  H1527   1.079   1_455 S
C1266  C1268   1.412   .     A
C1266  H1308   1.066   .     S
C1267  C1269   1.416   .     A
C1267  H1297   1.076   .     S
C1268  C1273   1.420   .     A
C1268  C1270   1.417   .     A
C1269  C1274   1.412   .     A
C1269  C1272   1.403   .     A
C1270  C354    1.418   1_556 S
C1271  C1290   1.382   .     A
C1271  C1274   1.382   .     A
C1271  H1324   1.079   .     S
C1273  C1282   1.402   .     A
C1273  C338    1.416   1_556 S
C1275  O1352   1.221   .     D
C1275  O1330   1.402   .     S
C1275  C1290   1.455   .     S
C1276  O1331   1.220   .     D
C1276  C1291   1.481   .     S
C1276  O396    1.398   1_556 S
C1277  C1278   1.544   .     S
C1277  C1292   1.535   .     S
C1277  H1305   1.108   .     S
C1277  H1304   1.082   .     S
C1278  C1279   1.525   .     S
C1278  H1303   1.109   .     S
C1279  H1300   1.108   .     S
C1279  H1301   1.110   .     S
C1279  H1299   1.106   .     S
C1280  C1293   1.525   .     S
C1280  H1312   1.105   .     S
C1280  C1281   1.538   .     S
C1280  H1313   1.109   .     S
C1281  H1310   1.112   .     S
C1281  H1311   1.110   .     S
C1281  C1283   1.526   .     S
C1282  H1325   1.075   .     S
C1282  C1291   1.397   .     A
C1283  H1306   1.111   .     S
C1283  H1307   1.108   .     S
C1283  H1309   1.110   .     S
C1284  C1294   1.488   .     S
C1284  O1334   1.400   .     S
C1284  O1333   1.223   .     D
C1285  O1336   1.399   .     S
C1285  O1335   1.223   .     D
C1286  O1337   1.222   .     D
C1286  O1338   1.390   .     S
C1287  O1341   1.396   .     S
C1287  O1339   1.222   .     D
C1288  O1342   1.221   .     D
C1288  O1343   1.393   .     S
C1289  O1344   1.214   .     D
C1289  O1345   1.395   .     S
C1291  C336    1.405   1_556 S
C1293  C1459   1.415   1_455 S
C1293  C1562   1.402   .     S
C1294  C1604   1.406   .     S
Cu1295 N1327   2.069   .     S
Cu1295 O1347   2.002   .     S
Cu1295 O1351   1.970   .     S
Cu1295 O1348   1.946   .     S
Cu1295 O1329   2.002   .     S
Cu1295 Cu1504  2.753   1_455 S
Cu1296 O1350   1.970   .     S
Cu1296 O1346   2.002   .     S
Cu1296 N1328   2.069   .     S
Cu1296 O1349   1.946   .     S
Cu1296 O1340   2.002   .     S
Cu1296 Cu1399  2.753   .     S
H1298  O500    1.014   1_556 S
H1302  C1590   1.110   .     S
H1314  O1334   1.014   .     S
H1315  O1336   1.014   .     S
H1316  O1338   1.011   .     S
H1317  O1341   1.014   .     S
H1318  O1343   1.014   .     S
H1319  C1369   1.079   .     S
H1320  O1345   1.014   .     S
H1321  C1472   1.082   1_455 S
H1326  O1330   1.009   .     S
O1329  C1457   1.334   1_455 S
O1332  H570    1.014   1_455 S
O1347  C1468   1.327   1_455 S
O1348  C1465   1.318   1_455 S
O1349  C1362   1.323   .     S
C1353  O1450   1.312   .     A
C1353  C1356   1.490   .     S
C1353  O1537   1.334   .     S
C1354  C1389   1.495   .     S
C1355  C1364   1.481   .     S
C1355  C1398   1.423   .     A
C1355  C1501   1.415   .     S
C1356  C1396   1.437   .     A
C1356  C1458   1.420   .     S
C1357  C1390   1.470   .     S
C1357  C1359   1.436   .     A
C1357  N1432   1.383   .     A
C1358  C1360   1.448   .     A
C1358  N1431   1.372   .     A
C1358  C1391   1.479   .     S
C1359  C1392   1.475   .     S
C1359  N1431   1.369   .     A
C1360  C1393   1.498   .     S
C1360  N1432   1.399   .     A
C1361  O1454   1.327   .     A
C1361  C1363   1.485   .     S
C1361  O1556   1.318   .     S
C1362  O1455   1.314   .     A
C1362  C1365   1.469   .     S
C1363  C1370   1.400   .     A
C1363  C1368   1.398   .     A
C1364  O1444   1.314   .     A
C1364  O1555   1.327   .     S
C1365  C1371   1.402   .     A
C1365  C1369   1.386   .     A
C1366  H1426   1.069   .     S
C1366  C1368   1.393   .     A
C1366  C1374   1.408   .     A
C1367  H1427   1.061   .     S
C1367  C1376   1.390   .     A
C1367  C1369   1.393   .     A
C1368  H1529   1.082   .     S
C1370  C1372   1.412   .     A
C1370  H1412   1.066   .     S
C1371  C1373   1.416   .     A
C1371  H1401   1.076   .     S
C1372  C1377   1.420   .     A
C1372  C1374   1.417   .     A
C1373  C1378   1.412   .     A
C1373  C1376   1.403   .     A
C1374  C458    1.418   1_556 S
C1375  C1394   1.382   .     A
C1375  C1378   1.382   .     A
C1375  H1428   1.079   .     S
C1377  C1386   1.402   .     A
C1377  C442    1.416   1_556 S
C1379  O1456   1.221   .     D
C1379  O1434   1.402   .     S
C1379  C1394   1.455   .     S
C1380  O1435   1.220   .     D
C1380  C1395   1.481   .     S
C1380  O500    1.398   1_556 S
C1381  C1382   1.544   .     S
C1381  C1396   1.535   .     S
C1381  H1409   1.108   .     S
C1381  H1408   1.082   .     S
C1382  C1383   1.525   .     S
C1382  H1407   1.109   .     S
C1383  H1404   1.108   .     S
C1383  H1405   1.110   .     S
C1383  H1403   1.106   .     S
C1384  C1397   1.525   .     S
C1384  H1416   1.105   .     S
C1384  C1385   1.538   .     S
C1384  H1417   1.109   .     S
C1385  H1414   1.112   .     S
C1385  H1415   1.110   .     S
C1385  C1387   1.526   .     S
C1386  H1429   1.075   .     S
C1386  C1395   1.397   .     A
C1387  H1410   1.111   .     S
C1387  H1411   1.108   .     S
C1387  H1413   1.110   .     S
C1388  C1398   1.488   .     S
C1388  O1438   1.400   .     S
C1388  O1437   1.223   .     D
C1389  O1440   1.399   .     S
C1389  O1439   1.223   .     D
C1390  O1441   1.222   .     D
C1390  O1442   1.390   .     S
C1391  O1445   1.396   .     S
C1391  O1443   1.222   .     D
C1392  O1446   1.221   .     D
C1392  O1447   1.393   .     S
C1393  O1448   1.214   .     D
C1393  O1449   1.395   .     S
C1395  C440    1.405   1_556 S
C1397  C1666   1.402   .     S
C1398  C1708   1.406   .     S
Cu1399 N1431   2.069   .     S
Cu1399 O1451   2.002   .     S
Cu1399 O1455   1.970   .     S
Cu1399 O1452   1.946   .     S
Cu1399 O1433   2.002   .     S
Cu1400 O1454   1.970   .     S
Cu1400 O1450   2.002   .     S
Cu1400 N1432   2.069   .     S
Cu1400 O1453   1.946   .     S
Cu1400 O1444   2.002   .     S
Cu1400 Cu1503  2.753   .     S
H1402  O604    1.014   1_556 S
H1406  C1694   1.110   .     S
H1418  O1438   1.014   .     S
H1419  O1440   1.014   .     S
H1420  O1442   1.011   .     S
H1421  O1445   1.014   .     S
H1422  O1447   1.014   .     S
H1423  C1473   1.079   .     S
H1424  O1449   1.014   .     S
H1430  O1434   1.009   .     S
O1453  C1466   1.323   .     S
C1457  O1554   1.312   .     A
C1457  C1460   1.490   .     S
C1457  O1329   1.334   1_655 S
C1458  C1493   1.495   .     S
C1459  C1468   1.481   .     S
C1459  C1502   1.423   .     A
C1459  C1293   1.415   1_655 S
C1460  C1500   1.437   .     A
C1460  C1250   1.420   1_655 S
C1461  C1494   1.470   .     S
C1461  C1463   1.436   .     A
C1461  N1536   1.383   .     A
C1462  C1464   1.448   .     A
C1462  N1535   1.372   .     A
C1462  C1495   1.479   .     S
C1463  C1496   1.475   .     S
C1463  N1535   1.369   .     A
C1464  C1497   1.498   .     S
C1464  N1536   1.399   .     A
C1465  O1558   1.327   .     A
C1465  C1467   1.485   .     S
C1465  O1348   1.318   1_655 S
C1466  O1559   1.314   .     A
C1466  C1469   1.469   .     S
C1467  C1474   1.400   .     A
C1467  C1472   1.398   .     A
C1468  O1548   1.314   .     A
C1468  O1347   1.327   1_655 S
C1469  C1475   1.402   .     A
C1469  C1473   1.386   .     A
C1470  H1530   1.069   .     S
C1470  C1472   1.393   .     A
C1470  C1478   1.408   .     A
C1471  H1531   1.061   .     S
C1471  C1480   1.390   .     A
C1471  C1473   1.393   .     A
C1472  H1321   1.082   1_655 S
C1474  C1476   1.412   .     A
C1474  H1516   1.066   .     S
C1475  C1477   1.416   .     A
C1475  H1505   1.076   .     S
C1476  C1481   1.420   .     A
C1476  C1478   1.417   .     A
C1477  C1482   1.412   .     A
C1477  C1480   1.403   .     A
C1478  C562    1.418   1_556 S
C1479  C1498   1.382   .     A
C1479  C1482   1.382   .     A
C1479  H1532   1.079   .     S
C1481  C1490   1.402   .     A
C1481  C546    1.416   1_556 S
C1483  O1560   1.221   .     D
C1483  O1538   1.402   .     S
C1483  C1498   1.455   .     S
C1484  O1539   1.220   .     D
C1484  C1499   1.481   .     S
C1484  O604    1.398   1_556 S
C1485  C1486   1.544   .     S
C1485  C1500   1.535   .     S
C1485  H1513   1.108   .     S
C1485  H1512   1.082   .     S
C1486  C1487   1.525   .     S
C1486  H1511   1.109   .     S
C1487  H1508   1.108   .     S
C1487  H1509   1.110   .     S
C1487  H1507   1.106   .     S
C1488  C1501   1.525   .     S
C1488  H1520   1.105   .     S
C1488  C1489   1.538   .     S
C1488  H1521   1.109   .     S
C1489  H1518   1.112   .     S
C1489  H1519   1.110   .     S
C1489  C1491   1.526   .     S
C1490  H1533   1.075   .     S
C1490  C1499   1.397   .     A
C1491  H1514   1.111   .     S
C1491  H1515   1.108   .     S
C1491  H1517   1.110   .     S
C1492  C1502   1.488   .     S
C1492  O1542   1.400   .     S
C1492  O1541   1.223   .     D
C1493  O1544   1.399   .     S
C1493  O1543   1.223   .     D
C1494  O1545   1.222   .     D
C1494  O1546   1.390   .     S
C1495  O1549   1.396   .     S
C1495  O1547   1.222   .     D
C1496  O1550   1.221   .     D
C1496  O1551   1.393   .     S
C1497  O1552   1.214   .     D
C1497  O1553   1.395   .     S
C1499  C544    1.405   1_556 S
C1501  C1770   1.402   .     S
C1502  C1812   1.406   .     S
Cu1503 N1535   2.069   .     S
Cu1503 O1555   2.002   .     S
Cu1503 O1559   1.970   .     S
Cu1503 O1556   1.946   .     S
Cu1503 O1537   2.002   .     S
Cu1504 O1558   1.970   .     S
Cu1504 O1554   2.002   .     S
Cu1504 N1536   2.069   .     S
Cu1504 O1557   1.946   .     S
Cu1504 O1548   2.002   .     S
Cu1504 Cu1295  2.753   1_655 S
H1506  O396    1.014   1_656 S
H1510  C1798   1.110   .     S
H1522  O1542   1.014   .     S
H1523  O1544   1.014   .     S
H1524  O1546   1.011   .     S
H1525  O1549   1.014   .     S
H1526  O1551   1.014   .     S
H1527  C1265   1.079   1_655 S
H1528  O1553   1.014   .     S
H1534  O1538   1.009   .     S
O1557  C1258   1.323   1_655 S
C1561  O1658   1.312   .     A
C1561  C1564   1.490   .     S
C1561  O1745   1.334   .     S
C1562  C1597   1.495   .     S
C1562  C1772   1.420   1_455 S
C1563  C1572   1.481   .     S
C1563  C1606   1.423   .     A
C1563  C1709   1.415   .     S
C1564  C1604   1.437   .     A
C1564  C1666   1.420   .     S
C1565  C1598   1.470   .     S
C1565  C1567   1.436   .     A
C1565  N1640   1.383   .     A
C1566  C1568   1.448   .     A
C1566  N1639   1.372   .     A
C1566  C1599   1.479   .     S
C1567  C1600   1.475   .     S
C1567  N1639   1.369   .     A
C1568  C1601   1.498   .     S
C1568  N1640   1.399   .     A
C1569  O1662   1.327   .     A
C1569  C1571   1.485   .     S
C1569  O1764   1.318   .     S
C1570  O1663   1.314   .     A
C1570  C1573   1.469   .     S
C1570  O1869   1.323   1_455 S
C1571  C1578   1.400   .     A
C1571  C1576   1.398   .     A
C1572  O1652   1.314   .     A
C1572  O1763   1.327   .     S
C1573  C1579   1.402   .     A
C1573  C1577   1.386   .     A
C1574  H1634   1.069   .     S
C1574  C1576   1.393   .     A
C1574  C1582   1.408   .     A
C1575  H1635   1.061   .     S
C1575  C1584   1.390   .     A
C1575  C1577   1.393   .     A
C1576  H1737   1.082   .     S
C1577  H1839   1.079   1_455 S
C1578  C1580   1.412   .     A
C1578  H1620   1.066   .     S
C1579  C1581   1.416   .     A
C1579  H1609   1.076   .     S
C1580  C1585   1.420   .     A
C1580  C1582   1.417   .     A
C1581  C1586   1.412   .     A
C1581  C1584   1.403   .     A
C1582  C666    1.418   1_556 S
C1583  C1602   1.382   .     A
C1583  C1586   1.382   .     A
C1583  H1636   1.079   .     S
C1585  C1594   1.402   .     A
C1585  C650    1.416   1_556 S
C1587  O1664   1.221   .     D
C1587  O1642   1.402   .     S
C1587  C1602   1.455   .     S
C1588  O1643   1.220   .     D
C1588  C1603   1.481   .     S
C1588  O708    1.398   1_556 S
C1589  C1590   1.544   .     S
C1589  C1604   1.535   .     S
C1589  H1617   1.108   .     S
C1589  H1616   1.082   .     S
C1590  C1591   1.525   .     S
C1590  H1615   1.109   .     S
C1591  H1612   1.108   .     S
C1591  H1613   1.110   .     S
C1591  H1611   1.106   .     S
C1592  C1605   1.525   .     S
C1592  H1624   1.105   .     S
C1592  C1593   1.538   .     S
C1592  H1625   1.109   .     S
C1593  H1622   1.112   .     S
C1593  H1623   1.110   .     S
C1593  C1595   1.526   .     S
C1594  H1637   1.075   .     S
C1594  C1603   1.397   .     A
C1595  H1618   1.111   .     S
C1595  H1619   1.108   .     S
C1595  H1621   1.110   .     S
C1596  C1606   1.488   .     S
C1596  O1646   1.400   .     S
C1596  O1645   1.223   .     D
C1597  O1648   1.399   .     S
C1597  O1647   1.223   .     D
C1598  O1649   1.222   .     D
C1598  O1650   1.390   .     S
C1599  O1653   1.396   .     S
C1599  O1651   1.222   .     D
C1600  O1654   1.221   .     D
C1600  O1655   1.393   .     S
C1601  O1656   1.214   .     D
C1601  O1657   1.395   .     S
C1603  C648    1.405   1_556 S
C1605  C1771   1.415   1_455 S
C1605  C938    1.402   1_565 S
C1606  C980    1.406   1_565 S
Cu1607 N1639   2.069   .     S
Cu1607 O1659   2.002   .     S
Cu1607 O1663   1.970   .     S
Cu1607 O1660   1.946   .     S
Cu1607 O1641   2.002   .     S
Cu1607 Cu1816  2.753   1_455 S
Cu1608 O1662   1.970   .     S
Cu1608 O1658   2.002   .     S
Cu1608 N1640   2.069   .     S
Cu1608 O1661   1.946   .     S
Cu1608 O1652   2.002   .     S
Cu1608 Cu1711  2.753   .     S
H1610  O812    1.014   1_556 S
H1614  C966    1.110   1_565 S
H1626  O1646   1.014   .     S
H1627  O1648   1.014   .     S
H1628  O1650   1.011   .     S
H1629  O1653   1.014   .     S
H1630  O1655   1.014   .     S
H1631  C1681   1.079   .     S
H1632  O1657   1.014   .     S
H1633  C1784   1.082   1_455 S
H1638  O1642   1.009   .     S
O1641  C1769   1.334   1_455 S
O1644  H882    1.014   1_455 S
O1659  C1780   1.327   1_455 S
O1660  C1777   1.318   1_455 S
O1661  C1674   1.323   .     S
C1665  O1762   1.312   .     A
C1665  C1668   1.490   .     S
C1665  O1849   1.334   .     S
C1666  C1701   1.495   .     S
C1667  C1676   1.481   .     S
C1667  C1710   1.423   .     A
C1667  C1813   1.415   .     S
C1668  C1708   1.437   .     A
C1668  C1770   1.420   .     S
C1669  C1702   1.470   .     S
C1669  C1671   1.436   .     A
C1669  N1744   1.383   .     A
C1670  C1672   1.448   .     A
C1670  N1743   1.372   .     A
C1670  C1703   1.479   .     S
C1671  C1704   1.475   .     S
C1671  N1743   1.369   .     A
C1672  C1705   1.498   .     S
C1672  N1744   1.399   .     A
C1673  O1766   1.327   .     A
C1673  C1675   1.485   .     S
C1673  O1868   1.318   .     S
C1674  O1767   1.314   .     A
C1674  C1677   1.469   .     S
C1675  C1682   1.400   .     A
C1675  C1680   1.398   .     A
C1676  O1756   1.314   .     A
C1676  O1867   1.327   .     S
C1677  C1683   1.402   .     A
C1677  C1681   1.386   .     A
C1678  H1738   1.069   .     S
C1678  C1680   1.393   .     A
C1678  C1686   1.408   .     A
C1679  H1739   1.061   .     S
C1679  C1688   1.390   .     A
C1679  C1681   1.393   .     A
C1680  H1841   1.082   .     S
C1682  C1684   1.412   .     A
C1682  H1724   1.066   .     S
C1683  C1685   1.416   .     A
C1683  H1713   1.076   .     S
C1684  C1689   1.420   .     A
C1684  C1686   1.417   .     A
C1685  C1690   1.412   .     A
C1685  C1688   1.403   .     A
C1686  C770    1.418   1_556 S
C1687  C1706   1.382   .     A
C1687  C1690   1.382   .     A
C1687  H1740   1.079   .     S
C1689  C1698   1.402   .     A
C1689  C754    1.416   1_556 S
C1691  O1768   1.221   .     D
C1691  O1746   1.402   .     S
C1691  C1706   1.455   .     S
C1692  O1747   1.220   .     D
C1692  C1707   1.481   .     S
C1692  O812    1.398   1_556 S
C1693  C1694   1.544   .     S
C1693  C1708   1.535   .     S
C1693  H1721   1.108   .     S
C1693  H1720   1.082   .     S
C1694  C1695   1.525   .     S
C1694  H1719   1.109   .     S
C1695  H1716   1.108   .     S
C1695  H1717   1.110   .     S
C1695  H1715   1.106   .     S
C1696  C1709   1.525   .     S
C1696  H1728   1.105   .     S
C1696  C1697   1.538   .     S
C1696  H1729   1.109   .     S
C1697  H1726   1.112   .     S
C1697  H1727   1.110   .     S
C1697  C1699   1.526   .     S
C1698  H1741   1.075   .     S
C1698  C1707   1.397   .     A
C1699  H1722   1.111   .     S
C1699  H1723   1.108   .     S
C1699  H1725   1.110   .     S
C1700  C1710   1.488   .     S
C1700  O1750   1.400   .     S
C1700  O1749   1.223   .     D
C1701  O1752   1.399   .     S
C1701  O1751   1.223   .     D
C1702  O1753   1.222   .     D
C1702  O1754   1.390   .     S
C1703  O1757   1.396   .     S
C1703  O1755   1.222   .     D
C1704  O1758   1.221   .     D
C1704  O1759   1.393   .     S
C1705  O1760   1.214   .     D
C1705  O1761   1.395   .     S
C1707  C752    1.405   1_556 S
C1709  C1042   1.402   1_565 S
C1710  C1084   1.406   1_565 S
Cu1711 N1743   2.069   .     S
Cu1711 O1763   2.002   .     S
Cu1711 O1767   1.970   .     S
Cu1711 O1764   1.946   .     S
Cu1711 O1745   2.002   .     S
Cu1712 O1766   1.970   .     S
Cu1712 O1762   2.002   .     S
Cu1712 N1744   2.069   .     S
Cu1712 O1765   1.946   .     S
Cu1712 O1756   2.002   .     S
Cu1712 Cu1815  2.753   .     S
H1714  O916    1.014   1_556 S
H1718  C1070   1.110   1_565 S
H1730  O1750   1.014   .     S
H1731  O1752   1.014   .     S
H1732  O1754   1.011   .     S
H1733  O1757   1.014   .     S
H1734  O1759   1.014   .     S
H1735  C1785   1.079   .     S
H1736  O1761   1.014   .     S
H1742  O1746   1.009   .     S
O1765  C1778   1.323   .     S
C1769  O1866   1.312   .     A
C1769  C1772   1.490   .     S
C1769  O1641   1.334   1_655 S
C1770  C1805   1.495   .     S
C1771  C1780   1.481   .     S
C1771  C1814   1.423   .     A
C1771  C1605   1.415   1_655 S
C1772  C1812   1.437   .     A
C1772  C1562   1.420   1_655 S
C1773  C1806   1.470   .     S
C1773  C1775   1.436   .     A
C1773  N1848   1.383   .     A
C1774  C1776   1.448   .     A
C1774  N1847   1.372   .     A
C1774  C1807   1.479   .     S
C1775  C1808   1.475   .     S
C1775  N1847   1.369   .     A
C1776  C1809   1.498   .     S
C1776  N1848   1.399   .     A
C1777  O1870   1.327   .     A
C1777  C1779   1.485   .     S
C1777  O1660   1.318   1_655 S
C1778  O1871   1.314   .     A
C1778  C1781   1.469   .     S
C1779  C1786   1.400   .     A
C1779  C1784   1.398   .     A
C1780  O1860   1.314   .     A
C1780  O1659   1.327   1_655 S
C1781  C1787   1.402   .     A
C1781  C1785   1.386   .     A
C1782  H1842   1.069   .     S
C1782  C1784   1.393   .     A
C1782  C1790   1.408   .     A
C1783  H1843   1.061   .     S
C1783  C1792   1.390   .     A
C1783  C1785   1.393   .     A
C1784  H1633   1.082   1_655 S
C1786  C1788   1.412   .     A
C1786  H1828   1.066   .     S
C1787  C1789   1.416   .     A
C1787  H1817   1.076   .     S
C1788  C1793   1.420   .     A
C1788  C1790   1.417   .     A
C1789  C1794   1.412   .     A
C1789  C1792   1.403   .     A
C1790  C874    1.418   1_556 S
C1791  C1810   1.382   .     A
C1791  C1794   1.382   .     A
C1791  H1844   1.079   .     S
C1793  C1802   1.402   .     A
C1793  C858    1.416   1_556 S
C1795  O1872   1.221   .     D
C1795  O1850   1.402   .     S
C1795  C1810   1.455   .     S
C1796  O1851   1.220   .     D
C1796  C1811   1.481   .     S
C1796  O916    1.398   1_556 S
C1797  C1798   1.544   .     S
C1797  C1812   1.535   .     S
C1797  H1825   1.108   .     S
C1797  H1824   1.082   .     S
C1798  C1799   1.525   .     S
C1798  H1823   1.109   .     S
C1799  H1820   1.108   .     S
C1799  H1821   1.110   .     S
C1799  H1819   1.106   .     S
C1800  C1813   1.525   .     S
C1800  H1832   1.105   .     S
C1800  C1801   1.538   .     S
C1800  H1833   1.109   .     S
C1801  H1830   1.112   .     S
C1801  H1831   1.110   .     S
C1801  C1803   1.526   .     S
C1802  H1845   1.075   .     S
C1802  C1811   1.397   .     A
C1803  H1826   1.111   .     S
C1803  H1827   1.108   .     S
C1803  H1829   1.110   .     S
C1804  C1814   1.488   .     S
C1804  O1854   1.400   .     S
C1804  O1853   1.223   .     D
C1805  O1856   1.399   .     S
C1805  O1855   1.223   .     D
C1806  O1857   1.222   .     D
C1806  O1858   1.390   .     S
C1807  O1861   1.396   .     S
C1807  O1859   1.222   .     D
C1808  O1862   1.221   .     D
C1808  O1863   1.393   .     S
C1809  O1864   1.214   .     D
C1809  O1865   1.395   .     S
C1811  C856    1.405   1_556 S
C1813  C1146   1.402   1_565 S
C1814  C1188   1.406   1_565 S
Cu1815 N1847   2.069   .     S
Cu1815 O1867   2.002   .     S
Cu1815 O1871   1.970   .     S
Cu1815 O1868   1.946   .     S
Cu1815 O1849   2.002   .     S
Cu1816 O1870   1.970   .     S
Cu1816 O1866   2.002   .     S
Cu1816 N1848   2.069   .     S
Cu1816 O1869   1.946   .     S
Cu1816 O1860   2.002   .     S
Cu1816 Cu1607  2.753   1_655 S
H1818  O708    1.014   1_656 S
H1822  C1174   1.110   1_565 S
H1834  O1854   1.014   .     S
H1835  O1856   1.014   .     S
H1836  O1858   1.011   .     S
H1837  O1861   1.014   .     S
H1838  O1863   1.014   .     S
H1839  C1577   1.079   1_655 S
H1840  O1865   1.014   .     S
H1846  O1850   1.009   .     S
O1869  C1570   1.323   1_655 S
