data_str_m3_o1_o10_pcu_sym.221
_audit_creation_date              2020-01-03
_audit_creation_method            'Materials Studio'
_symmetry_space_group_name_H-M    'P1'
_symmetry_Int_Tables_number       1
_symmetry_cell_setting            triclinic
loop_
_symmetry_equiv_pos_as_xyz
  x,y,z
_cell_length_a                    25.9686
_cell_length_b                    31.9764
_cell_length_c                    29.5408
_cell_angle_alpha                 90.0842
_cell_angle_beta                  98.3842
_cell_angle_gamma                 90.6439
loop_
_atom_site_label
_atom_site_type_symbol
_atom_site_fract_x
_atom_site_fract_y
_atom_site_fract_z
_atom_site_U_iso_or_equiv
_atom_site_adp_type
_atom_site_occupancy
C1     C     0.16501   0.08675   0.16640   0.00000  Uiso   1.00
C2     C     0.16833   0.24659   0.16694   0.00000  Uiso   1.00
C3     C     0.06718   0.16630   0.15488   0.00000  Uiso   1.00
C4     C     0.26616   0.16703   0.17846   0.00000  Uiso   1.00
C5     C     0.01287   0.15921   0.14999   0.00000  Uiso   1.00
C6     C     0.32046   0.17412   0.18334   0.00000  Uiso   1.00
C7     C     0.12838   0.01994   0.13500   0.00000  Uiso   1.00
C8     C     0.20496   0.31339   0.19833   0.00000  Uiso   1.00
C9     C     0.13170   0.31023   0.13563   0.00000  Uiso   1.00
C10    C     0.20164   0.02310   0.19770   0.00000  Uiso   1.00
C11    C     0.16911   0.29076   0.16702   0.00000  Uiso   1.00
C12    C     0.16423   0.04258   0.16631   0.00000  Uiso   1.00
C13    C     0.20088   0.19138   0.02838   0.00000  Uiso   1.00
C14    C     0.13245   0.14196   0.30495   0.00000  Uiso   1.00
C15    C     0.20085   0.19138   0.31376   0.00000  Uiso   1.00
C16    C     0.13248   0.14195   0.01957   0.00000  Uiso   1.00
H17    H     0.10422   0.29154   0.11257   0.00000  Uiso   1.00
H18    H     0.22912   0.04180   0.22076   0.00000  Uiso   1.00
H19    H     0.22824   0.21113   0.05007   0.00000  Uiso   1.00
H20    H     0.10509   0.12220   0.28327   0.00000  Uiso   1.00
H21    H     0.22816   0.21116   0.29913   0.00000  Uiso   1.00
H22    H     0.10517   0.12217   0.03421   0.00000  Uiso   1.00
N23    N     0.16665   0.16666   0.28573   0.00000  Uiso   1.00
N24    N     0.16668   0.16668   0.04760   0.00000  Uiso   1.00
O25    O     0.16666   0.10558   0.20487   0.00000  Uiso   1.00
O26    O     0.16667   0.22775   0.12846   0.00000  Uiso   1.00
O27    O     0.16666   0.10559   0.12843   0.00000  Uiso   1.00
O28    O     0.16667   0.22774   0.20490   0.00000  Uiso   1.00
O29    O     0.09058   0.16666   0.19595   0.00000  Uiso   1.00
O30    O     0.24275   0.16667   0.13739   0.00000  Uiso   1.00
O31    O     0.09058   0.16667   0.11950   0.00000  Uiso   1.00
O32    O     0.24275   0.16666   0.21383   0.00000  Uiso   1.00
Zn33   Zn    0.16667   0.16666   0.21771   0.00000  Uiso   1.00
Zn34   Zn    0.16667   0.16667   0.11563   0.00000  Uiso   1.00
C35    C     0.32394   0.12791   0.11441   0.00000  Uiso   1.00
H36    H     0.29444   0.10553   0.12155   0.00000  Uiso   1.00
O37    O     0.00488   0.12710   0.07682   0.00000  Uiso   1.00
C38    C     0.00939   0.20542   0.21892   0.00000  Uiso   1.00
H39    H     0.03890   0.22781   0.21178   0.00000  Uiso   1.00
O40    O     0.32845   0.20624   0.25651   0.00000  Uiso   1.00
C41    C     0.08637   0.04036   0.10329   0.00000  Uiso   1.00
H42    H     0.07914   0.07344   0.10612   0.00000  Uiso   1.00
O43    O     0.05886   0.02029   0.07371   0.00000  Uiso   1.00
C44    C     0.24697   0.29297   0.23004   0.00000  Uiso   1.00
H45    H     0.25417   0.25989   0.22723   0.00000  Uiso   1.00
O46    O     0.27452   0.31305   0.25958   0.00000  Uiso   1.00
C47    C     0.49834   0.08675   0.16640   0.00000  Uiso   1.00
C48    C     0.50166   0.24659   0.16694   0.00000  Uiso   1.00
C49    C     0.40051   0.16630   0.15488   0.00000  Uiso   1.00
C50    C     0.59949   0.16703   0.17846   0.00000  Uiso   1.00
C51    C     0.34620   0.15921   0.14999   0.00000  Uiso   1.00
C52    C     0.65380   0.17412   0.18334   0.00000  Uiso   1.00
C53    C     0.46171   0.01994   0.13500   0.00000  Uiso   1.00
C54    C     0.53829   0.31339   0.19833   0.00000  Uiso   1.00
C55    C     0.46503   0.31023   0.13563   0.00000  Uiso   1.00
C56    C     0.53498   0.02310   0.19770   0.00000  Uiso   1.00
C57    C     0.50244   0.29076   0.16702   0.00000  Uiso   1.00
C58    C     0.49756   0.04258   0.16631   0.00000  Uiso   1.00
C59    C     0.53421   0.19138   0.02838   0.00000  Uiso   1.00
C60    C     0.46579   0.14196   0.30495   0.00000  Uiso   1.00
C61    C     0.53418   0.19138   0.31376   0.00000  Uiso   1.00
C62    C     0.46582   0.14195   0.01957   0.00000  Uiso   1.00
H63    H     0.43756   0.29154   0.11257   0.00000  Uiso   1.00
H64    H     0.56245   0.04180   0.22076   0.00000  Uiso   1.00
H65    H     0.56158   0.21113   0.05007   0.00000  Uiso   1.00
H66    H     0.43842   0.12220   0.28327   0.00000  Uiso   1.00
H67    H     0.56149   0.21116   0.29913   0.00000  Uiso   1.00
H68    H     0.43851   0.12217   0.03421   0.00000  Uiso   1.00
N69    N     0.49999   0.16666   0.28573   0.00000  Uiso   1.00
N70    N     0.50001   0.16668   0.04760   0.00000  Uiso   1.00
O71    O     0.50000   0.10558   0.20487   0.00000  Uiso   1.00
O72    O     0.50000   0.22775   0.12846   0.00000  Uiso   1.00
O73    O     0.50000   0.10559   0.12843   0.00000  Uiso   1.00
O74    O     0.50000   0.22774   0.20490   0.00000  Uiso   1.00
O75    O     0.42392   0.16666   0.19595   0.00000  Uiso   1.00
O76    O     0.57608   0.16667   0.13739   0.00000  Uiso   1.00
O77    O     0.42392   0.16667   0.11950   0.00000  Uiso   1.00
O78    O     0.57608   0.16666   0.21383   0.00000  Uiso   1.00
Zn79   Zn    0.50000   0.16666   0.21771   0.00000  Uiso   1.00
Zn80   Zn    0.50000   0.16667   0.11563   0.00000  Uiso   1.00
C81    C     0.65727   0.12791   0.11441   0.00000  Uiso   1.00
H82    H     0.62777   0.10553   0.12155   0.00000  Uiso   1.00
O83    O     0.33821   0.12710   0.07682   0.00000  Uiso   1.00
C84    C     0.34273   0.20542   0.21892   0.00000  Uiso   1.00
H85    H     0.37223   0.22781   0.21178   0.00000  Uiso   1.00
O86    O     0.66178   0.20624   0.25651   0.00000  Uiso   1.00
C87    C     0.41970   0.04036   0.10329   0.00000  Uiso   1.00
H88    H     0.41248   0.07344   0.10612   0.00000  Uiso   1.00
O89    O     0.39219   0.02029   0.07371   0.00000  Uiso   1.00
C90    C     0.58031   0.29297   0.23004   0.00000  Uiso   1.00
H91    H     0.58751   0.25989   0.22723   0.00000  Uiso   1.00
O92    O     0.60785   0.31305   0.25958   0.00000  Uiso   1.00
C93    C     0.83167   0.08675   0.16640   0.00000  Uiso   1.00
C94    C     0.83500   0.24659   0.16694   0.00000  Uiso   1.00
C95    C     0.73384   0.16630   0.15488   0.00000  Uiso   1.00
C96    C     0.93282   0.16703   0.17846   0.00000  Uiso   1.00
C97    C     0.67954   0.15921   0.14999   0.00000  Uiso   1.00
C98    C     0.98713   0.17412   0.18334   0.00000  Uiso   1.00
C99    C     0.79505   0.01994   0.13500   0.00000  Uiso   1.00
C100   C     0.87163   0.31339   0.19833   0.00000  Uiso   1.00
C101   C     0.79836   0.31023   0.13563   0.00000  Uiso   1.00
C102   C     0.86831   0.02310   0.19770   0.00000  Uiso   1.00
C103   C     0.83577   0.29076   0.16702   0.00000  Uiso   1.00
C104   C     0.83090   0.04258   0.16631   0.00000  Uiso   1.00
C105   C     0.86755   0.19138   0.02838   0.00000  Uiso   1.00
C106   C     0.79912   0.14196   0.30495   0.00000  Uiso   1.00
C107   C     0.86752   0.19138   0.31376   0.00000  Uiso   1.00
C108   C     0.79915   0.14195   0.01957   0.00000  Uiso   1.00
H109   H     0.77089   0.29154   0.11257   0.00000  Uiso   1.00
H110   H     0.89578   0.04180   0.22076   0.00000  Uiso   1.00
H111   H     0.89491   0.21113   0.05007   0.00000  Uiso   1.00
H112   H     0.77176   0.12220   0.28327   0.00000  Uiso   1.00
H113   H     0.89483   0.21116   0.29913   0.00000  Uiso   1.00
H114   H     0.77184   0.12217   0.03421   0.00000  Uiso   1.00
N115   N     0.83332   0.16666   0.28573   0.00000  Uiso   1.00
N116   N     0.83335   0.16668   0.04760   0.00000  Uiso   1.00
O117   O     0.83333   0.10558   0.20487   0.00000  Uiso   1.00
O118   O     0.83334   0.22775   0.12846   0.00000  Uiso   1.00
O119   O     0.83333   0.10559   0.12843   0.00000  Uiso   1.00
O120   O     0.83334   0.22774   0.20490   0.00000  Uiso   1.00
O121   O     0.75725   0.16666   0.19595   0.00000  Uiso   1.00
O122   O     0.90942   0.16667   0.13739   0.00000  Uiso   1.00
O123   O     0.75725   0.16667   0.11950   0.00000  Uiso   1.00
O124   O     0.90942   0.16666   0.21383   0.00000  Uiso   1.00
Zn125  Zn    0.83333   0.16666   0.21771   0.00000  Uiso   1.00
Zn126  Zn    0.83333   0.16667   0.11563   0.00000  Uiso   1.00
C127   C     0.99061   0.12791   0.11441   0.00000  Uiso   1.00
H128   H     0.96111   0.10553   0.12155   0.00000  Uiso   1.00
O129   O     0.67154   0.12710   0.07682   0.00000  Uiso   1.00
C130   C     0.67606   0.20542   0.21892   0.00000  Uiso   1.00
H131   H     0.70556   0.22781   0.21178   0.00000  Uiso   1.00
O132   O     0.99512   0.20624   0.25651   0.00000  Uiso   1.00
C133   C     0.75304   0.04036   0.10329   0.00000  Uiso   1.00
H134   H     0.74581   0.07344   0.10612   0.00000  Uiso   1.00
O135   O     0.72552   0.02029   0.07371   0.00000  Uiso   1.00
C136   C     0.91364   0.29297   0.23004   0.00000  Uiso   1.00
H137   H     0.92084   0.25989   0.22723   0.00000  Uiso   1.00
O138   O     0.94119   0.31305   0.25958   0.00000  Uiso   1.00
C139   C     0.16501   0.42008   0.16640   0.00000  Uiso   1.00
C140   C     0.16833   0.57992   0.16694   0.00000  Uiso   1.00
C141   C     0.06718   0.49964   0.15488   0.00000  Uiso   1.00
C142   C     0.26616   0.50036   0.17846   0.00000  Uiso   1.00
C143   C     0.01287   0.49255   0.14999   0.00000  Uiso   1.00
C144   C     0.32046   0.50745   0.18334   0.00000  Uiso   1.00
C145   C     0.12838   0.35327   0.13500   0.00000  Uiso   1.00
C146   C     0.20496   0.64673   0.19833   0.00000  Uiso   1.00
C147   C     0.13170   0.64357   0.13563   0.00000  Uiso   1.00
C148   C     0.20164   0.35643   0.19770   0.00000  Uiso   1.00
C149   C     0.16911   0.62409   0.16702   0.00000  Uiso   1.00
C150   C     0.16423   0.37591   0.16631   0.00000  Uiso   1.00
C151   C     0.20088   0.52471   0.02838   0.00000  Uiso   1.00
C152   C     0.13245   0.47529   0.30495   0.00000  Uiso   1.00
C153   C     0.20085   0.52471   0.31376   0.00000  Uiso   1.00
C154   C     0.13248   0.47529   0.01957   0.00000  Uiso   1.00
H155   H     0.10422   0.62487   0.11257   0.00000  Uiso   1.00
H156   H     0.22912   0.37513   0.22076   0.00000  Uiso   1.00
H157   H     0.22824   0.54446   0.05007   0.00000  Uiso   1.00
H158   H     0.10509   0.45553   0.28327   0.00000  Uiso   1.00
H159   H     0.22816   0.54450   0.29913   0.00000  Uiso   1.00
H160   H     0.10517   0.45550   0.03421   0.00000  Uiso   1.00
N161   N     0.16665   0.49999   0.28573   0.00000  Uiso   1.00
N162   N     0.16668   0.50001   0.04760   0.00000  Uiso   1.00
O163   O     0.16666   0.43892   0.20487   0.00000  Uiso   1.00
O164   O     0.16667   0.56108   0.12846   0.00000  Uiso   1.00
O165   O     0.16666   0.43893   0.12843   0.00000  Uiso   1.00
O166   O     0.16667   0.56107   0.20490   0.00000  Uiso   1.00
O167   O     0.09058   0.50000   0.19595   0.00000  Uiso   1.00
O168   O     0.24275   0.50000   0.13739   0.00000  Uiso   1.00
O169   O     0.09058   0.50000   0.11950   0.00000  Uiso   1.00
O170   O     0.24275   0.50000   0.21383   0.00000  Uiso   1.00
Zn171  Zn    0.16667   0.49999   0.21771   0.00000  Uiso   1.00
Zn172  Zn    0.16667   0.50001   0.11563   0.00000  Uiso   1.00
C173   C     0.32394   0.46125   0.11441   0.00000  Uiso   1.00
H174   H     0.29444   0.43886   0.12155   0.00000  Uiso   1.00
O175   O     0.00488   0.46044   0.07682   0.00000  Uiso   1.00
C176   C     0.00939   0.53875   0.21892   0.00000  Uiso   1.00
H177   H     0.03890   0.56114   0.21178   0.00000  Uiso   1.00
O178   O     0.32845   0.53957   0.25651   0.00000  Uiso   1.00
C179   C     0.08637   0.37370   0.10329   0.00000  Uiso   1.00
H180   H     0.07914   0.40677   0.10612   0.00000  Uiso   1.00
O181   O     0.05886   0.35362   0.07371   0.00000  Uiso   1.00
C182   C     0.24697   0.62630   0.23004   0.00000  Uiso   1.00
H183   H     0.25417   0.59322   0.22723   0.00000  Uiso   1.00
O184   O     0.27452   0.64639   0.25958   0.00000  Uiso   1.00
C185   C     0.49834   0.42008   0.16640   0.00000  Uiso   1.00
C186   C     0.50166   0.57992   0.16694   0.00000  Uiso   1.00
C187   C     0.40051   0.49964   0.15488   0.00000  Uiso   1.00
C188   C     0.59949   0.50036   0.17846   0.00000  Uiso   1.00
C189   C     0.34620   0.49255   0.14999   0.00000  Uiso   1.00
C190   C     0.65380   0.50745   0.18334   0.00000  Uiso   1.00
C191   C     0.46171   0.35327   0.13500   0.00000  Uiso   1.00
C192   C     0.53829   0.64673   0.19833   0.00000  Uiso   1.00
C193   C     0.46503   0.64357   0.13563   0.00000  Uiso   1.00
C194   C     0.53498   0.35643   0.19770   0.00000  Uiso   1.00
C195   C     0.50244   0.62409   0.16702   0.00000  Uiso   1.00
C196   C     0.49756   0.37591   0.16631   0.00000  Uiso   1.00
C197   C     0.53421   0.52471   0.02838   0.00000  Uiso   1.00
C198   C     0.46579   0.47529   0.30495   0.00000  Uiso   1.00
C199   C     0.53418   0.52471   0.31376   0.00000  Uiso   1.00
C200   C     0.46582   0.47529   0.01957   0.00000  Uiso   1.00
H201   H     0.43756   0.62487   0.11257   0.00000  Uiso   1.00
H202   H     0.56245   0.37513   0.22076   0.00000  Uiso   1.00
H203   H     0.56158   0.54446   0.05007   0.00000  Uiso   1.00
H204   H     0.43842   0.45553   0.28327   0.00000  Uiso   1.00
H205   H     0.56149   0.54450   0.29913   0.00000  Uiso   1.00
H206   H     0.43851   0.45550   0.03421   0.00000  Uiso   1.00
N207   N     0.49999   0.49999   0.28573   0.00000  Uiso   1.00
N208   N     0.50001   0.50001   0.04760   0.00000  Uiso   1.00
O209   O     0.50000   0.43892   0.20487   0.00000  Uiso   1.00
O210   O     0.50000   0.56108   0.12846   0.00000  Uiso   1.00
O211   O     0.50000   0.43893   0.12843   0.00000  Uiso   1.00
O212   O     0.50000   0.56107   0.20490   0.00000  Uiso   1.00
O213   O     0.42392   0.50000   0.19595   0.00000  Uiso   1.00
O214   O     0.57608   0.50000   0.13739   0.00000  Uiso   1.00
O215   O     0.42392   0.50000   0.11950   0.00000  Uiso   1.00
O216   O     0.57608   0.50000   0.21383   0.00000  Uiso   1.00
Zn217  Zn    0.50000   0.49999   0.21771   0.00000  Uiso   1.00
Zn218  Zn    0.50000   0.50001   0.11563   0.00000  Uiso   1.00
C219   C     0.65727   0.46125   0.11441   0.00000  Uiso   1.00
H220   H     0.62777   0.43886   0.12155   0.00000  Uiso   1.00
O221   O     0.33821   0.46044   0.07682   0.00000  Uiso   1.00
C222   C     0.34273   0.53875   0.21892   0.00000  Uiso   1.00
H223   H     0.37223   0.56114   0.21178   0.00000  Uiso   1.00
O224   O     0.66178   0.53957   0.25651   0.00000  Uiso   1.00
C225   C     0.41970   0.37370   0.10329   0.00000  Uiso   1.00
H226   H     0.41248   0.40677   0.10612   0.00000  Uiso   1.00
O227   O     0.39219   0.35362   0.07371   0.00000  Uiso   1.00
C228   C     0.58031   0.62630   0.23004   0.00000  Uiso   1.00
H229   H     0.58751   0.59322   0.22723   0.00000  Uiso   1.00
O230   O     0.60785   0.64639   0.25958   0.00000  Uiso   1.00
C231   C     0.83167   0.42008   0.16640   0.00000  Uiso   1.00
C232   C     0.83500   0.57992   0.16694   0.00000  Uiso   1.00
C233   C     0.73384   0.49964   0.15488   0.00000  Uiso   1.00
C234   C     0.93282   0.50036   0.17846   0.00000  Uiso   1.00
C235   C     0.67954   0.49255   0.14999   0.00000  Uiso   1.00
C236   C     0.98713   0.50745   0.18334   0.00000  Uiso   1.00
C237   C     0.79505   0.35327   0.13500   0.00000  Uiso   1.00
C238   C     0.87163   0.64673   0.19833   0.00000  Uiso   1.00
C239   C     0.79836   0.64357   0.13563   0.00000  Uiso   1.00
C240   C     0.86831   0.35643   0.19770   0.00000  Uiso   1.00
C241   C     0.83577   0.62409   0.16702   0.00000  Uiso   1.00
C242   C     0.83090   0.37591   0.16631   0.00000  Uiso   1.00
C243   C     0.86755   0.52471   0.02838   0.00000  Uiso   1.00
C244   C     0.79912   0.47529   0.30495   0.00000  Uiso   1.00
C245   C     0.86752   0.52471   0.31376   0.00000  Uiso   1.00
C246   C     0.79915   0.47529   0.01957   0.00000  Uiso   1.00
H247   H     0.77089   0.62487   0.11257   0.00000  Uiso   1.00
H248   H     0.89578   0.37513   0.22076   0.00000  Uiso   1.00
H249   H     0.89491   0.54446   0.05007   0.00000  Uiso   1.00
H250   H     0.77176   0.45553   0.28327   0.00000  Uiso   1.00
H251   H     0.89483   0.54450   0.29913   0.00000  Uiso   1.00
H252   H     0.77184   0.45550   0.03421   0.00000  Uiso   1.00
N253   N     0.83332   0.49999   0.28573   0.00000  Uiso   1.00
N254   N     0.83335   0.50001   0.04760   0.00000  Uiso   1.00
O255   O     0.83333   0.43892   0.20487   0.00000  Uiso   1.00
O256   O     0.83334   0.56108   0.12846   0.00000  Uiso   1.00
O257   O     0.83333   0.43893   0.12843   0.00000  Uiso   1.00
O258   O     0.83334   0.56107   0.20490   0.00000  Uiso   1.00
O259   O     0.75725   0.50000   0.19595   0.00000  Uiso   1.00
O260   O     0.90942   0.50000   0.13739   0.00000  Uiso   1.00
O261   O     0.75725   0.50000   0.11950   0.00000  Uiso   1.00
O262   O     0.90942   0.50000   0.21383   0.00000  Uiso   1.00
Zn263  Zn    0.83333   0.49999   0.21771   0.00000  Uiso   1.00
Zn264  Zn    0.83333   0.50001   0.11563   0.00000  Uiso   1.00
C265   C     0.99061   0.46125   0.11441   0.00000  Uiso   1.00
H266   H     0.96111   0.43886   0.12155   0.00000  Uiso   1.00
O267   O     0.67154   0.46044   0.07682   0.00000  Uiso   1.00
C268   C     0.67606   0.53875   0.21892   0.00000  Uiso   1.00
H269   H     0.70556   0.56114   0.21178   0.00000  Uiso   1.00
O270   O     0.99512   0.53957   0.25651   0.00000  Uiso   1.00
C271   C     0.75304   0.37370   0.10329   0.00000  Uiso   1.00
H272   H     0.74581   0.40677   0.10612   0.00000  Uiso   1.00
O273   O     0.72552   0.35362   0.07371   0.00000  Uiso   1.00
C274   C     0.91364   0.62630   0.23004   0.00000  Uiso   1.00
H275   H     0.92084   0.59322   0.22723   0.00000  Uiso   1.00
O276   O     0.94119   0.64639   0.25958   0.00000  Uiso   1.00
C277   C     0.16501   0.75341   0.16640   0.00000  Uiso   1.00
C278   C     0.16833   0.91325   0.16694   0.00000  Uiso   1.00
C279   C     0.06718   0.83297   0.15488   0.00000  Uiso   1.00
C280   C     0.26616   0.83370   0.17846   0.00000  Uiso   1.00
C281   C     0.01287   0.82588   0.14999   0.00000  Uiso   1.00
C282   C     0.32046   0.84079   0.18334   0.00000  Uiso   1.00
C283   C     0.12838   0.68661   0.13500   0.00000  Uiso   1.00
C284   C     0.20496   0.98006   0.19833   0.00000  Uiso   1.00
C285   C     0.13170   0.97690   0.13563   0.00000  Uiso   1.00
C286   C     0.20164   0.68977   0.19770   0.00000  Uiso   1.00
C287   C     0.16911   0.95742   0.16702   0.00000  Uiso   1.00
C288   C     0.16423   0.70924   0.16631   0.00000  Uiso   1.00
C289   C     0.20088   0.85804   0.02838   0.00000  Uiso   1.00
C290   C     0.13245   0.80862   0.30495   0.00000  Uiso   1.00
C291   C     0.20085   0.85805   0.31376   0.00000  Uiso   1.00
C292   C     0.13248   0.80862   0.01957   0.00000  Uiso   1.00
H293   H     0.10422   0.95820   0.11257   0.00000  Uiso   1.00
H294   H     0.22912   0.70846   0.22076   0.00000  Uiso   1.00
H295   H     0.22824   0.87780   0.05007   0.00000  Uiso   1.00
H296   H     0.10509   0.78887   0.28327   0.00000  Uiso   1.00
H297   H     0.22816   0.87783   0.29913   0.00000  Uiso   1.00
H298   H     0.10517   0.78884   0.03421   0.00000  Uiso   1.00
N299   N     0.16665   0.83332   0.28573   0.00000  Uiso   1.00
N300   N     0.16668   0.83334   0.04760   0.00000  Uiso   1.00
O301   O     0.16666   0.77225   0.20487   0.00000  Uiso   1.00
O302   O     0.16667   0.89442   0.12846   0.00000  Uiso   1.00
O303   O     0.16666   0.77226   0.12843   0.00000  Uiso   1.00
O304   O     0.16667   0.89441   0.20490   0.00000  Uiso   1.00
O305   O     0.09058   0.83333   0.19595   0.00000  Uiso   1.00
O306   O     0.24275   0.83334   0.13739   0.00000  Uiso   1.00
O307   O     0.09058   0.83334   0.11950   0.00000  Uiso   1.00
O308   O     0.24275   0.83333   0.21383   0.00000  Uiso   1.00
Zn309  Zn    0.16667   0.83333   0.21771   0.00000  Uiso   1.00
Zn310  Zn    0.16667   0.83334   0.11563   0.00000  Uiso   1.00
C311   C     0.32394   0.79458   0.11441   0.00000  Uiso   1.00
H312   H     0.29444   0.77219   0.12155   0.00000  Uiso   1.00
O313   O     0.00488   0.79377   0.07682   0.00000  Uiso   1.00
C314   C     0.00939   0.87209   0.21892   0.00000  Uiso   1.00
H315   H     0.03890   0.89447   0.21178   0.00000  Uiso   1.00
O316   O     0.32845   0.87290   0.25651   0.00000  Uiso   1.00
C317   C     0.08637   0.70703   0.10329   0.00000  Uiso   1.00
H318   H     0.07914   0.74011   0.10612   0.00000  Uiso   1.00
O319   O     0.05886   0.68695   0.07371   0.00000  Uiso   1.00
C320   C     0.24697   0.95964   0.23004   0.00000  Uiso   1.00
H321   H     0.25417   0.92655   0.22723   0.00000  Uiso   1.00
O322   O     0.27452   0.97972   0.25958   0.00000  Uiso   1.00
C323   C     0.49834   0.75341   0.16640   0.00000  Uiso   1.00
C324   C     0.50166   0.91325   0.16694   0.00000  Uiso   1.00
C325   C     0.40051   0.83297   0.15488   0.00000  Uiso   1.00
C326   C     0.59949   0.83370   0.17846   0.00000  Uiso   1.00
C327   C     0.34620   0.82588   0.14999   0.00000  Uiso   1.00
C328   C     0.65380   0.84079   0.18334   0.00000  Uiso   1.00
C329   C     0.46171   0.68661   0.13500   0.00000  Uiso   1.00
C330   C     0.53829   0.98006   0.19833   0.00000  Uiso   1.00
C331   C     0.46503   0.97690   0.13563   0.00000  Uiso   1.00
C332   C     0.53498   0.68977   0.19770   0.00000  Uiso   1.00
C333   C     0.50244   0.95742   0.16702   0.00000  Uiso   1.00
C334   C     0.49756   0.70924   0.16631   0.00000  Uiso   1.00
C335   C     0.53421   0.85804   0.02838   0.00000  Uiso   1.00
C336   C     0.46579   0.80862   0.30495   0.00000  Uiso   1.00
C337   C     0.53418   0.85805   0.31376   0.00000  Uiso   1.00
C338   C     0.46582   0.80862   0.01957   0.00000  Uiso   1.00
H339   H     0.43756   0.95820   0.11257   0.00000  Uiso   1.00
H340   H     0.56245   0.70846   0.22076   0.00000  Uiso   1.00
H341   H     0.56158   0.87780   0.05007   0.00000  Uiso   1.00
H342   H     0.43842   0.78887   0.28327   0.00000  Uiso   1.00
H343   H     0.56149   0.87783   0.29913   0.00000  Uiso   1.00
H344   H     0.43851   0.78884   0.03421   0.00000  Uiso   1.00
N345   N     0.49999   0.83332   0.28573   0.00000  Uiso   1.00
N346   N     0.50001   0.83334   0.04760   0.00000  Uiso   1.00
O347   O     0.50000   0.77225   0.20487   0.00000  Uiso   1.00
O348   O     0.50000   0.89442   0.12846   0.00000  Uiso   1.00
O349   O     0.50000   0.77226   0.12843   0.00000  Uiso   1.00
O350   O     0.50000   0.89441   0.20490   0.00000  Uiso   1.00
O351   O     0.42392   0.83333   0.19595   0.00000  Uiso   1.00
O352   O     0.57608   0.83334   0.13739   0.00000  Uiso   1.00
O353   O     0.42392   0.83334   0.11950   0.00000  Uiso   1.00
O354   O     0.57608   0.83333   0.21383   0.00000  Uiso   1.00
Zn355  Zn    0.50000   0.83333   0.21771   0.00000  Uiso   1.00
Zn356  Zn    0.50000   0.83334   0.11563   0.00000  Uiso   1.00
C357   C     0.65727   0.79458   0.11441   0.00000  Uiso   1.00
H358   H     0.62777   0.77219   0.12155   0.00000  Uiso   1.00
O359   O     0.33821   0.79377   0.07682   0.00000  Uiso   1.00
C360   C     0.34273   0.87209   0.21892   0.00000  Uiso   1.00
H361   H     0.37223   0.89447   0.21178   0.00000  Uiso   1.00
O362   O     0.66178   0.87290   0.25651   0.00000  Uiso   1.00
C363   C     0.41970   0.70703   0.10329   0.00000  Uiso   1.00
H364   H     0.41248   0.74011   0.10612   0.00000  Uiso   1.00
O365   O     0.39219   0.68695   0.07371   0.00000  Uiso   1.00
C366   C     0.58031   0.95964   0.23004   0.00000  Uiso   1.00
H367   H     0.58751   0.92655   0.22723   0.00000  Uiso   1.00
O368   O     0.60785   0.97972   0.25958   0.00000  Uiso   1.00
C369   C     0.83167   0.75341   0.16640   0.00000  Uiso   1.00
C370   C     0.83500   0.91325   0.16694   0.00000  Uiso   1.00
C371   C     0.73384   0.83297   0.15488   0.00000  Uiso   1.00
C372   C     0.93282   0.83370   0.17846   0.00000  Uiso   1.00
C373   C     0.67954   0.82588   0.14999   0.00000  Uiso   1.00
C374   C     0.98713   0.84079   0.18334   0.00000  Uiso   1.00
C375   C     0.79505   0.68661   0.13500   0.00000  Uiso   1.00
C376   C     0.87163   0.98006   0.19833   0.00000  Uiso   1.00
C377   C     0.79836   0.97690   0.13563   0.00000  Uiso   1.00
C378   C     0.86831   0.68977   0.19770   0.00000  Uiso   1.00
C379   C     0.83577   0.95742   0.16702   0.00000  Uiso   1.00
C380   C     0.83090   0.70924   0.16631   0.00000  Uiso   1.00
C381   C     0.86755   0.85804   0.02838   0.00000  Uiso   1.00
C382   C     0.79912   0.80862   0.30495   0.00000  Uiso   1.00
C383   C     0.86752   0.85805   0.31376   0.00000  Uiso   1.00
C384   C     0.79915   0.80862   0.01957   0.00000  Uiso   1.00
H385   H     0.77089   0.95820   0.11257   0.00000  Uiso   1.00
H386   H     0.89578   0.70846   0.22076   0.00000  Uiso   1.00
H387   H     0.89491   0.87780   0.05007   0.00000  Uiso   1.00
H388   H     0.77176   0.78887   0.28327   0.00000  Uiso   1.00
H389   H     0.89483   0.87783   0.29913   0.00000  Uiso   1.00
H390   H     0.77184   0.78884   0.03421   0.00000  Uiso   1.00
N391   N     0.83332   0.83332   0.28573   0.00000  Uiso   1.00
N392   N     0.83335   0.83334   0.04760   0.00000  Uiso   1.00
O393   O     0.83333   0.77225   0.20487   0.00000  Uiso   1.00
O394   O     0.83334   0.89442   0.12846   0.00000  Uiso   1.00
O395   O     0.83333   0.77226   0.12843   0.00000  Uiso   1.00
O396   O     0.83334   0.89441   0.20490   0.00000  Uiso   1.00
O397   O     0.75725   0.83333   0.19595   0.00000  Uiso   1.00
O398   O     0.90942   0.83334   0.13739   0.00000  Uiso   1.00
O399   O     0.75725   0.83334   0.11950   0.00000  Uiso   1.00
O400   O     0.90942   0.83333   0.21383   0.00000  Uiso   1.00
Zn401  Zn    0.83333   0.83333   0.21771   0.00000  Uiso   1.00
Zn402  Zn    0.83333   0.83334   0.11563   0.00000  Uiso   1.00
C403   C     0.99061   0.79458   0.11441   0.00000  Uiso   1.00
H404   H     0.96111   0.77219   0.12155   0.00000  Uiso   1.00
O405   O     0.67154   0.79377   0.07682   0.00000  Uiso   1.00
C406   C     0.67606   0.87209   0.21892   0.00000  Uiso   1.00
H407   H     0.70556   0.89447   0.21178   0.00000  Uiso   1.00
O408   O     0.99512   0.87290   0.25651   0.00000  Uiso   1.00
C409   C     0.75304   0.70703   0.10329   0.00000  Uiso   1.00
H410   H     0.74581   0.74011   0.10612   0.00000  Uiso   1.00
O411   O     0.72552   0.68695   0.07371   0.00000  Uiso   1.00
C412   C     0.91364   0.95964   0.23004   0.00000  Uiso   1.00
H413   H     0.92084   0.92655   0.22723   0.00000  Uiso   1.00
O414   O     0.94119   0.97972   0.25958   0.00000  Uiso   1.00
C415   C     0.16501   0.08675   0.49973   0.00000  Uiso   1.00
C416   C     0.16833   0.24659   0.50027   0.00000  Uiso   1.00
C417   C     0.06718   0.16630   0.48821   0.00000  Uiso   1.00
C418   C     0.26616   0.16703   0.51179   0.00000  Uiso   1.00
C419   C     0.01287   0.15921   0.48332   0.00000  Uiso   1.00
C420   C     0.32046   0.17412   0.51668   0.00000  Uiso   1.00
C421   C     0.12838   0.01994   0.46834   0.00000  Uiso   1.00
C422   C     0.20496   0.31339   0.53166   0.00000  Uiso   1.00
C423   C     0.13170   0.31023   0.46897   0.00000  Uiso   1.00
C424   C     0.20164   0.02310   0.53103   0.00000  Uiso   1.00
C425   C     0.16911   0.29076   0.50036   0.00000  Uiso   1.00
C426   C     0.16423   0.04258   0.49964   0.00000  Uiso   1.00
C427   C     0.20088   0.19138   0.36172   0.00000  Uiso   1.00
C428   C     0.13245   0.14196   0.63828   0.00000  Uiso   1.00
C429   C     0.20085   0.19138   0.64710   0.00000  Uiso   1.00
C430   C     0.13248   0.14195   0.35290   0.00000  Uiso   1.00
H431   H     0.10422   0.29154   0.44590   0.00000  Uiso   1.00
H432   H     0.22912   0.04180   0.55409   0.00000  Uiso   1.00
H433   H     0.22824   0.21113   0.38340   0.00000  Uiso   1.00
H434   H     0.10509   0.12220   0.61660   0.00000  Uiso   1.00
H435   H     0.22816   0.21116   0.63246   0.00000  Uiso   1.00
H436   H     0.10517   0.12217   0.36754   0.00000  Uiso   1.00
N437   N     0.16665   0.16666   0.61907   0.00000  Uiso   1.00
N438   N     0.16668   0.16668   0.38093   0.00000  Uiso   1.00
O439   O     0.16666   0.10558   0.53821   0.00000  Uiso   1.00
O440   O     0.16667   0.22775   0.46179   0.00000  Uiso   1.00
O441   O     0.16666   0.10559   0.46176   0.00000  Uiso   1.00
O442   O     0.16667   0.22774   0.53824   0.00000  Uiso   1.00
O443   O     0.09058   0.16666   0.52928   0.00000  Uiso   1.00
O444   O     0.24275   0.16667   0.47072   0.00000  Uiso   1.00
O445   O     0.09058   0.16667   0.45284   0.00000  Uiso   1.00
O446   O     0.24275   0.16666   0.54716   0.00000  Uiso   1.00
Zn447  Zn    0.16667   0.16666   0.55104   0.00000  Uiso   1.00
Zn448  Zn    0.16667   0.16667   0.44896   0.00000  Uiso   1.00
C449   C     0.32394   0.12791   0.44775   0.00000  Uiso   1.00
H450   H     0.29444   0.10553   0.45488   0.00000  Uiso   1.00
O451   O     0.00488   0.12710   0.41016   0.00000  Uiso   1.00
C452   C     0.00939   0.20542   0.55225   0.00000  Uiso   1.00
H453   H     0.03890   0.22781   0.54512   0.00000  Uiso   1.00
O454   O     0.32845   0.20624   0.58984   0.00000  Uiso   1.00
C455   C     0.08637   0.04036   0.43663   0.00000  Uiso   1.00
H456   H     0.07914   0.07344   0.43945   0.00000  Uiso   1.00
O457   O     0.05886   0.02029   0.40705   0.00000  Uiso   1.00
C458   C     0.24697   0.29297   0.56337   0.00000  Uiso   1.00
H459   H     0.25417   0.25989   0.56057   0.00000  Uiso   1.00
O460   O     0.27452   0.31305   0.59292   0.00000  Uiso   1.00
C461   C     0.49834   0.08675   0.49973   0.00000  Uiso   1.00
C462   C     0.50166   0.24659   0.50027   0.00000  Uiso   1.00
C463   C     0.40051   0.16630   0.48821   0.00000  Uiso   1.00
C464   C     0.59949   0.16703   0.51179   0.00000  Uiso   1.00
C465   C     0.34620   0.15921   0.48332   0.00000  Uiso   1.00
C466   C     0.65380   0.17412   0.51668   0.00000  Uiso   1.00
C467   C     0.46171   0.01994   0.46834   0.00000  Uiso   1.00
C468   C     0.53829   0.31339   0.53166   0.00000  Uiso   1.00
C469   C     0.46503   0.31023   0.46897   0.00000  Uiso   1.00
C470   C     0.53498   0.02310   0.53103   0.00000  Uiso   1.00
C471   C     0.50244   0.29076   0.50036   0.00000  Uiso   1.00
C472   C     0.49756   0.04258   0.49964   0.00000  Uiso   1.00
C473   C     0.53421   0.19138   0.36172   0.00000  Uiso   1.00
C474   C     0.46579   0.14196   0.63828   0.00000  Uiso   1.00
C475   C     0.53418   0.19138   0.64710   0.00000  Uiso   1.00
C476   C     0.46582   0.14195   0.35290   0.00000  Uiso   1.00
H477   H     0.43756   0.29154   0.44590   0.00000  Uiso   1.00
H478   H     0.56245   0.04180   0.55409   0.00000  Uiso   1.00
H479   H     0.56158   0.21113   0.38340   0.00000  Uiso   1.00
H480   H     0.43842   0.12220   0.61660   0.00000  Uiso   1.00
H481   H     0.56149   0.21116   0.63246   0.00000  Uiso   1.00
H482   H     0.43851   0.12217   0.36754   0.00000  Uiso   1.00
N483   N     0.49999   0.16666   0.61907   0.00000  Uiso   1.00
N484   N     0.50001   0.16668   0.38093   0.00000  Uiso   1.00
O485   O     0.50000   0.10558   0.53821   0.00000  Uiso   1.00
O486   O     0.50000   0.22775   0.46179   0.00000  Uiso   1.00
O487   O     0.50000   0.10559   0.46176   0.00000  Uiso   1.00
O488   O     0.50000   0.22774   0.53824   0.00000  Uiso   1.00
O489   O     0.42392   0.16666   0.52928   0.00000  Uiso   1.00
O490   O     0.57608   0.16667   0.47072   0.00000  Uiso   1.00
O491   O     0.42392   0.16667   0.45284   0.00000  Uiso   1.00
O492   O     0.57608   0.16666   0.54716   0.00000  Uiso   1.00
Zn493  Zn    0.50000   0.16666   0.55104   0.00000  Uiso   1.00
Zn494  Zn    0.50000   0.16667   0.44896   0.00000  Uiso   1.00
C495   C     0.65727   0.12791   0.44775   0.00000  Uiso   1.00
H496   H     0.62777   0.10553   0.45488   0.00000  Uiso   1.00
O497   O     0.33821   0.12710   0.41016   0.00000  Uiso   1.00
C498   C     0.34273   0.20542   0.55225   0.00000  Uiso   1.00
H499   H     0.37223   0.22781   0.54512   0.00000  Uiso   1.00
O500   O     0.66178   0.20624   0.58984   0.00000  Uiso   1.00
C501   C     0.41970   0.04036   0.43663   0.00000  Uiso   1.00
H502   H     0.41248   0.07344   0.43945   0.00000  Uiso   1.00
O503   O     0.39219   0.02029   0.40705   0.00000  Uiso   1.00
C504   C     0.58031   0.29297   0.56337   0.00000  Uiso   1.00
H505   H     0.58751   0.25989   0.56057   0.00000  Uiso   1.00
O506   O     0.60785   0.31305   0.59292   0.00000  Uiso   1.00
C507   C     0.83167   0.08675   0.49973   0.00000  Uiso   1.00
C508   C     0.83500   0.24659   0.50027   0.00000  Uiso   1.00
C509   C     0.73384   0.16630   0.48821   0.00000  Uiso   1.00
C510   C     0.93282   0.16703   0.51179   0.00000  Uiso   1.00
C511   C     0.67954   0.15921   0.48332   0.00000  Uiso   1.00
C512   C     0.98713   0.17412   0.51668   0.00000  Uiso   1.00
C513   C     0.79505   0.01994   0.46834   0.00000  Uiso   1.00
C514   C     0.87163   0.31339   0.53166   0.00000  Uiso   1.00
C515   C     0.79836   0.31023   0.46897   0.00000  Uiso   1.00
C516   C     0.86831   0.02310   0.53103   0.00000  Uiso   1.00
C517   C     0.83577   0.29076   0.50036   0.00000  Uiso   1.00
C518   C     0.83090   0.04258   0.49964   0.00000  Uiso   1.00
C519   C     0.86755   0.19138   0.36172   0.00000  Uiso   1.00
C520   C     0.79912   0.14196   0.63828   0.00000  Uiso   1.00
C521   C     0.86752   0.19138   0.64710   0.00000  Uiso   1.00
C522   C     0.79915   0.14195   0.35290   0.00000  Uiso   1.00
H523   H     0.77089   0.29154   0.44590   0.00000  Uiso   1.00
H524   H     0.89578   0.04180   0.55409   0.00000  Uiso   1.00
H525   H     0.89491   0.21113   0.38340   0.00000  Uiso   1.00
H526   H     0.77176   0.12220   0.61660   0.00000  Uiso   1.00
H527   H     0.89483   0.21116   0.63246   0.00000  Uiso   1.00
H528   H     0.77184   0.12217   0.36754   0.00000  Uiso   1.00
N529   N     0.83332   0.16666   0.61907   0.00000  Uiso   1.00
N530   N     0.83335   0.16668   0.38093   0.00000  Uiso   1.00
O531   O     0.83333   0.10558   0.53821   0.00000  Uiso   1.00
O532   O     0.83334   0.22775   0.46179   0.00000  Uiso   1.00
O533   O     0.83333   0.10559   0.46176   0.00000  Uiso   1.00
O534   O     0.83334   0.22774   0.53824   0.00000  Uiso   1.00
O535   O     0.75725   0.16666   0.52928   0.00000  Uiso   1.00
O536   O     0.90942   0.16667   0.47072   0.00000  Uiso   1.00
O537   O     0.75725   0.16667   0.45284   0.00000  Uiso   1.00
O538   O     0.90942   0.16666   0.54716   0.00000  Uiso   1.00
Zn539  Zn    0.83333   0.16666   0.55104   0.00000  Uiso   1.00
Zn540  Zn    0.83333   0.16667   0.44896   0.00000  Uiso   1.00
C541   C     0.99061   0.12791   0.44775   0.00000  Uiso   1.00
H542   H     0.96111   0.10553   0.45488   0.00000  Uiso   1.00
O543   O     0.67154   0.12710   0.41016   0.00000  Uiso   1.00
C544   C     0.67606   0.20542   0.55225   0.00000  Uiso   1.00
H545   H     0.70556   0.22781   0.54512   0.00000  Uiso   1.00
O546   O     0.99512   0.20624   0.58984   0.00000  Uiso   1.00
C547   C     0.75304   0.04036   0.43663   0.00000  Uiso   1.00
H548   H     0.74581   0.07344   0.43945   0.00000  Uiso   1.00
O549   O     0.72552   0.02029   0.40705   0.00000  Uiso   1.00
C550   C     0.91364   0.29297   0.56337   0.00000  Uiso   1.00
H551   H     0.92084   0.25989   0.56057   0.00000  Uiso   1.00
O552   O     0.94119   0.31305   0.59292   0.00000  Uiso   1.00
C553   C     0.16501   0.42008   0.49973   0.00000  Uiso   1.00
C554   C     0.16833   0.57992   0.50027   0.00000  Uiso   1.00
C555   C     0.06718   0.49964   0.48821   0.00000  Uiso   1.00
C556   C     0.26616   0.50036   0.51179   0.00000  Uiso   1.00
C557   C     0.01287   0.49255   0.48332   0.00000  Uiso   1.00
C558   C     0.32046   0.50745   0.51668   0.00000  Uiso   1.00
C559   C     0.12838   0.35327   0.46834   0.00000  Uiso   1.00
C560   C     0.20496   0.64673   0.53166   0.00000  Uiso   1.00
C561   C     0.13170   0.64357   0.46897   0.00000  Uiso   1.00
C562   C     0.20164   0.35643   0.53103   0.00000  Uiso   1.00
C563   C     0.16911   0.62409   0.50036   0.00000  Uiso   1.00
C564   C     0.16423   0.37591   0.49964   0.00000  Uiso   1.00
C565   C     0.20088   0.52471   0.36172   0.00000  Uiso   1.00
C566   C     0.13245   0.47529   0.63828   0.00000  Uiso   1.00
C567   C     0.20085   0.52471   0.64710   0.00000  Uiso   1.00
C568   C     0.13248   0.47529   0.35290   0.00000  Uiso   1.00
H569   H     0.10422   0.62487   0.44590   0.00000  Uiso   1.00
H570   H     0.22912   0.37513   0.55409   0.00000  Uiso   1.00
H571   H     0.22824   0.54446   0.38340   0.00000  Uiso   1.00
H572   H     0.10509   0.45553   0.61660   0.00000  Uiso   1.00
H573   H     0.22816   0.54450   0.63246   0.00000  Uiso   1.00
H574   H     0.10517   0.45550   0.36754   0.00000  Uiso   1.00
N575   N     0.16665   0.49999   0.61907   0.00000  Uiso   1.00
N576   N     0.16668   0.50001   0.38093   0.00000  Uiso   1.00
O577   O     0.16666   0.43892   0.53821   0.00000  Uiso   1.00
O578   O     0.16667   0.56108   0.46179   0.00000  Uiso   1.00
O579   O     0.16666   0.43893   0.46176   0.00000  Uiso   1.00
O580   O     0.16667   0.56107   0.53824   0.00000  Uiso   1.00
O581   O     0.09058   0.50000   0.52928   0.00000  Uiso   1.00
O582   O     0.24275   0.50000   0.47072   0.00000  Uiso   1.00
O583   O     0.09058   0.50000   0.45284   0.00000  Uiso   1.00
O584   O     0.24275   0.50000   0.54716   0.00000  Uiso   1.00
Zn585  Zn    0.16667   0.49999   0.55104   0.00000  Uiso   1.00
Zn586  Zn    0.16667   0.50001   0.44896   0.00000  Uiso   1.00
C587   C     0.32394   0.46125   0.44775   0.00000  Uiso   1.00
H588   H     0.29444   0.43886   0.45488   0.00000  Uiso   1.00
O589   O     0.00488   0.46044   0.41016   0.00000  Uiso   1.00
C590   C     0.00939   0.53875   0.55225   0.00000  Uiso   1.00
H591   H     0.03890   0.56114   0.54512   0.00000  Uiso   1.00
O592   O     0.32845   0.53957   0.58984   0.00000  Uiso   1.00
C593   C     0.08637   0.37370   0.43663   0.00000  Uiso   1.00
H594   H     0.07914   0.40677   0.43945   0.00000  Uiso   1.00
O595   O     0.05886   0.35362   0.40705   0.00000  Uiso   1.00
C596   C     0.24697   0.62630   0.56337   0.00000  Uiso   1.00
H597   H     0.25417   0.59322   0.56057   0.00000  Uiso   1.00
O598   O     0.27452   0.64639   0.59292   0.00000  Uiso   1.00
C599   C     0.49834   0.42008   0.49973   0.00000  Uiso   1.00
C600   C     0.50166   0.57992   0.50027   0.00000  Uiso   1.00
C601   C     0.40051   0.49964   0.48821   0.00000  Uiso   1.00
C602   C     0.59949   0.50036   0.51179   0.00000  Uiso   1.00
C603   C     0.34620   0.49255   0.48332   0.00000  Uiso   1.00
C604   C     0.65380   0.50745   0.51668   0.00000  Uiso   1.00
C605   C     0.46171   0.35327   0.46834   0.00000  Uiso   1.00
C606   C     0.53829   0.64673   0.53166   0.00000  Uiso   1.00
C607   C     0.46503   0.64357   0.46897   0.00000  Uiso   1.00
C608   C     0.53498   0.35643   0.53103   0.00000  Uiso   1.00
C609   C     0.50244   0.62409   0.50036   0.00000  Uiso   1.00
C610   C     0.49756   0.37591   0.49964   0.00000  Uiso   1.00
C611   C     0.53421   0.52471   0.36172   0.00000  Uiso   1.00
C612   C     0.46579   0.47529   0.63828   0.00000  Uiso   1.00
C613   C     0.53418   0.52471   0.64710   0.00000  Uiso   1.00
C614   C     0.46582   0.47529   0.35290   0.00000  Uiso   1.00
H615   H     0.43756   0.62487   0.44590   0.00000  Uiso   1.00
H616   H     0.56245   0.37513   0.55409   0.00000  Uiso   1.00
H617   H     0.56158   0.54446   0.38340   0.00000  Uiso   1.00
H618   H     0.43842   0.45553   0.61660   0.00000  Uiso   1.00
H619   H     0.56149   0.54450   0.63246   0.00000  Uiso   1.00
H620   H     0.43851   0.45550   0.36754   0.00000  Uiso   1.00
N621   N     0.49999   0.49999   0.61907   0.00000  Uiso   1.00
N622   N     0.50001   0.50001   0.38093   0.00000  Uiso   1.00
O623   O     0.50000   0.43892   0.53821   0.00000  Uiso   1.00
O624   O     0.50000   0.56108   0.46179   0.00000  Uiso   1.00
O625   O     0.50000   0.43893   0.46176   0.00000  Uiso   1.00
O626   O     0.50000   0.56107   0.53824   0.00000  Uiso   1.00
O627   O     0.42392   0.50000   0.52928   0.00000  Uiso   1.00
O628   O     0.57608   0.50000   0.47072   0.00000  Uiso   1.00
O629   O     0.42392   0.50000   0.45284   0.00000  Uiso   1.00
O630   O     0.57608   0.50000   0.54716   0.00000  Uiso   1.00
Zn631  Zn    0.50000   0.49999   0.55104   0.00000  Uiso   1.00
Zn632  Zn    0.50000   0.50001   0.44896   0.00000  Uiso   1.00
C633   C     0.65727   0.46125   0.44775   0.00000  Uiso   1.00
H634   H     0.62777   0.43886   0.45488   0.00000  Uiso   1.00
O635   O     0.33821   0.46044   0.41016   0.00000  Uiso   1.00
C636   C     0.34273   0.53875   0.55225   0.00000  Uiso   1.00
H637   H     0.37223   0.56114   0.54512   0.00000  Uiso   1.00
O638   O     0.66178   0.53957   0.58984   0.00000  Uiso   1.00
C639   C     0.41970   0.37370   0.43663   0.00000  Uiso   1.00
H640   H     0.41248   0.40677   0.43945   0.00000  Uiso   1.00
O641   O     0.39219   0.35362   0.40705   0.00000  Uiso   1.00
C642   C     0.58031   0.62630   0.56337   0.00000  Uiso   1.00
H643   H     0.58751   0.59322   0.56057   0.00000  Uiso   1.00
O644   O     0.60785   0.64639   0.59292   0.00000  Uiso   1.00
C645   C     0.83167   0.42008   0.49973   0.00000  Uiso   1.00
C646   C     0.83500   0.57992   0.50027   0.00000  Uiso   1.00
C647   C     0.73384   0.49964   0.48821   0.00000  Uiso   1.00
C648   C     0.93282   0.50036   0.51179   0.00000  Uiso   1.00
C649   C     0.67954   0.49255   0.48332   0.00000  Uiso   1.00
C650   C     0.98713   0.50745   0.51668   0.00000  Uiso   1.00
C651   C     0.79505   0.35327   0.46834   0.00000  Uiso   1.00
C652   C     0.87163   0.64673   0.53166   0.00000  Uiso   1.00
C653   C     0.79836   0.64357   0.46897   0.00000  Uiso   1.00
C654   C     0.86831   0.35643   0.53103   0.00000  Uiso   1.00
C655   C     0.83577   0.62409   0.50036   0.00000  Uiso   1.00
C656   C     0.83090   0.37591   0.49964   0.00000  Uiso   1.00
C657   C     0.86755   0.52471   0.36172   0.00000  Uiso   1.00
C658   C     0.79912   0.47529   0.63828   0.00000  Uiso   1.00
C659   C     0.86752   0.52471   0.64710   0.00000  Uiso   1.00
C660   C     0.79915   0.47529   0.35290   0.00000  Uiso   1.00
H661   H     0.77089   0.62487   0.44590   0.00000  Uiso   1.00
H662   H     0.89578   0.37513   0.55409   0.00000  Uiso   1.00
H663   H     0.89491   0.54446   0.38340   0.00000  Uiso   1.00
H664   H     0.77176   0.45553   0.61660   0.00000  Uiso   1.00
H665   H     0.89483   0.54450   0.63246   0.00000  Uiso   1.00
H666   H     0.77184   0.45550   0.36754   0.00000  Uiso   1.00
N667   N     0.83332   0.49999   0.61907   0.00000  Uiso   1.00
N668   N     0.83335   0.50001   0.38093   0.00000  Uiso   1.00
O669   O     0.83333   0.43892   0.53821   0.00000  Uiso   1.00
O670   O     0.83334   0.56108   0.46179   0.00000  Uiso   1.00
O671   O     0.83333   0.43893   0.46176   0.00000  Uiso   1.00
O672   O     0.83334   0.56107   0.53824   0.00000  Uiso   1.00
O673   O     0.75725   0.50000   0.52928   0.00000  Uiso   1.00
O674   O     0.90942   0.50000   0.47072   0.00000  Uiso   1.00
O675   O     0.75725   0.50000   0.45284   0.00000  Uiso   1.00
O676   O     0.90942   0.50000   0.54716   0.00000  Uiso   1.00
Zn677  Zn    0.83333   0.49999   0.55104   0.00000  Uiso   1.00
Zn678  Zn    0.83333   0.50001   0.44896   0.00000  Uiso   1.00
C679   C     0.99061   0.46125   0.44775   0.00000  Uiso   1.00
H680   H     0.96111   0.43886   0.45488   0.00000  Uiso   1.00
O681   O     0.67154   0.46044   0.41016   0.00000  Uiso   1.00
C682   C     0.67606   0.53875   0.55225   0.00000  Uiso   1.00
H683   H     0.70556   0.56114   0.54512   0.00000  Uiso   1.00
O684   O     0.99512   0.53957   0.58984   0.00000  Uiso   1.00
C685   C     0.75304   0.37370   0.43663   0.00000  Uiso   1.00
H686   H     0.74581   0.40677   0.43945   0.00000  Uiso   1.00
O687   O     0.72552   0.35362   0.40705   0.00000  Uiso   1.00
C688   C     0.91364   0.62630   0.56337   0.00000  Uiso   1.00
H689   H     0.92084   0.59322   0.56057   0.00000  Uiso   1.00
O690   O     0.94119   0.64639   0.59292   0.00000  Uiso   1.00
C691   C     0.16501   0.75341   0.49973   0.00000  Uiso   1.00
C692   C     0.16833   0.91325   0.50027   0.00000  Uiso   1.00
C693   C     0.06718   0.83297   0.48821   0.00000  Uiso   1.00
C694   C     0.26616   0.83370   0.51179   0.00000  Uiso   1.00
C695   C     0.01287   0.82588   0.48332   0.00000  Uiso   1.00
C696   C     0.32046   0.84079   0.51668   0.00000  Uiso   1.00
C697   C     0.12838   0.68661   0.46834   0.00000  Uiso   1.00
C698   C     0.20496   0.98006   0.53166   0.00000  Uiso   1.00
C699   C     0.13170   0.97690   0.46897   0.00000  Uiso   1.00
C700   C     0.20164   0.68977   0.53103   0.00000  Uiso   1.00
C701   C     0.16911   0.95742   0.50036   0.00000  Uiso   1.00
C702   C     0.16423   0.70924   0.49964   0.00000  Uiso   1.00
C703   C     0.20088   0.85804   0.36172   0.00000  Uiso   1.00
C704   C     0.13245   0.80862   0.63828   0.00000  Uiso   1.00
C705   C     0.20085   0.85805   0.64710   0.00000  Uiso   1.00
C706   C     0.13248   0.80862   0.35290   0.00000  Uiso   1.00
H707   H     0.10422   0.95820   0.44590   0.00000  Uiso   1.00
H708   H     0.22912   0.70846   0.55409   0.00000  Uiso   1.00
H709   H     0.22824   0.87780   0.38340   0.00000  Uiso   1.00
H710   H     0.10509   0.78887   0.61660   0.00000  Uiso   1.00
H711   H     0.22816   0.87783   0.63246   0.00000  Uiso   1.00
H712   H     0.10517   0.78884   0.36754   0.00000  Uiso   1.00
N713   N     0.16665   0.83332   0.61907   0.00000  Uiso   1.00
N714   N     0.16668   0.83334   0.38093   0.00000  Uiso   1.00
O715   O     0.16666   0.77225   0.53821   0.00000  Uiso   1.00
O716   O     0.16667   0.89442   0.46179   0.00000  Uiso   1.00
O717   O     0.16666   0.77226   0.46176   0.00000  Uiso   1.00
O718   O     0.16667   0.89441   0.53824   0.00000  Uiso   1.00
O719   O     0.09058   0.83333   0.52928   0.00000  Uiso   1.00
O720   O     0.24275   0.83334   0.47072   0.00000  Uiso   1.00
O721   O     0.09058   0.83334   0.45284   0.00000  Uiso   1.00
O722   O     0.24275   0.83333   0.54716   0.00000  Uiso   1.00
Zn723  Zn    0.16667   0.83333   0.55104   0.00000  Uiso   1.00
Zn724  Zn    0.16667   0.83334   0.44896   0.00000  Uiso   1.00
C725   C     0.32394   0.79458   0.44775   0.00000  Uiso   1.00
H726   H     0.29444   0.77219   0.45488   0.00000  Uiso   1.00
O727   O     0.00488   0.79377   0.41016   0.00000  Uiso   1.00
C728   C     0.00939   0.87209   0.55225   0.00000  Uiso   1.00
H729   H     0.03890   0.89447   0.54512   0.00000  Uiso   1.00
O730   O     0.32845   0.87290   0.58984   0.00000  Uiso   1.00
C731   C     0.08637   0.70703   0.43663   0.00000  Uiso   1.00
H732   H     0.07914   0.74011   0.43945   0.00000  Uiso   1.00
O733   O     0.05886   0.68695   0.40705   0.00000  Uiso   1.00
C734   C     0.24697   0.95964   0.56337   0.00000  Uiso   1.00
H735   H     0.25417   0.92655   0.56057   0.00000  Uiso   1.00
O736   O     0.27452   0.97972   0.59292   0.00000  Uiso   1.00
C737   C     0.49834   0.75341   0.49973   0.00000  Uiso   1.00
C738   C     0.50166   0.91325   0.50027   0.00000  Uiso   1.00
C739   C     0.40051   0.83297   0.48821   0.00000  Uiso   1.00
C740   C     0.59949   0.83370   0.51179   0.00000  Uiso   1.00
C741   C     0.34620   0.82588   0.48332   0.00000  Uiso   1.00
C742   C     0.65380   0.84079   0.51668   0.00000  Uiso   1.00
C743   C     0.46171   0.68661   0.46834   0.00000  Uiso   1.00
C744   C     0.53829   0.98006   0.53166   0.00000  Uiso   1.00
C745   C     0.46503   0.97690   0.46897   0.00000  Uiso   1.00
C746   C     0.53498   0.68977   0.53103   0.00000  Uiso   1.00
C747   C     0.50244   0.95742   0.50036   0.00000  Uiso   1.00
C748   C     0.49756   0.70924   0.49964   0.00000  Uiso   1.00
C749   C     0.53421   0.85804   0.36172   0.00000  Uiso   1.00
C750   C     0.46579   0.80862   0.63828   0.00000  Uiso   1.00
C751   C     0.53418   0.85805   0.64710   0.00000  Uiso   1.00
C752   C     0.46582   0.80862   0.35290   0.00000  Uiso   1.00
H753   H     0.43756   0.95820   0.44590   0.00000  Uiso   1.00
H754   H     0.56245   0.70846   0.55409   0.00000  Uiso   1.00
H755   H     0.56158   0.87780   0.38340   0.00000  Uiso   1.00
H756   H     0.43842   0.78887   0.61660   0.00000  Uiso   1.00
H757   H     0.56149   0.87783   0.63246   0.00000  Uiso   1.00
H758   H     0.43851   0.78884   0.36754   0.00000  Uiso   1.00
N759   N     0.49999   0.83332   0.61907   0.00000  Uiso   1.00
N760   N     0.50001   0.83334   0.38093   0.00000  Uiso   1.00
O761   O     0.50000   0.77225   0.53821   0.00000  Uiso   1.00
O762   O     0.50000   0.89442   0.46179   0.00000  Uiso   1.00
O763   O     0.50000   0.77226   0.46176   0.00000  Uiso   1.00
O764   O     0.50000   0.89441   0.53824   0.00000  Uiso   1.00
O765   O     0.42392   0.83333   0.52928   0.00000  Uiso   1.00
O766   O     0.57608   0.83334   0.47072   0.00000  Uiso   1.00
O767   O     0.42392   0.83334   0.45284   0.00000  Uiso   1.00
O768   O     0.57608   0.83333   0.54716   0.00000  Uiso   1.00
Zn769  Zn    0.50000   0.83333   0.55104   0.00000  Uiso   1.00
Zn770  Zn    0.50000   0.83334   0.44896   0.00000  Uiso   1.00
C771   C     0.65727   0.79458   0.44775   0.00000  Uiso   1.00
H772   H     0.62777   0.77219   0.45488   0.00000  Uiso   1.00
O773   O     0.33821   0.79377   0.41016   0.00000  Uiso   1.00
C774   C     0.34273   0.87209   0.55225   0.00000  Uiso   1.00
H775   H     0.37223   0.89447   0.54512   0.00000  Uiso   1.00
O776   O     0.66178   0.87290   0.58984   0.00000  Uiso   1.00
C777   C     0.41970   0.70703   0.43663   0.00000  Uiso   1.00
H778   H     0.41248   0.74011   0.43945   0.00000  Uiso   1.00
O779   O     0.39219   0.68695   0.40705   0.00000  Uiso   1.00
C780   C     0.58031   0.95964   0.56337   0.00000  Uiso   1.00
H781   H     0.58751   0.92655   0.56057   0.00000  Uiso   1.00
O782   O     0.60785   0.97972   0.59292   0.00000  Uiso   1.00
C783   C     0.83167   0.75341   0.49973   0.00000  Uiso   1.00
C784   C     0.83500   0.91325   0.50027   0.00000  Uiso   1.00
C785   C     0.73384   0.83297   0.48821   0.00000  Uiso   1.00
C786   C     0.93282   0.83370   0.51179   0.00000  Uiso   1.00
C787   C     0.67954   0.82588   0.48332   0.00000  Uiso   1.00
C788   C     0.98713   0.84079   0.51668   0.00000  Uiso   1.00
C789   C     0.79505   0.68661   0.46834   0.00000  Uiso   1.00
C790   C     0.87163   0.98006   0.53166   0.00000  Uiso   1.00
C791   C     0.79836   0.97690   0.46897   0.00000  Uiso   1.00
C792   C     0.86831   0.68977   0.53103   0.00000  Uiso   1.00
C793   C     0.83577   0.95742   0.50036   0.00000  Uiso   1.00
C794   C     0.83090   0.70924   0.49964   0.00000  Uiso   1.00
C795   C     0.86755   0.85804   0.36172   0.00000  Uiso   1.00
C796   C     0.79912   0.80862   0.63828   0.00000  Uiso   1.00
C797   C     0.86752   0.85805   0.64710   0.00000  Uiso   1.00
C798   C     0.79915   0.80862   0.35290   0.00000  Uiso   1.00
H799   H     0.77089   0.95820   0.44590   0.00000  Uiso   1.00
H800   H     0.89578   0.70846   0.55409   0.00000  Uiso   1.00
H801   H     0.89491   0.87780   0.38340   0.00000  Uiso   1.00
H802   H     0.77176   0.78887   0.61660   0.00000  Uiso   1.00
H803   H     0.89483   0.87783   0.63246   0.00000  Uiso   1.00
H804   H     0.77184   0.78884   0.36754   0.00000  Uiso   1.00
N805   N     0.83332   0.83332   0.61907   0.00000  Uiso   1.00
N806   N     0.83335   0.83334   0.38093   0.00000  Uiso   1.00
O807   O     0.83333   0.77225   0.53821   0.00000  Uiso   1.00
O808   O     0.83334   0.89442   0.46179   0.00000  Uiso   1.00
O809   O     0.83333   0.77226   0.46176   0.00000  Uiso   1.00
O810   O     0.83334   0.89441   0.53824   0.00000  Uiso   1.00
O811   O     0.75725   0.83333   0.52928   0.00000  Uiso   1.00
O812   O     0.90942   0.83334   0.47072   0.00000  Uiso   1.00
O813   O     0.75725   0.83334   0.45284   0.00000  Uiso   1.00
O814   O     0.90942   0.83333   0.54716   0.00000  Uiso   1.00
Zn815  Zn    0.83333   0.83333   0.55104   0.00000  Uiso   1.00
Zn816  Zn    0.83333   0.83334   0.44896   0.00000  Uiso   1.00
C817   C     0.99061   0.79458   0.44775   0.00000  Uiso   1.00
H818   H     0.96111   0.77219   0.45488   0.00000  Uiso   1.00
O819   O     0.67154   0.79377   0.41016   0.00000  Uiso   1.00
C820   C     0.67606   0.87209   0.55225   0.00000  Uiso   1.00
H821   H     0.70556   0.89447   0.54512   0.00000  Uiso   1.00
O822   O     0.99512   0.87290   0.58984   0.00000  Uiso   1.00
C823   C     0.75304   0.70703   0.43663   0.00000  Uiso   1.00
H824   H     0.74581   0.74011   0.43945   0.00000  Uiso   1.00
O825   O     0.72552   0.68695   0.40705   0.00000  Uiso   1.00
C826   C     0.91364   0.95964   0.56337   0.00000  Uiso   1.00
H827   H     0.92084   0.92655   0.56057   0.00000  Uiso   1.00
O828   O     0.94119   0.97972   0.59292   0.00000  Uiso   1.00
C829   C     0.16501   0.08675   0.83306   0.00000  Uiso   1.00
C830   C     0.16833   0.24659   0.83360   0.00000  Uiso   1.00
C831   C     0.06718   0.16630   0.82154   0.00000  Uiso   1.00
C832   C     0.26616   0.16703   0.84512   0.00000  Uiso   1.00
C833   C     0.01287   0.15921   0.81666   0.00000  Uiso   1.00
C834   C     0.32046   0.17412   0.85001   0.00000  Uiso   1.00
C835   C     0.12838   0.01994   0.80167   0.00000  Uiso   1.00
C836   C     0.20496   0.31339   0.86500   0.00000  Uiso   1.00
C837   C     0.13170   0.31023   0.80230   0.00000  Uiso   1.00
C838   C     0.20164   0.02310   0.86436   0.00000  Uiso   1.00
C839   C     0.16911   0.29076   0.83369   0.00000  Uiso   1.00
C840   C     0.16423   0.04258   0.83298   0.00000  Uiso   1.00
C841   C     0.20088   0.19138   0.69505   0.00000  Uiso   1.00
C842   C     0.13245   0.14196   0.97162   0.00000  Uiso   1.00
C843   C     0.20085   0.19138   0.98043   0.00000  Uiso   1.00
C844   C     0.13248   0.14195   0.68624   0.00000  Uiso   1.00
H845   H     0.10422   0.29154   0.77924   0.00000  Uiso   1.00
H846   H     0.22912   0.04180   0.88743   0.00000  Uiso   1.00
H847   H     0.22824   0.21113   0.71674   0.00000  Uiso   1.00
H848   H     0.10509   0.12220   0.94993   0.00000  Uiso   1.00
H849   H     0.22816   0.21116   0.96579   0.00000  Uiso   1.00
H850   H     0.10517   0.12217   0.70088   0.00000  Uiso   1.00
N851   N     0.16665   0.16666   0.95240   0.00000  Uiso   1.00
N852   N     0.16668   0.16668   0.71427   0.00000  Uiso   1.00
O853   O     0.16666   0.10558   0.87154   0.00000  Uiso   1.00
O854   O     0.16667   0.22775   0.79513   0.00000  Uiso   1.00
O855   O     0.16666   0.10559   0.79510   0.00000  Uiso   1.00
O856   O     0.16667   0.22774   0.87157   0.00000  Uiso   1.00
O857   O     0.09058   0.16666   0.86261   0.00000  Uiso   1.00
O858   O     0.24275   0.16667   0.80405   0.00000  Uiso   1.00
O859   O     0.09058   0.16667   0.78617   0.00000  Uiso   1.00
O860   O     0.24275   0.16666   0.88050   0.00000  Uiso   1.00
Zn861  Zn    0.16667   0.16666   0.88437   0.00000  Uiso   1.00
Zn862  Zn    0.16667   0.16667   0.78229   0.00000  Uiso   1.00
C863   C     0.32394   0.12791   0.78108   0.00000  Uiso   1.00
H864   H     0.29444   0.10553   0.78822   0.00000  Uiso   1.00
O865   O     0.00488   0.12710   0.74349   0.00000  Uiso   1.00
C866   C     0.00939   0.20542   0.88559   0.00000  Uiso   1.00
H867   H     0.03890   0.22781   0.87845   0.00000  Uiso   1.00
O868   O     0.32845   0.20624   0.92317   0.00000  Uiso   1.00
C869   C     0.08637   0.04036   0.76996   0.00000  Uiso   1.00
H870   H     0.07914   0.07344   0.77278   0.00000  Uiso   1.00
O871   O     0.05886   0.02029   0.74038   0.00000  Uiso   1.00
C872   C     0.24697   0.29297   0.89670   0.00000  Uiso   1.00
H873   H     0.25417   0.25989   0.89390   0.00000  Uiso   1.00
O874   O     0.27452   0.31305   0.92625   0.00000  Uiso   1.00
C875   C     0.49834   0.08675   0.83306   0.00000  Uiso   1.00
C876   C     0.50166   0.24659   0.83360   0.00000  Uiso   1.00
C877   C     0.40051   0.16630   0.82154   0.00000  Uiso   1.00
C878   C     0.59949   0.16703   0.84512   0.00000  Uiso   1.00
C879   C     0.34620   0.15921   0.81666   0.00000  Uiso   1.00
C880   C     0.65380   0.17412   0.85001   0.00000  Uiso   1.00
C881   C     0.46171   0.01994   0.80167   0.00000  Uiso   1.00
C882   C     0.53829   0.31339   0.86500   0.00000  Uiso   1.00
C883   C     0.46503   0.31023   0.80230   0.00000  Uiso   1.00
C884   C     0.53498   0.02310   0.86436   0.00000  Uiso   1.00
C885   C     0.50244   0.29076   0.83369   0.00000  Uiso   1.00
C886   C     0.49756   0.04258   0.83298   0.00000  Uiso   1.00
C887   C     0.53421   0.19138   0.69505   0.00000  Uiso   1.00
C888   C     0.46579   0.14196   0.97162   0.00000  Uiso   1.00
C889   C     0.53418   0.19138   0.98043   0.00000  Uiso   1.00
C890   C     0.46582   0.14195   0.68624   0.00000  Uiso   1.00
H891   H     0.43756   0.29154   0.77924   0.00000  Uiso   1.00
H892   H     0.56245   0.04180   0.88743   0.00000  Uiso   1.00
H893   H     0.56158   0.21113   0.71674   0.00000  Uiso   1.00
H894   H     0.43842   0.12220   0.94993   0.00000  Uiso   1.00
H895   H     0.56149   0.21116   0.96579   0.00000  Uiso   1.00
H896   H     0.43851   0.12217   0.70088   0.00000  Uiso   1.00
N897   N     0.49999   0.16666   0.95240   0.00000  Uiso   1.00
N898   N     0.50001   0.16668   0.71427   0.00000  Uiso   1.00
O899   O     0.50000   0.10558   0.87154   0.00000  Uiso   1.00
O900   O     0.50000   0.22775   0.79513   0.00000  Uiso   1.00
O901   O     0.50000   0.10559   0.79510   0.00000  Uiso   1.00
O902   O     0.50000   0.22774   0.87157   0.00000  Uiso   1.00
O903   O     0.42392   0.16666   0.86261   0.00000  Uiso   1.00
O904   O     0.57608   0.16667   0.80405   0.00000  Uiso   1.00
O905   O     0.42392   0.16667   0.78617   0.00000  Uiso   1.00
O906   O     0.57608   0.16666   0.88050   0.00000  Uiso   1.00
Zn907  Zn    0.50000   0.16666   0.88437   0.00000  Uiso   1.00
Zn908  Zn    0.50000   0.16667   0.78229   0.00000  Uiso   1.00
C909   C     0.65727   0.12791   0.78108   0.00000  Uiso   1.00
H910   H     0.62777   0.10553   0.78822   0.00000  Uiso   1.00
O911   O     0.33821   0.12710   0.74349   0.00000  Uiso   1.00
C912   C     0.34273   0.20542   0.88559   0.00000  Uiso   1.00
H913   H     0.37223   0.22781   0.87845   0.00000  Uiso   1.00
O914   O     0.66178   0.20624   0.92317   0.00000  Uiso   1.00
C915   C     0.41970   0.04036   0.76996   0.00000  Uiso   1.00
H916   H     0.41248   0.07344   0.77278   0.00000  Uiso   1.00
O917   O     0.39219   0.02029   0.74038   0.00000  Uiso   1.00
C918   C     0.58031   0.29297   0.89670   0.00000  Uiso   1.00
H919   H     0.58751   0.25989   0.89390   0.00000  Uiso   1.00
O920   O     0.60785   0.31305   0.92625   0.00000  Uiso   1.00
C921   C     0.83167   0.08675   0.83306   0.00000  Uiso   1.00
C922   C     0.83500   0.24659   0.83360   0.00000  Uiso   1.00
C923   C     0.73384   0.16630   0.82154   0.00000  Uiso   1.00
C924   C     0.93282   0.16703   0.84512   0.00000  Uiso   1.00
C925   C     0.67954   0.15921   0.81666   0.00000  Uiso   1.00
C926   C     0.98713   0.17412   0.85001   0.00000  Uiso   1.00
C927   C     0.79505   0.01994   0.80167   0.00000  Uiso   1.00
C928   C     0.87163   0.31339   0.86500   0.00000  Uiso   1.00
C929   C     0.79836   0.31023   0.80230   0.00000  Uiso   1.00
C930   C     0.86831   0.02310   0.86436   0.00000  Uiso   1.00
C931   C     0.83577   0.29076   0.83369   0.00000  Uiso   1.00
C932   C     0.83090   0.04258   0.83298   0.00000  Uiso   1.00
C933   C     0.86755   0.19138   0.69505   0.00000  Uiso   1.00
C934   C     0.79912   0.14196   0.97162   0.00000  Uiso   1.00
C935   C     0.86752   0.19138   0.98043   0.00000  Uiso   1.00
C936   C     0.79915   0.14195   0.68624   0.00000  Uiso   1.00
H937   H     0.77089   0.29154   0.77924   0.00000  Uiso   1.00
H938   H     0.89578   0.04180   0.88743   0.00000  Uiso   1.00
H939   H     0.89491   0.21113   0.71674   0.00000  Uiso   1.00
H940   H     0.77176   0.12220   0.94993   0.00000  Uiso   1.00
H941   H     0.89483   0.21116   0.96579   0.00000  Uiso   1.00
H942   H     0.77184   0.12217   0.70088   0.00000  Uiso   1.00
N943   N     0.83332   0.16666   0.95240   0.00000  Uiso   1.00
N944   N     0.83335   0.16668   0.71427   0.00000  Uiso   1.00
O945   O     0.83333   0.10558   0.87154   0.00000  Uiso   1.00
O946   O     0.83334   0.22775   0.79513   0.00000  Uiso   1.00
O947   O     0.83333   0.10559   0.79510   0.00000  Uiso   1.00
O948   O     0.83334   0.22774   0.87157   0.00000  Uiso   1.00
O949   O     0.75725   0.16666   0.86261   0.00000  Uiso   1.00
O950   O     0.90942   0.16667   0.80405   0.00000  Uiso   1.00
O951   O     0.75725   0.16667   0.78617   0.00000  Uiso   1.00
O952   O     0.90942   0.16666   0.88050   0.00000  Uiso   1.00
Zn953  Zn    0.83333   0.16666   0.88437   0.00000  Uiso   1.00
Zn954  Zn    0.83333   0.16667   0.78229   0.00000  Uiso   1.00
C955   C     0.99061   0.12791   0.78108   0.00000  Uiso   1.00
H956   H     0.96111   0.10553   0.78822   0.00000  Uiso   1.00
O957   O     0.67154   0.12710   0.74349   0.00000  Uiso   1.00
C958   C     0.67606   0.20542   0.88559   0.00000  Uiso   1.00
H959   H     0.70556   0.22781   0.87845   0.00000  Uiso   1.00
O960   O     0.99512   0.20624   0.92317   0.00000  Uiso   1.00
C961   C     0.75304   0.04036   0.76996   0.00000  Uiso   1.00
H962   H     0.74581   0.07344   0.77278   0.00000  Uiso   1.00
O963   O     0.72552   0.02029   0.74038   0.00000  Uiso   1.00
C964   C     0.91364   0.29297   0.89670   0.00000  Uiso   1.00
H965   H     0.92084   0.25989   0.89390   0.00000  Uiso   1.00
O966   O     0.94119   0.31305   0.92625   0.00000  Uiso   1.00
C967   C     0.16501   0.42008   0.83306   0.00000  Uiso   1.00
C968   C     0.16833   0.57992   0.83360   0.00000  Uiso   1.00
C969   C     0.06718   0.49964   0.82154   0.00000  Uiso   1.00
C970   C     0.26616   0.50036   0.84512   0.00000  Uiso   1.00
C971   C     0.01287   0.49255   0.81666   0.00000  Uiso   1.00
C972   C     0.32046   0.50745   0.85001   0.00000  Uiso   1.00
C973   C     0.12838   0.35327   0.80167   0.00000  Uiso   1.00
C974   C     0.20496   0.64673   0.86500   0.00000  Uiso   1.00
C975   C     0.13170   0.64357   0.80230   0.00000  Uiso   1.00
C976   C     0.20164   0.35643   0.86436   0.00000  Uiso   1.00
C977   C     0.16911   0.62409   0.83369   0.00000  Uiso   1.00
C978   C     0.16423   0.37591   0.83298   0.00000  Uiso   1.00
C979   C     0.20088   0.52471   0.69505   0.00000  Uiso   1.00
C980   C     0.13245   0.47529   0.97162   0.00000  Uiso   1.00
C981   C     0.20085   0.52471   0.98043   0.00000  Uiso   1.00
C982   C     0.13248   0.47529   0.68624   0.00000  Uiso   1.00
H983   H     0.10422   0.62487   0.77924   0.00000  Uiso   1.00
H984   H     0.22912   0.37513   0.88743   0.00000  Uiso   1.00
H985   H     0.22824   0.54446   0.71674   0.00000  Uiso   1.00
H986   H     0.10509   0.45553   0.94993   0.00000  Uiso   1.00
H987   H     0.22816   0.54450   0.96579   0.00000  Uiso   1.00
H988   H     0.10517   0.45550   0.70088   0.00000  Uiso   1.00
N989   N     0.16665   0.49999   0.95240   0.00000  Uiso   1.00
N990   N     0.16668   0.50001   0.71427   0.00000  Uiso   1.00
O991   O     0.16666   0.43892   0.87154   0.00000  Uiso   1.00
O992   O     0.16667   0.56108   0.79513   0.00000  Uiso   1.00
O993   O     0.16666   0.43893   0.79510   0.00000  Uiso   1.00
O994   O     0.16667   0.56107   0.87157   0.00000  Uiso   1.00
O995   O     0.09058   0.50000   0.86261   0.00000  Uiso   1.00
O996   O     0.24275   0.50000   0.80405   0.00000  Uiso   1.00
O997   O     0.09058   0.50000   0.78617   0.00000  Uiso   1.00
O998   O     0.24275   0.50000   0.88050   0.00000  Uiso   1.00
Zn999  Zn    0.16667   0.49999   0.88437   0.00000  Uiso   1.00
Zn1000 Zn    0.16667   0.50001   0.78229   0.00000  Uiso   1.00
C1001  C     0.32394   0.46125   0.78108   0.00000  Uiso   1.00
H1002  H     0.29444   0.43886   0.78822   0.00000  Uiso   1.00
O1003  O     0.00488   0.46044   0.74349   0.00000  Uiso   1.00
C1004  C     0.00939   0.53875   0.88559   0.00000  Uiso   1.00
H1005  H     0.03890   0.56114   0.87845   0.00000  Uiso   1.00
O1006  O     0.32845   0.53957   0.92317   0.00000  Uiso   1.00
C1007  C     0.08637   0.37370   0.76996   0.00000  Uiso   1.00
H1008  H     0.07914   0.40677   0.77278   0.00000  Uiso   1.00
O1009  O     0.05886   0.35362   0.74038   0.00000  Uiso   1.00
C1010  C     0.24697   0.62630   0.89670   0.00000  Uiso   1.00
H1011  H     0.25417   0.59322   0.89390   0.00000  Uiso   1.00
O1012  O     0.27452   0.64639   0.92625   0.00000  Uiso   1.00
C1013  C     0.49834   0.42008   0.83306   0.00000  Uiso   1.00
C1014  C     0.50166   0.57992   0.83360   0.00000  Uiso   1.00
C1015  C     0.40051   0.49964   0.82154   0.00000  Uiso   1.00
C1016  C     0.59949   0.50036   0.84512   0.00000  Uiso   1.00
C1017  C     0.34620   0.49255   0.81666   0.00000  Uiso   1.00
C1018  C     0.65380   0.50745   0.85001   0.00000  Uiso   1.00
C1019  C     0.46171   0.35327   0.80167   0.00000  Uiso   1.00
C1020  C     0.53829   0.64673   0.86500   0.00000  Uiso   1.00
C1021  C     0.46503   0.64357   0.80230   0.00000  Uiso   1.00
C1022  C     0.53498   0.35643   0.86436   0.00000  Uiso   1.00
C1023  C     0.50244   0.62409   0.83369   0.00000  Uiso   1.00
C1024  C     0.49756   0.37591   0.83298   0.00000  Uiso   1.00
C1025  C     0.53421   0.52471   0.69505   0.00000  Uiso   1.00
C1026  C     0.46579   0.47529   0.97162   0.00000  Uiso   1.00
C1027  C     0.53418   0.52471   0.98043   0.00000  Uiso   1.00
C1028  C     0.46582   0.47529   0.68624   0.00000  Uiso   1.00
H1029  H     0.43756   0.62487   0.77924   0.00000  Uiso   1.00
H1030  H     0.56245   0.37513   0.88743   0.00000  Uiso   1.00
H1031  H     0.56158   0.54446   0.71674   0.00000  Uiso   1.00
H1032  H     0.43842   0.45553   0.94993   0.00000  Uiso   1.00
H1033  H     0.56149   0.54450   0.96579   0.00000  Uiso   1.00
H1034  H     0.43851   0.45550   0.70088   0.00000  Uiso   1.00
N1035  N     0.49999   0.49999   0.95240   0.00000  Uiso   1.00
N1036  N     0.50001   0.50001   0.71427   0.00000  Uiso   1.00
O1037  O     0.50000   0.43892   0.87154   0.00000  Uiso   1.00
O1038  O     0.50000   0.56108   0.79513   0.00000  Uiso   1.00
O1039  O     0.50000   0.43893   0.79510   0.00000  Uiso   1.00
O1040  O     0.50000   0.56107   0.87157   0.00000  Uiso   1.00
O1041  O     0.42392   0.50000   0.86261   0.00000  Uiso   1.00
O1042  O     0.57608   0.50000   0.80405   0.00000  Uiso   1.00
O1043  O     0.42392   0.50000   0.78617   0.00000  Uiso   1.00
O1044  O     0.57608   0.50000   0.88050   0.00000  Uiso   1.00
Zn1045 Zn    0.50000   0.49999   0.88437   0.00000  Uiso   1.00
Zn1046 Zn    0.50000   0.50001   0.78229   0.00000  Uiso   1.00
C1047  C     0.65727   0.46125   0.78108   0.00000  Uiso   1.00
H1048  H     0.62777   0.43886   0.78822   0.00000  Uiso   1.00
O1049  O     0.33821   0.46044   0.74349   0.00000  Uiso   1.00
C1050  C     0.34273   0.53875   0.88559   0.00000  Uiso   1.00
H1051  H     0.37223   0.56114   0.87845   0.00000  Uiso   1.00
O1052  O     0.66178   0.53957   0.92317   0.00000  Uiso   1.00
C1053  C     0.41970   0.37370   0.76996   0.00000  Uiso   1.00
H1054  H     0.41248   0.40677   0.77278   0.00000  Uiso   1.00
O1055  O     0.39219   0.35362   0.74038   0.00000  Uiso   1.00
C1056  C     0.58031   0.62630   0.89670   0.00000  Uiso   1.00
H1057  H     0.58751   0.59322   0.89390   0.00000  Uiso   1.00
O1058  O     0.60785   0.64639   0.92625   0.00000  Uiso   1.00
C1059  C     0.83167   0.42008   0.83306   0.00000  Uiso   1.00
C1060  C     0.83500   0.57992   0.83360   0.00000  Uiso   1.00
C1061  C     0.73384   0.49964   0.82154   0.00000  Uiso   1.00
C1062  C     0.93282   0.50036   0.84512   0.00000  Uiso   1.00
C1063  C     0.67954   0.49255   0.81666   0.00000  Uiso   1.00
C1064  C     0.98713   0.50745   0.85001   0.00000  Uiso   1.00
C1065  C     0.79505   0.35327   0.80167   0.00000  Uiso   1.00
C1066  C     0.87163   0.64673   0.86500   0.00000  Uiso   1.00
C1067  C     0.79836   0.64357   0.80230   0.00000  Uiso   1.00
C1068  C     0.86831   0.35643   0.86436   0.00000  Uiso   1.00
C1069  C     0.83577   0.62409   0.83369   0.00000  Uiso   1.00
C1070  C     0.83090   0.37591   0.83298   0.00000  Uiso   1.00
C1071  C     0.86755   0.52471   0.69505   0.00000  Uiso   1.00
C1072  C     0.79912   0.47529   0.97162   0.00000  Uiso   1.00
C1073  C     0.86752   0.52471   0.98043   0.00000  Uiso   1.00
C1074  C     0.79915   0.47529   0.68624   0.00000  Uiso   1.00
H1075  H     0.77089   0.62487   0.77924   0.00000  Uiso   1.00
H1076  H     0.89578   0.37513   0.88743   0.00000  Uiso   1.00
H1077  H     0.89491   0.54446   0.71674   0.00000  Uiso   1.00
H1078  H     0.77176   0.45553   0.94993   0.00000  Uiso   1.00
H1079  H     0.89483   0.54450   0.96579   0.00000  Uiso   1.00
H1080  H     0.77184   0.45550   0.70088   0.00000  Uiso   1.00
N1081  N     0.83332   0.49999   0.95240   0.00000  Uiso   1.00
N1082  N     0.83335   0.50001   0.71427   0.00000  Uiso   1.00
O1083  O     0.83333   0.43892   0.87154   0.00000  Uiso   1.00
O1084  O     0.83334   0.56108   0.79513   0.00000  Uiso   1.00
O1085  O     0.83333   0.43893   0.79510   0.00000  Uiso   1.00
O1086  O     0.83334   0.56107   0.87157   0.00000  Uiso   1.00
O1087  O     0.75725   0.50000   0.86261   0.00000  Uiso   1.00
O1088  O     0.90942   0.50000   0.80405   0.00000  Uiso   1.00
O1089  O     0.75725   0.50000   0.78617   0.00000  Uiso   1.00
O1090  O     0.90942   0.50000   0.88050   0.00000  Uiso   1.00
Zn1091 Zn    0.83333   0.49999   0.88437   0.00000  Uiso   1.00
Zn1092 Zn    0.83333   0.50001   0.78229   0.00000  Uiso   1.00
C1093  C     0.99061   0.46125   0.78108   0.00000  Uiso   1.00
H1094  H     0.96111   0.43886   0.78822   0.00000  Uiso   1.00
O1095  O     0.67154   0.46044   0.74349   0.00000  Uiso   1.00
C1096  C     0.67606   0.53875   0.88559   0.00000  Uiso   1.00
H1097  H     0.70556   0.56114   0.87845   0.00000  Uiso   1.00
O1098  O     0.99512   0.53957   0.92317   0.00000  Uiso   1.00
C1099  C     0.75304   0.37370   0.76996   0.00000  Uiso   1.00
H1100  H     0.74581   0.40677   0.77278   0.00000  Uiso   1.00
O1101  O     0.72552   0.35362   0.74038   0.00000  Uiso   1.00
C1102  C     0.91364   0.62630   0.89670   0.00000  Uiso   1.00
H1103  H     0.92084   0.59322   0.89390   0.00000  Uiso   1.00
O1104  O     0.94119   0.64639   0.92625   0.00000  Uiso   1.00
C1105  C     0.16501   0.75341   0.83306   0.00000  Uiso   1.00
C1106  C     0.16833   0.91325   0.83360   0.00000  Uiso   1.00
C1107  C     0.06718   0.83297   0.82154   0.00000  Uiso   1.00
C1108  C     0.26616   0.83370   0.84512   0.00000  Uiso   1.00
C1109  C     0.01287   0.82588   0.81666   0.00000  Uiso   1.00
C1110  C     0.32046   0.84079   0.85001   0.00000  Uiso   1.00
C1111  C     0.12838   0.68661   0.80167   0.00000  Uiso   1.00
C1112  C     0.20496   0.98006   0.86500   0.00000  Uiso   1.00
C1113  C     0.13170   0.97690   0.80230   0.00000  Uiso   1.00
C1114  C     0.20164   0.68977   0.86436   0.00000  Uiso   1.00
C1115  C     0.16911   0.95742   0.83369   0.00000  Uiso   1.00
C1116  C     0.16423   0.70924   0.83298   0.00000  Uiso   1.00
C1117  C     0.20088   0.85804   0.69505   0.00000  Uiso   1.00
C1118  C     0.13245   0.80862   0.97162   0.00000  Uiso   1.00
C1119  C     0.20085   0.85805   0.98043   0.00000  Uiso   1.00
C1120  C     0.13248   0.80862   0.68624   0.00000  Uiso   1.00
H1121  H     0.10422   0.95820   0.77924   0.00000  Uiso   1.00
H1122  H     0.22912   0.70846   0.88743   0.00000  Uiso   1.00
H1123  H     0.22824   0.87780   0.71674   0.00000  Uiso   1.00
H1124  H     0.10509   0.78887   0.94993   0.00000  Uiso   1.00
H1125  H     0.22816   0.87783   0.96579   0.00000  Uiso   1.00
H1126  H     0.10517   0.78884   0.70088   0.00000  Uiso   1.00
N1127  N     0.16665   0.83332   0.95240   0.00000  Uiso   1.00
N1128  N     0.16668   0.83334   0.71427   0.00000  Uiso   1.00
O1129  O     0.16666   0.77225   0.87154   0.00000  Uiso   1.00
O1130  O     0.16667   0.89442   0.79513   0.00000  Uiso   1.00
O1131  O     0.16666   0.77226   0.79510   0.00000  Uiso   1.00
O1132  O     0.16667   0.89441   0.87157   0.00000  Uiso   1.00
O1133  O     0.09058   0.83333   0.86261   0.00000  Uiso   1.00
O1134  O     0.24275   0.83334   0.80405   0.00000  Uiso   1.00
O1135  O     0.09058   0.83334   0.78617   0.00000  Uiso   1.00
O1136  O     0.24275   0.83333   0.88050   0.00000  Uiso   1.00
Zn1137 Zn    0.16667   0.83333   0.88437   0.00000  Uiso   1.00
Zn1138 Zn    0.16667   0.83334   0.78229   0.00000  Uiso   1.00
C1139  C     0.32394   0.79458   0.78108   0.00000  Uiso   1.00
H1140  H     0.29444   0.77219   0.78822   0.00000  Uiso   1.00
O1141  O     0.00488   0.79377   0.74349   0.00000  Uiso   1.00
C1142  C     0.00939   0.87209   0.88559   0.00000  Uiso   1.00
H1143  H     0.03890   0.89447   0.87845   0.00000  Uiso   1.00
O1144  O     0.32845   0.87290   0.92317   0.00000  Uiso   1.00
C1145  C     0.08637   0.70703   0.76996   0.00000  Uiso   1.00
H1146  H     0.07914   0.74011   0.77278   0.00000  Uiso   1.00
O1147  O     0.05886   0.68695   0.74038   0.00000  Uiso   1.00
C1148  C     0.24697   0.95964   0.89670   0.00000  Uiso   1.00
H1149  H     0.25417   0.92655   0.89390   0.00000  Uiso   1.00
O1150  O     0.27452   0.97972   0.92625   0.00000  Uiso   1.00
C1151  C     0.49834   0.75341   0.83306   0.00000  Uiso   1.00
C1152  C     0.50166   0.91325   0.83360   0.00000  Uiso   1.00
C1153  C     0.40051   0.83297   0.82154   0.00000  Uiso   1.00
C1154  C     0.59949   0.83370   0.84512   0.00000  Uiso   1.00
C1155  C     0.34620   0.82588   0.81666   0.00000  Uiso   1.00
C1156  C     0.65380   0.84079   0.85001   0.00000  Uiso   1.00
C1157  C     0.46171   0.68661   0.80167   0.00000  Uiso   1.00
C1158  C     0.53829   0.98006   0.86500   0.00000  Uiso   1.00
C1159  C     0.46503   0.97690   0.80230   0.00000  Uiso   1.00
C1160  C     0.53498   0.68977   0.86436   0.00000  Uiso   1.00
C1161  C     0.50244   0.95742   0.83369   0.00000  Uiso   1.00
C1162  C     0.49756   0.70924   0.83298   0.00000  Uiso   1.00
C1163  C     0.53421   0.85804   0.69505   0.00000  Uiso   1.00
C1164  C     0.46579   0.80862   0.97162   0.00000  Uiso   1.00
C1165  C     0.53418   0.85805   0.98043   0.00000  Uiso   1.00
C1166  C     0.46582   0.80862   0.68624   0.00000  Uiso   1.00
H1167  H     0.43756   0.95820   0.77924   0.00000  Uiso   1.00
H1168  H     0.56245   0.70846   0.88743   0.00000  Uiso   1.00
H1169  H     0.56158   0.87780   0.71674   0.00000  Uiso   1.00
H1170  H     0.43842   0.78887   0.94993   0.00000  Uiso   1.00
H1171  H     0.56149   0.87783   0.96579   0.00000  Uiso   1.00
H1172  H     0.43851   0.78884   0.70088   0.00000  Uiso   1.00
N1173  N     0.49999   0.83332   0.95240   0.00000  Uiso   1.00
N1174  N     0.50001   0.83334   0.71427   0.00000  Uiso   1.00
O1175  O     0.50000   0.77225   0.87154   0.00000  Uiso   1.00
O1176  O     0.50000   0.89442   0.79513   0.00000  Uiso   1.00
O1177  O     0.50000   0.77226   0.79510   0.00000  Uiso   1.00
O1178  O     0.50000   0.89441   0.87157   0.00000  Uiso   1.00
O1179  O     0.42392   0.83333   0.86261   0.00000  Uiso   1.00
O1180  O     0.57608   0.83334   0.80405   0.00000  Uiso   1.00
O1181  O     0.42392   0.83334   0.78617   0.00000  Uiso   1.00
O1182  O     0.57608   0.83333   0.88050   0.00000  Uiso   1.00
Zn1183 Zn    0.50000   0.83333   0.88437   0.00000  Uiso   1.00
Zn1184 Zn    0.50000   0.83334   0.78229   0.00000  Uiso   1.00
C1185  C     0.65727   0.79458   0.78108   0.00000  Uiso   1.00
H1186  H     0.62777   0.77219   0.78822   0.00000  Uiso   1.00
O1187  O     0.33821   0.79377   0.74349   0.00000  Uiso   1.00
C1188  C     0.34273   0.87209   0.88559   0.00000  Uiso   1.00
H1189  H     0.37223   0.89447   0.87845   0.00000  Uiso   1.00
O1190  O     0.66178   0.87290   0.92317   0.00000  Uiso   1.00
C1191  C     0.41970   0.70703   0.76996   0.00000  Uiso   1.00
H1192  H     0.41248   0.74011   0.77278   0.00000  Uiso   1.00
O1193  O     0.39219   0.68695   0.74038   0.00000  Uiso   1.00
C1194  C     0.58031   0.95964   0.89670   0.00000  Uiso   1.00
H1195  H     0.58751   0.92655   0.89390   0.00000  Uiso   1.00
O1196  O     0.60785   0.97972   0.92625   0.00000  Uiso   1.00
C1197  C     0.83167   0.75341   0.83306   0.00000  Uiso   1.00
C1198  C     0.83500   0.91325   0.83360   0.00000  Uiso   1.00
C1199  C     0.73384   0.83297   0.82154   0.00000  Uiso   1.00
C1200  C     0.93282   0.83370   0.84512   0.00000  Uiso   1.00
C1201  C     0.67954   0.82588   0.81666   0.00000  Uiso   1.00
C1202  C     0.98713   0.84079   0.85001   0.00000  Uiso   1.00
C1203  C     0.79505   0.68661   0.80167   0.00000  Uiso   1.00
C1204  C     0.87163   0.98006   0.86500   0.00000  Uiso   1.00
C1205  C     0.79836   0.97690   0.80230   0.00000  Uiso   1.00
C1206  C     0.86831   0.68977   0.86436   0.00000  Uiso   1.00
C1207  C     0.83577   0.95742   0.83369   0.00000  Uiso   1.00
C1208  C     0.83090   0.70924   0.83298   0.00000  Uiso   1.00
C1209  C     0.86755   0.85804   0.69505   0.00000  Uiso   1.00
C1210  C     0.79912   0.80862   0.97162   0.00000  Uiso   1.00
C1211  C     0.86752   0.85805   0.98043   0.00000  Uiso   1.00
C1212  C     0.79915   0.80862   0.68624   0.00000  Uiso   1.00
H1213  H     0.77089   0.95820   0.77924   0.00000  Uiso   1.00
H1214  H     0.89578   0.70846   0.88743   0.00000  Uiso   1.00
H1215  H     0.89491   0.87780   0.71674   0.00000  Uiso   1.00
H1216  H     0.77176   0.78887   0.94993   0.00000  Uiso   1.00
H1217  H     0.89483   0.87783   0.96579   0.00000  Uiso   1.00
H1218  H     0.77184   0.78884   0.70088   0.00000  Uiso   1.00
N1219  N     0.83332   0.83332   0.95240   0.00000  Uiso   1.00
N1220  N     0.83335   0.83334   0.71427   0.00000  Uiso   1.00
O1221  O     0.83333   0.77225   0.87154   0.00000  Uiso   1.00
O1222  O     0.83334   0.89442   0.79513   0.00000  Uiso   1.00
O1223  O     0.83333   0.77226   0.79510   0.00000  Uiso   1.00
O1224  O     0.83334   0.89441   0.87157   0.00000  Uiso   1.00
O1225  O     0.75725   0.83333   0.86261   0.00000  Uiso   1.00
O1226  O     0.90942   0.83334   0.80405   0.00000  Uiso   1.00
O1227  O     0.75725   0.83334   0.78617   0.00000  Uiso   1.00
O1228  O     0.90942   0.83333   0.88050   0.00000  Uiso   1.00
Zn1229 Zn    0.83333   0.83333   0.88437   0.00000  Uiso   1.00
Zn1230 Zn    0.83333   0.83334   0.78229   0.00000  Uiso   1.00
C1231  C     0.99061   0.79458   0.78108   0.00000  Uiso   1.00
H1232  H     0.96111   0.77219   0.78822   0.00000  Uiso   1.00
O1233  O     0.67154   0.79377   0.74349   0.00000  Uiso   1.00
C1234  C     0.67606   0.87209   0.88559   0.00000  Uiso   1.00
H1235  H     0.70556   0.89447   0.87845   0.00000  Uiso   1.00
O1236  O     0.99512   0.87290   0.92317   0.00000  Uiso   1.00
C1237  C     0.75304   0.70703   0.76996   0.00000  Uiso   1.00
H1238  H     0.74581   0.74011   0.77278   0.00000  Uiso   1.00
O1239  O     0.72552   0.68695   0.74038   0.00000  Uiso   1.00
C1240  C     0.91364   0.95964   0.89670   0.00000  Uiso   1.00
H1241  H     0.92084   0.92655   0.89390   0.00000  Uiso   1.00
O1242  O     0.94119   0.97972   0.92625   0.00000  Uiso   1.00
loop_
_geom_bond_atom_site_label_1
_geom_bond_atom_site_label_2
_geom_bond_distance
_geom_bond_site_symmetry_2
_ccdc_geom_bond_type
C1     O25     1.281   .     A
C1     O27     1.280   .     A
C1     C12     1.412   .     S
C2     O26     1.281   .     A
C2     C11     1.412   .     S
C2     O28     1.280   .     A
C3     O31     1.283   .     A
C3     O29     1.275   .     A
C3     C5      1.412   .     S
C4     O32     1.283   .     A
C4     C6      1.412   .     S
C4     O30     1.275   .     A
C5     C98     1.357   1_455 S
C5     C127    1.499   1_455 S
C6     C51     1.357   .     S
C6     C84     1.499   .     S
C7     C12     1.406   .     A
C7     C41     1.488   .     S
C7     C285    1.380   1_545 S
C8     C11     1.406   .     A
C8     C44     1.488   .     S
C8     C148    1.380   .     S
C9     C11     1.394   .     A
C9     H17     1.085   .     S
C9     C145    1.380   .     S
C10    C12     1.394   .     A
C10    H18     1.085   .     S
C10    C284    1.380   1_545 S
C13    H19     1.082   .     S
C13    N24     1.366   .     A
C13    C843    1.417   1_554 S
C14    N23     1.366   .     A
C14    H20     1.082   .     S
C14    C430    1.417   .     S
C15    N23     1.366   .     A
C15    H21     1.082   .     S
C15    C427    1.417   .     S
C16    N24     1.366   .     A
C16    H22     1.082   .     S
C16    C842    1.417   1_554 S
N23    Zn33    2.010   .     S
N24    Zn34    2.010   .     S
O25    Zn33    1.989   .     S
O26    Zn34    1.989   .     S
O27    Zn34    1.990   .     S
O28    Zn33    1.990   .     S
O29    Zn33    1.987   .     S
O30    Zn34    1.987   .     S
O31    Zn34    1.996   .     S
O32    Zn33    1.996   .     S
C35    H36     1.086   .     S
C35    C51     1.499   .     S
C35    O83     1.221   .     S
O37    C127    1.221   1_455 S
C38    H39     1.086   .     S
C38    C98     1.499   1_455 S
C38    O132    1.221   1_455 S
O40    C84     1.221   .     S
C41    H42     1.082   .     S
C41    O43     1.221   .     D
C44    O46     1.221   .     D
C44    H45     1.081   .     S
C47    O71     1.281   .     A
C47    O73     1.280   .     A
C47    C58     1.412   .     S
C48    O72     1.281   .     A
C48    C57     1.412   .     S
C48    O74     1.280   .     A
C49    O77     1.283   .     A
C49    O75     1.275   .     A
C49    C51     1.412   .     S
C50    O78     1.283   .     A
C50    C52     1.412   .     S
C50    O76     1.275   .     A
C52    C97     1.357   .     S
C52    C130    1.499   .     S
C53    C58     1.406   .     A
C53    C87     1.488   .     S
C53    C331    1.380   1_545 S
C54    C57     1.406   .     A
C54    C90     1.488   .     S
C54    C194    1.380   .     S
C55    C57     1.394   .     A
C55    H63     1.085   .     S
C55    C191    1.380   .     S
C56    C58     1.394   .     A
C56    H64     1.085   .     S
C56    C330    1.380   1_545 S
C59    H65     1.082   .     S
C59    N70     1.366   .     A
C59    C889    1.417   1_554 S
C60    N69     1.366   .     A
C60    H66     1.082   .     S
C60    C476    1.417   .     S
C61    N69     1.366   .     A
C61    H67     1.082   .     S
C61    C473    1.417   .     S
C62    N70     1.366   .     A
C62    H68     1.082   .     S
C62    C888    1.417   1_554 S
N69    Zn79    2.010   .     S
N70    Zn80    2.010   .     S
O71    Zn79    1.989   .     S
O72    Zn80    1.989   .     S
O73    Zn80    1.990   .     S
O74    Zn79    1.990   .     S
O75    Zn79    1.987   .     S
O76    Zn80    1.987   .     S
O77    Zn80    1.996   .     S
O78    Zn79    1.996   .     S
C81    H82     1.086   .     S
C81    C97     1.499   .     S
C81    O129    1.221   .     S
C84    H85     1.086   .     S
O86    C130    1.221   .     S
C87    H88     1.082   .     S
C87    O89     1.221   .     D
C90    O92     1.221   .     D
C90    H91     1.081   .     S
C93    O117    1.281   .     A
C93    O119    1.280   .     A
C93    C104    1.412   .     S
C94    O118    1.281   .     A
C94    C103    1.412   .     S
C94    O120    1.280   .     A
C95    O123    1.283   .     A
C95    O121    1.275   .     A
C95    C97     1.412   .     S
C96    O124    1.283   .     A
C96    C98     1.412   .     S
C96    O122    1.275   .     A
C98    C5      1.357   1_655 S
C98    C38     1.499   1_655 S
C99    C104    1.406   .     A
C99    C133    1.488   .     S
C99    C377    1.380   1_545 S
C100   C103    1.406   .     A
C100   C136    1.488   .     S
C100   C240    1.380   .     S
C101   C103    1.394   .     A
C101   H109    1.085   .     S
C101   C237    1.380   .     S
C102   C104    1.394   .     A
C102   H110    1.085   .     S
C102   C376    1.380   1_545 S
C105   H111    1.082   .     S
C105   N116    1.366   .     A
C105   C935    1.417   1_554 S
C106   N115    1.366   .     A
C106   H112    1.082   .     S
C106   C522    1.417   .     S
C107   N115    1.366   .     A
C107   H113    1.082   .     S
C107   C519    1.417   .     S
C108   N116    1.366   .     A
C108   H114    1.082   .     S
C108   C934    1.417   1_554 S
N115   Zn125   2.010   .     S
N116   Zn126   2.010   .     S
O117   Zn125   1.989   .     S
O118   Zn126   1.989   .     S
O119   Zn126   1.990   .     S
O120   Zn125   1.990   .     S
O121   Zn125   1.987   .     S
O122   Zn126   1.987   .     S
O123   Zn126   1.996   .     S
O124   Zn125   1.996   .     S
C127   H128    1.086   .     S
C127   C5      1.499   1_655 S
C127   O37     1.221   1_655 S
C130   H131    1.086   .     S
O132   C38     1.221   1_655 S
C133   H134    1.082   .     S
C133   O135    1.221   .     D
C136   O138    1.221   .     D
C136   H137    1.081   .     S
C139   O163    1.281   .     A
C139   O165    1.280   .     A
C139   C150    1.412   .     S
C140   O164    1.281   .     A
C140   C149    1.412   .     S
C140   O166    1.280   .     A
C141   O169    1.283   .     A
C141   O167    1.275   .     A
C141   C143    1.412   .     S
C142   O170    1.283   .     A
C142   C144    1.412   .     S
C142   O168    1.275   .     A
C143   C236    1.357   1_455 S
C143   C265    1.499   1_455 S
C144   C189    1.357   .     S
C144   C222    1.499   .     S
C145   C150    1.406   .     A
C145   C179    1.488   .     S
C146   C149    1.406   .     A
C146   C182    1.488   .     S
C146   C286    1.380   .     S
C147   C149    1.394   .     A
C147   H155    1.085   .     S
C147   C283    1.380   .     S
C148   C150    1.394   .     A
C148   H156    1.085   .     S
C151   H157    1.082   .     S
C151   N162    1.366   .     A
C151   C981    1.417   1_554 S
C152   N161    1.366   .     A
C152   H158    1.082   .     S
C152   C568    1.417   .     S
C153   N161    1.366   .     A
C153   H159    1.082   .     S
C153   C565    1.417   .     S
C154   N162    1.366   .     A
C154   H160    1.082   .     S
C154   C980    1.417   1_554 S
N161   Zn171   2.010   .     S
N162   Zn172   2.010   .     S
O163   Zn171   1.989   .     S
O164   Zn172   1.989   .     S
O165   Zn172   1.990   .     S
O166   Zn171   1.990   .     S
O167   Zn171   1.987   .     S
O168   Zn172   1.987   .     S
O169   Zn172   1.996   .     S
O170   Zn171   1.996   .     S
C173   H174    1.086   .     S
C173   C189    1.499   .     S
C173   O221    1.221   .     S
O175   C265    1.221   1_455 S
C176   H177    1.086   .     S
C176   C236    1.499   1_455 S
C176   O270    1.221   1_455 S
O178   C222    1.221   .     S
C179   H180    1.082   .     S
C179   O181    1.221   .     D
C182   O184    1.221   .     D
C182   H183    1.081   .     S
C185   O209    1.281   .     A
C185   O211    1.280   .     A
C185   C196    1.412   .     S
C186   O210    1.281   .     A
C186   C195    1.412   .     S
C186   O212    1.280   .     A
C187   O215    1.283   .     A
C187   O213    1.275   .     A
C187   C189    1.412   .     S
C188   O216    1.283   .     A
C188   C190    1.412   .     S
C188   O214    1.275   .     A
C190   C235    1.357   .     S
C190   C268    1.499   .     S
C191   C196    1.406   .     A
C191   C225    1.488   .     S
C192   C195    1.406   .     A
C192   C228    1.488   .     S
C192   C332    1.380   .     S
C193   C195    1.394   .     A
C193   H201    1.085   .     S
C193   C329    1.380   .     S
C194   C196    1.394   .     A
C194   H202    1.085   .     S
C197   H203    1.082   .     S
C197   N208    1.366   .     A
C197   C1027   1.417   1_554 S
C198   N207    1.366   .     A
C198   H204    1.082   .     S
C198   C614    1.417   .     S
C199   N207    1.366   .     A
C199   H205    1.082   .     S
C199   C611    1.417   .     S
C200   N208    1.366   .     A
C200   H206    1.082   .     S
C200   C1026   1.417   1_554 S
N207   Zn217   2.010   .     S
N208   Zn218   2.010   .     S
O209   Zn217   1.989   .     S
O210   Zn218   1.989   .     S
O211   Zn218   1.990   .     S
O212   Zn217   1.990   .     S
O213   Zn217   1.987   .     S
O214   Zn218   1.987   .     S
O215   Zn218   1.996   .     S
O216   Zn217   1.996   .     S
C219   H220    1.086   .     S
C219   C235    1.499   .     S
C219   O267    1.221   .     S
C222   H223    1.086   .     S
O224   C268    1.221   .     S
C225   H226    1.082   .     S
C225   O227    1.221   .     D
C228   O230    1.221   .     D
C228   H229    1.081   .     S
C231   O255    1.281   .     A
C231   O257    1.280   .     A
C231   C242    1.412   .     S
C232   O256    1.281   .     A
C232   C241    1.412   .     S
C232   O258    1.280   .     A
C233   O261    1.283   .     A
C233   O259    1.275   .     A
C233   C235    1.412   .     S
C234   O262    1.283   .     A
C234   C236    1.412   .     S
C234   O260    1.275   .     A
C236   C143    1.357   1_655 S
C236   C176    1.499   1_655 S
C237   C242    1.406   .     A
C237   C271    1.488   .     S
C238   C241    1.406   .     A
C238   C274    1.488   .     S
C238   C378    1.380   .     S
C239   C241    1.394   .     A
C239   H247    1.085   .     S
C239   C375    1.380   .     S
C240   C242    1.394   .     A
C240   H248    1.085   .     S
C243   H249    1.082   .     S
C243   N254    1.366   .     A
C243   C1073   1.417   1_554 S
C244   N253    1.366   .     A
C244   H250    1.082   .     S
C244   C660    1.417   .     S
C245   N253    1.366   .     A
C245   H251    1.082   .     S
C245   C657    1.417   .     S
C246   N254    1.366   .     A
C246   H252    1.082   .     S
C246   C1072   1.417   1_554 S
N253   Zn263   2.010   .     S
N254   Zn264   2.010   .     S
O255   Zn263   1.989   .     S
O256   Zn264   1.989   .     S
O257   Zn264   1.990   .     S
O258   Zn263   1.990   .     S
O259   Zn263   1.987   .     S
O260   Zn264   1.987   .     S
O261   Zn264   1.996   .     S
O262   Zn263   1.996   .     S
C265   H266    1.086   .     S
C265   C143    1.499   1_655 S
C265   O175    1.221   1_655 S
C268   H269    1.086   .     S
O270   C176    1.221   1_655 S
C271   H272    1.082   .     S
C271   O273    1.221   .     D
C274   O276    1.221   .     D
C274   H275    1.081   .     S
C277   O301    1.281   .     A
C277   O303    1.280   .     A
C277   C288    1.412   .     S
C278   O302    1.281   .     A
C278   C287    1.412   .     S
C278   O304    1.280   .     A
C279   O307    1.283   .     A
C279   O305    1.275   .     A
C279   C281    1.412   .     S
C280   O308    1.283   .     A
C280   C282    1.412   .     S
C280   O306    1.275   .     A
C281   C374    1.357   1_455 S
C281   C403    1.499   1_455 S
C282   C327    1.357   .     S
C282   C360    1.499   .     S
C283   C288    1.406   .     A
C283   C317    1.488   .     S
C284   C287    1.406   .     A
C284   C320    1.488   .     S
C284   C10     1.380   1_565 S
C285   C287    1.394   .     A
C285   H293    1.085   .     S
C285   C7      1.380   1_565 S
C286   C288    1.394   .     A
C286   H294    1.085   .     S
C289   H295    1.082   .     S
C289   N300    1.366   .     A
C289   C1119   1.417   1_554 S
C290   N299    1.366   .     A
C290   H296    1.082   .     S
C290   C706    1.417   .     S
C291   N299    1.366   .     A
C291   H297    1.082   .     S
C291   C703    1.417   .     S
C292   N300    1.366   .     A
C292   H298    1.082   .     S
C292   C1118   1.417   1_554 S
N299   Zn309   2.010   .     S
N300   Zn310   2.010   .     S
O301   Zn309   1.989   .     S
O302   Zn310   1.989   .     S
O303   Zn310   1.990   .     S
O304   Zn309   1.990   .     S
O305   Zn309   1.987   .     S
O306   Zn310   1.987   .     S
O307   Zn310   1.996   .     S
O308   Zn309   1.996   .     S
C311   H312    1.086   .     S
C311   C327    1.499   .     S
C311   O359    1.221   .     S
O313   C403    1.221   1_455 S
C314   H315    1.086   .     S
C314   C374    1.499   1_455 S
C314   O408    1.221   1_455 S
O316   C360    1.221   .     S
C317   H318    1.082   .     S
C317   O319    1.221   .     D
C320   O322    1.221   .     D
C320   H321    1.081   .     S
C323   O347    1.281   .     A
C323   O349    1.280   .     A
C323   C334    1.412   .     S
C324   O348    1.281   .     A
C324   C333    1.412   .     S
C324   O350    1.280   .     A
C325   O353    1.283   .     A
C325   O351    1.275   .     A
C325   C327    1.412   .     S
C326   O354    1.283   .     A
C326   C328    1.412   .     S
C326   O352    1.275   .     A
C328   C373    1.357   .     S
C328   C406    1.499   .     S
C329   C334    1.406   .     A
C329   C363    1.488   .     S
C330   C333    1.406   .     A
C330   C366    1.488   .     S
C330   C56     1.380   1_565 S
C331   C333    1.394   .     A
C331   H339    1.085   .     S
C331   C53     1.380   1_565 S
C332   C334    1.394   .     A
C332   H340    1.085   .     S
C335   H341    1.082   .     S
C335   N346    1.366   .     A
C335   C1165   1.417   1_554 S
C336   N345    1.366   .     A
C336   H342    1.082   .     S
C336   C752    1.417   .     S
C337   N345    1.366   .     A
C337   H343    1.082   .     S
C337   C749    1.417   .     S
C338   N346    1.366   .     A
C338   H344    1.082   .     S
C338   C1164   1.417   1_554 S
N345   Zn355   2.010   .     S
N346   Zn356   2.010   .     S
O347   Zn355   1.989   .     S
O348   Zn356   1.989   .     S
O349   Zn356   1.990   .     S
O350   Zn355   1.990   .     S
O351   Zn355   1.987   .     S
O352   Zn356   1.987   .     S
O353   Zn356   1.996   .     S
O354   Zn355   1.996   .     S
C357   H358    1.086   .     S
C357   C373    1.499   .     S
C357   O405    1.221   .     S
C360   H361    1.086   .     S
O362   C406    1.221   .     S
C363   H364    1.082   .     S
C363   O365    1.221   .     D
C366   O368    1.221   .     D
C366   H367    1.081   .     S
C369   O393    1.281   .     A
C369   O395    1.280   .     A
C369   C380    1.412   .     S
C370   O394    1.281   .     A
C370   C379    1.412   .     S
C370   O396    1.280   .     A
C371   O399    1.283   .     A
C371   O397    1.275   .     A
C371   C373    1.412   .     S
C372   O400    1.283   .     A
C372   C374    1.412   .     S
C372   O398    1.275   .     A
C374   C281    1.357   1_655 S
C374   C314    1.499   1_655 S
C375   C380    1.406   .     A
C375   C409    1.488   .     S
C376   C379    1.406   .     A
C376   C412    1.488   .     S
C376   C102    1.380   1_565 S
C377   C379    1.394   .     A
C377   H385    1.085   .     S
C377   C99     1.380   1_565 S
C378   C380    1.394   .     A
C378   H386    1.085   .     S
C381   H387    1.082   .     S
C381   N392    1.366   .     A
C381   C1211   1.417   1_554 S
C382   N391    1.366   .     A
C382   H388    1.082   .     S
C382   C798    1.417   .     S
C383   N391    1.366   .     A
C383   H389    1.082   .     S
C383   C795    1.417   .     S
C384   N392    1.366   .     A
C384   H390    1.082   .     S
C384   C1210   1.417   1_554 S
N391   Zn401   2.010   .     S
N392   Zn402   2.010   .     S
O393   Zn401   1.989   .     S
O394   Zn402   1.989   .     S
O395   Zn402   1.990   .     S
O396   Zn401   1.990   .     S
O397   Zn401   1.987   .     S
O398   Zn402   1.987   .     S
O399   Zn402   1.996   .     S
O400   Zn401   1.996   .     S
C403   H404    1.086   .     S
C403   C281    1.499   1_655 S
C403   O313    1.221   1_655 S
C406   H407    1.086   .     S
O408   C314    1.221   1_655 S
C409   H410    1.082   .     S
C409   O411    1.221   .     D
C412   O414    1.221   .     D
C412   H413    1.081   .     S
C415   O439    1.281   .     A
C415   O441    1.280   .     A
C415   C426    1.412   .     S
C416   O440    1.281   .     A
C416   C425    1.412   .     S
C416   O442    1.280   .     A
C417   O445    1.283   .     A
C417   O443    1.275   .     A
C417   C419    1.412   .     S
C418   O446    1.283   .     A
C418   C420    1.412   .     S
C418   O444    1.275   .     A
C419   C512    1.357   1_455 S
C419   C541    1.499   1_455 S
C420   C465    1.357   .     S
C420   C498    1.499   .     S
C421   C426    1.406   .     A
C421   C455    1.488   .     S
C421   C699    1.380   1_545 S
C422   C425    1.406   .     A
C422   C458    1.488   .     S
C422   C562    1.380   .     S
C423   C425    1.394   .     A
C423   H431    1.085   .     S
C423   C559    1.380   .     S
C424   C426    1.394   .     A
C424   H432    1.085   .     S
C424   C698    1.380   1_545 S
C427   H433    1.082   .     S
C427   N438    1.366   .     A
C428   N437    1.366   .     A
C428   H434    1.082   .     S
C428   C844    1.417   .     S
C429   N437    1.366   .     A
C429   H435    1.082   .     S
C429   C841    1.417   .     S
C430   N438    1.366   .     A
C430   H436    1.082   .     S
N437   Zn447   2.010   .     S
N438   Zn448   2.010   .     S
O439   Zn447   1.989   .     S
O440   Zn448   1.989   .     S
O441   Zn448   1.990   .     S
O442   Zn447   1.990   .     S
O443   Zn447   1.987   .     S
O444   Zn448   1.987   .     S
O445   Zn448   1.996   .     S
O446   Zn447   1.996   .     S
C449   H450    1.086   .     S
C449   C465    1.499   .     S
C449   O497    1.221   .     S
O451   C541    1.221   1_455 S
C452   H453    1.086   .     S
C452   C512    1.499   1_455 S
C452   O546    1.221   1_455 S
O454   C498    1.221   .     S
C455   H456    1.082   .     S
C455   O457    1.221   .     D
C458   O460    1.221   .     D
C458   H459    1.081   .     S
C461   O485    1.281   .     A
C461   O487    1.280   .     A
C461   C472    1.412   .     S
C462   O486    1.281   .     A
C462   C471    1.412   .     S
C462   O488    1.280   .     A
C463   O491    1.283   .     A
C463   O489    1.275   .     A
C463   C465    1.412   .     S
C464   O492    1.283   .     A
C464   C466    1.412   .     S
C464   O490    1.275   .     A
C466   C511    1.357   .     S
C466   C544    1.499   .     S
C467   C472    1.406   .     A
C467   C501    1.488   .     S
C467   C745    1.380   1_545 S
C468   C471    1.406   .     A
C468   C504    1.488   .     S
C468   C608    1.380   .     S
C469   C471    1.394   .     A
C469   H477    1.085   .     S
C469   C605    1.380   .     S
C470   C472    1.394   .     A
C470   H478    1.085   .     S
C470   C744    1.380   1_545 S
C473   H479    1.082   .     S
C473   N484    1.366   .     A
C474   N483    1.366   .     A
C474   H480    1.082   .     S
C474   C890    1.417   .     S
C475   N483    1.366   .     A
C475   H481    1.082   .     S
C475   C887    1.417   .     S
C476   N484    1.366   .     A
C476   H482    1.082   .     S
N483   Zn493   2.010   .     S
N484   Zn494   2.010   .     S
O485   Zn493   1.989   .     S
O486   Zn494   1.989   .     S
O487   Zn494   1.990   .     S
O488   Zn493   1.990   .     S
O489   Zn493   1.987   .     S
O490   Zn494   1.987   .     S
O491   Zn494   1.996   .     S
O492   Zn493   1.996   .     S
C495   H496    1.086   .     S
C495   C511    1.499   .     S
C495   O543    1.221   .     S
C498   H499    1.086   .     S
O500   C544    1.221   .     S
C501   H502    1.082   .     S
C501   O503    1.221   .     D
C504   O506    1.221   .     D
C504   H505    1.081   .     S
C507   O531    1.281   .     A
C507   O533    1.280   .     A
C507   C518    1.412   .     S
C508   O532    1.281   .     A
C508   C517    1.412   .     S
C508   O534    1.280   .     A
C509   O537    1.283   .     A
C509   O535    1.275   .     A
C509   C511    1.412   .     S
C510   O538    1.283   .     A
C510   C512    1.412   .     S
C510   O536    1.275   .     A
C512   C419    1.357   1_655 S
C512   C452    1.499   1_655 S
C513   C518    1.406   .     A
C513   C547    1.488   .     S
C513   C791    1.380   1_545 S
C514   C517    1.406   .     A
C514   C550    1.488   .     S
C514   C654    1.380   .     S
C515   C517    1.394   .     A
C515   H523    1.085   .     S
C515   C651    1.380   .     S
C516   C518    1.394   .     A
C516   H524    1.085   .     S
C516   C790    1.380   1_545 S
C519   H525    1.082   .     S
C519   N530    1.366   .     A
C520   N529    1.366   .     A
C520   H526    1.082   .     S
C520   C936    1.417   .     S
C521   N529    1.366   .     A
C521   H527    1.082   .     S
C521   C933    1.417   .     S
C522   N530    1.366   .     A
C522   H528    1.082   .     S
N529   Zn539   2.010   .     S
N530   Zn540   2.010   .     S
O531   Zn539   1.989   .     S
O532   Zn540   1.989   .     S
O533   Zn540   1.990   .     S
O534   Zn539   1.990   .     S
O535   Zn539   1.987   .     S
O536   Zn540   1.987   .     S
O537   Zn540   1.996   .     S
O538   Zn539   1.996   .     S
C541   H542    1.086   .     S
C541   C419    1.499   1_655 S
C541   O451    1.221   1_655 S
C544   H545    1.086   .     S
O546   C452    1.221   1_655 S
C547   H548    1.082   .     S
C547   O549    1.221   .     D
C550   O552    1.221   .     D
C550   H551    1.081   .     S
C553   O577    1.281   .     A
C553   O579    1.280   .     A
C553   C564    1.412   .     S
C554   O578    1.281   .     A
C554   C563    1.412   .     S
C554   O580    1.280   .     A
C555   O583    1.283   .     A
C555   O581    1.275   .     A
C555   C557    1.412   .     S
C556   O584    1.283   .     A
C556   C558    1.412   .     S
C556   O582    1.275   .     A
C557   C650    1.357   1_455 S
C557   C679    1.499   1_455 S
C558   C603    1.357   .     S
C558   C636    1.499   .     S
C559   C564    1.406   .     A
C559   C593    1.488   .     S
C560   C563    1.406   .     A
C560   C596    1.488   .     S
C560   C700    1.380   .     S
C561   C563    1.394   .     A
C561   H569    1.085   .     S
C561   C697    1.380   .     S
C562   C564    1.394   .     A
C562   H570    1.085   .     S
C565   H571    1.082   .     S
C565   N576    1.366   .     A
C566   N575    1.366   .     A
C566   H572    1.082   .     S
C566   C982    1.417   .     S
C567   N575    1.366   .     A
C567   H573    1.082   .     S
C567   C979    1.417   .     S
C568   N576    1.366   .     A
C568   H574    1.082   .     S
N575   Zn585   2.010   .     S
N576   Zn586   2.010   .     S
O577   Zn585   1.989   .     S
O578   Zn586   1.989   .     S
O579   Zn586   1.990   .     S
O580   Zn585   1.990   .     S
O581   Zn585   1.987   .     S
O582   Zn586   1.987   .     S
O583   Zn586   1.996   .     S
O584   Zn585   1.996   .     S
C587   H588    1.086   .     S
C587   C603    1.499   .     S
C587   O635    1.221   .     S
O589   C679    1.221   1_455 S
C590   H591    1.086   .     S
C590   C650    1.499   1_455 S
C590   O684    1.221   1_455 S
O592   C636    1.221   .     S
C593   H594    1.082   .     S
C593   O595    1.221   .     D
C596   O598    1.221   .     D
C596   H597    1.081   .     S
C599   O623    1.281   .     A
C599   O625    1.280   .     A
C599   C610    1.412   .     S
C600   O624    1.281   .     A
C600   C609    1.412   .     S
C600   O626    1.280   .     A
C601   O629    1.283   .     A
C601   O627    1.275   .     A
C601   C603    1.412   .     S
C602   O630    1.283   .     A
C602   C604    1.412   .     S
C602   O628    1.275   .     A
C604   C649    1.357   .     S
C604   C682    1.499   .     S
C605   C610    1.406   .     A
C605   C639    1.488   .     S
C606   C609    1.406   .     A
C606   C642    1.488   .     S
C606   C746    1.380   .     S
C607   C609    1.394   .     A
C607   H615    1.085   .     S
C607   C743    1.380   .     S
C608   C610    1.394   .     A
C608   H616    1.085   .     S
C611   H617    1.082   .     S
C611   N622    1.366   .     A
C612   N621    1.366   .     A
C612   H618    1.082   .     S
C612   C1028   1.417   .     S
C613   N621    1.366   .     A
C613   H619    1.082   .     S
C613   C1025   1.417   .     S
C614   N622    1.366   .     A
C614   H620    1.082   .     S
N621   Zn631   2.010   .     S
N622   Zn632   2.010   .     S
O623   Zn631   1.989   .     S
O624   Zn632   1.989   .     S
O625   Zn632   1.990   .     S
O626   Zn631   1.990   .     S
O627   Zn631   1.987   .     S
O628   Zn632   1.987   .     S
O629   Zn632   1.996   .     S
O630   Zn631   1.996   .     S
C633   H634    1.086   .     S
C633   C649    1.499   .     S
C633   O681    1.221   .     S
C636   H637    1.086   .     S
O638   C682    1.221   .     S
C639   H640    1.082   .     S
C639   O641    1.221   .     D
C642   O644    1.221   .     D
C642   H643    1.081   .     S
C645   O669    1.281   .     A
C645   O671    1.280   .     A
C645   C656    1.412   .     S
C646   O670    1.281   .     A
C646   C655    1.412   .     S
C646   O672    1.280   .     A
C647   O675    1.283   .     A
C647   O673    1.275   .     A
C647   C649    1.412   .     S
C648   O676    1.283   .     A
C648   C650    1.412   .     S
C648   O674    1.275   .     A
C650   C557    1.357   1_655 S
C650   C590    1.499   1_655 S
C651   C656    1.406   .     A
C651   C685    1.488   .     S
C652   C655    1.406   .     A
C652   C688    1.488   .     S
C652   C792    1.380   .     S
C653   C655    1.394   .     A
C653   H661    1.085   .     S
C653   C789    1.380   .     S
C654   C656    1.394   .     A
C654   H662    1.085   .     S
C657   H663    1.082   .     S
C657   N668    1.366   .     A
C658   N667    1.366   .     A
C658   H664    1.082   .     S
C658   C1074   1.417   .     S
C659   N667    1.366   .     A
C659   H665    1.082   .     S
C659   C1071   1.417   .     S
C660   N668    1.366   .     A
C660   H666    1.082   .     S
N667   Zn677   2.010   .     S
N668   Zn678   2.010   .     S
O669   Zn677   1.989   .     S
O670   Zn678   1.989   .     S
O671   Zn678   1.990   .     S
O672   Zn677   1.990   .     S
O673   Zn677   1.987   .     S
O674   Zn678   1.987   .     S
O675   Zn678   1.996   .     S
O676   Zn677   1.996   .     S
C679   H680    1.086   .     S
C679   C557    1.499   1_655 S
C679   O589    1.221   1_655 S
C682   H683    1.086   .     S
O684   C590    1.221   1_655 S
C685   H686    1.082   .     S
C685   O687    1.221   .     D
C688   O690    1.221   .     D
C688   H689    1.081   .     S
C691   O715    1.281   .     A
C691   O717    1.280   .     A
C691   C702    1.412   .     S
C692   O716    1.281   .     A
C692   C701    1.412   .     S
C692   O718    1.280   .     A
C693   O721    1.283   .     A
C693   O719    1.275   .     A
C693   C695    1.412   .     S
C694   O722    1.283   .     A
C694   C696    1.412   .     S
C694   O720    1.275   .     A
C695   C788    1.357   1_455 S
C695   C817    1.499   1_455 S
C696   C741    1.357   .     S
C696   C774    1.499   .     S
C697   C702    1.406   .     A
C697   C731    1.488   .     S
C698   C701    1.406   .     A
C698   C734    1.488   .     S
C698   C424    1.380   1_565 S
C699   C701    1.394   .     A
C699   H707    1.085   .     S
C699   C421    1.380   1_565 S
C700   C702    1.394   .     A
C700   H708    1.085   .     S
C703   H709    1.082   .     S
C703   N714    1.366   .     A
C704   N713    1.366   .     A
C704   H710    1.082   .     S
C704   C1120   1.417   .     S
C705   N713    1.366   .     A
C705   H711    1.082   .     S
C705   C1117   1.417   .     S
C706   N714    1.366   .     A
C706   H712    1.082   .     S
N713   Zn723   2.010   .     S
N714   Zn724   2.010   .     S
O715   Zn723   1.989   .     S
O716   Zn724   1.989   .     S
O717   Zn724   1.990   .     S
O718   Zn723   1.990   .     S
O719   Zn723   1.987   .     S
O720   Zn724   1.987   .     S
O721   Zn724   1.996   .     S
O722   Zn723   1.996   .     S
C725   H726    1.086   .     S
C725   C741    1.499   .     S
C725   O773    1.221   .     S
O727   C817    1.221   1_455 S
C728   H729    1.086   .     S
C728   C788    1.499   1_455 S
C728   O822    1.221   1_455 S
O730   C774    1.221   .     S
C731   H732    1.082   .     S
C731   O733    1.221   .     D
C734   O736    1.221   .     D
C734   H735    1.081   .     S
C737   O761    1.281   .     A
C737   O763    1.280   .     A
C737   C748    1.412   .     S
C738   O762    1.281   .     A
C738   C747    1.412   .     S
C738   O764    1.280   .     A
C739   O767    1.283   .     A
C739   O765    1.275   .     A
C739   C741    1.412   .     S
C740   O768    1.283   .     A
C740   C742    1.412   .     S
C740   O766    1.275   .     A
C742   C787    1.357   .     S
C742   C820    1.499   .     S
C743   C748    1.406   .     A
C743   C777    1.488   .     S
C744   C747    1.406   .     A
C744   C780    1.488   .     S
C744   C470    1.380   1_565 S
C745   C747    1.394   .     A
C745   H753    1.085   .     S
C745   C467    1.380   1_565 S
C746   C748    1.394   .     A
C746   H754    1.085   .     S
C749   H755    1.082   .     S
C749   N760    1.366   .     A
C750   N759    1.366   .     A
C750   H756    1.082   .     S
C750   C1166   1.417   .     S
C751   N759    1.366   .     A
C751   H757    1.082   .     S
C751   C1163   1.417   .     S
C752   N760    1.366   .     A
C752   H758    1.082   .     S
N759   Zn769   2.010   .     S
N760   Zn770   2.010   .     S
O761   Zn769   1.989   .     S
O762   Zn770   1.989   .     S
O763   Zn770   1.990   .     S
O764   Zn769   1.990   .     S
O765   Zn769   1.987   .     S
O766   Zn770   1.987   .     S
O767   Zn770   1.996   .     S
O768   Zn769   1.996   .     S
C771   H772    1.086   .     S
C771   C787    1.499   .     S
C771   O819    1.221   .     S
C774   H775    1.086   .     S
O776   C820    1.221   .     S
C777   H778    1.082   .     S
C777   O779    1.221   .     D
C780   O782    1.221   .     D
C780   H781    1.081   .     S
C783   O807    1.281   .     A
C783   O809    1.280   .     A
C783   C794    1.412   .     S
C784   O808    1.281   .     A
C784   C793    1.412   .     S
C784   O810    1.280   .     A
C785   O813    1.283   .     A
C785   O811    1.275   .     A
C785   C787    1.412   .     S
C786   O814    1.283   .     A
C786   C788    1.412   .     S
C786   O812    1.275   .     A
C788   C695    1.357   1_655 S
C788   C728    1.499   1_655 S
C789   C794    1.406   .     A
C789   C823    1.488   .     S
C790   C793    1.406   .     A
C790   C826    1.488   .     S
C790   C516    1.380   1_565 S
C791   C793    1.394   .     A
C791   H799    1.085   .     S
C791   C513    1.380   1_565 S
C792   C794    1.394   .     A
C792   H800    1.085   .     S
C795   H801    1.082   .     S
C795   N806    1.366   .     A
C796   N805    1.366   .     A
C796   H802    1.082   .     S
C796   C1212   1.417   .     S
C797   N805    1.366   .     A
C797   H803    1.082   .     S
C797   C1209   1.417   .     S
C798   N806    1.366   .     A
C798   H804    1.082   .     S
N805   Zn815   2.010   .     S
N806   Zn816   2.010   .     S
O807   Zn815   1.989   .     S
O808   Zn816   1.989   .     S
O809   Zn816   1.990   .     S
O810   Zn815   1.990   .     S
O811   Zn815   1.987   .     S
O812   Zn816   1.987   .     S
O813   Zn816   1.996   .     S
O814   Zn815   1.996   .     S
C817   H818    1.086   .     S
C817   C695    1.499   1_655 S
C817   O727    1.221   1_655 S
C820   H821    1.086   .     S
O822   C728    1.221   1_655 S
C823   H824    1.082   .     S
C823   O825    1.221   .     D
C826   O828    1.221   .     D
C826   H827    1.081   .     S
C829   O853    1.281   .     A
C829   O855    1.280   .     A
C829   C840    1.412   .     S
C830   O854    1.281   .     A
C830   C839    1.412   .     S
C830   O856    1.280   .     A
C831   O859    1.283   .     A
C831   O857    1.275   .     A
C831   C833    1.412   .     S
C832   O860    1.283   .     A
C832   C834    1.412   .     S
C832   O858    1.275   .     A
C833   C926    1.357   1_455 S
C833   C955    1.499   1_455 S
C834   C879    1.357   .     S
C834   C912    1.499   .     S
C835   C840    1.406   .     A
C835   C869    1.488   .     S
C835   C1113   1.380   1_545 S
C836   C839    1.406   .     A
C836   C872    1.488   .     S
C836   C976    1.380   .     S
C837   C839    1.394   .     A
C837   H845    1.085   .     S
C837   C973    1.380   .     S
C838   C840    1.394   .     A
C838   H846    1.085   .     S
C838   C1112   1.380   1_545 S
C841   H847    1.082   .     S
C841   N852    1.366   .     A
C842   N851    1.366   .     A
C842   H848    1.082   .     S
C842   C16     1.417   1_556 S
C843   N851    1.366   .     A
C843   H849    1.082   .     S
C843   C13     1.417   1_556 S
C844   N852    1.366   .     A
C844   H850    1.082   .     S
N851   Zn861   2.010   .     S
N852   Zn862   2.010   .     S
O853   Zn861   1.989   .     S
O854   Zn862   1.989   .     S
O855   Zn862   1.990   .     S
O856   Zn861   1.990   .     S
O857   Zn861   1.987   .     S
O858   Zn862   1.987   .     S
O859   Zn862   1.996   .     S
O860   Zn861   1.996   .     S
C863   H864    1.086   .     S
C863   C879    1.499   .     S
C863   O911    1.221   .     S
O865   C955    1.221   1_455 S
C866   H867    1.086   .     S
C866   C926    1.499   1_455 S
C866   O960    1.221   1_455 S
O868   C912    1.221   .     S
C869   H870    1.082   .     S
C869   O871    1.221   .     D
C872   O874    1.221   .     D
C872   H873    1.081   .     S
C875   O899    1.281   .     A
C875   O901    1.280   .     A
C875   C886    1.412   .     S
C876   O900    1.281   .     A
C876   C885    1.412   .     S
C876   O902    1.280   .     A
C877   O905    1.283   .     A
C877   O903    1.275   .     A
C877   C879    1.412   .     S
C878   O906    1.283   .     A
C878   C880    1.412   .     S
C878   O904    1.275   .     A
C880   C925    1.357   .     S
C880   C958    1.499   .     S
C881   C886    1.406   .     A
C881   C915    1.488   .     S
C881   C1159   1.380   1_545 S
C882   C885    1.406   .     A
C882   C918    1.488   .     S
C882   C1022   1.380   .     S
C883   C885    1.394   .     A
C883   H891    1.085   .     S
C883   C1019   1.380   .     S
C884   C886    1.394   .     A
C884   H892    1.085   .     S
C884   C1158   1.380   1_545 S
C887   H893    1.082   .     S
C887   N898    1.366   .     A
C888   N897    1.366   .     A
C888   H894    1.082   .     S
C888   C62     1.417   1_556 S
C889   N897    1.366   .     A
C889   H895    1.082   .     S
C889   C59     1.417   1_556 S
C890   N898    1.366   .     A
C890   H896    1.082   .     S
N897   Zn907   2.010   .     S
N898   Zn908   2.010   .     S
O899   Zn907   1.989   .     S
O900   Zn908   1.989   .     S
O901   Zn908   1.990   .     S
O902   Zn907   1.990   .     S
O903   Zn907   1.987   .     S
O904   Zn908   1.987   .     S
O905   Zn908   1.996   .     S
O906   Zn907   1.996   .     S
C909   H910    1.086   .     S
C909   C925    1.499   .     S
C909   O957    1.221   .     S
C912   H913    1.086   .     S
O914   C958    1.221   .     S
C915   H916    1.082   .     S
C915   O917    1.221   .     D
C918   O920    1.221   .     D
C918   H919    1.081   .     S
C921   O945    1.281   .     A
C921   O947    1.280   .     A
C921   C932    1.412   .     S
C922   O946    1.281   .     A
C922   C931    1.412   .     S
C922   O948    1.280   .     A
C923   O951    1.283   .     A
C923   O949    1.275   .     A
C923   C925    1.412   .     S
C924   O952    1.283   .     A
C924   C926    1.412   .     S
C924   O950    1.275   .     A
C926   C833    1.357   1_655 S
C926   C866    1.499   1_655 S
C927   C932    1.406   .     A
C927   C961    1.488   .     S
C927   C1205   1.380   1_545 S
C928   C931    1.406   .     A
C928   C964    1.488   .     S
C928   C1068   1.380   .     S
C929   C931    1.394   .     A
C929   H937    1.085   .     S
C929   C1065   1.380   .     S
C930   C932    1.394   .     A
C930   H938    1.085   .     S
C930   C1204   1.380   1_545 S
C933   H939    1.082   .     S
C933   N944    1.366   .     A
C934   N943    1.366   .     A
C934   H940    1.082   .     S
C934   C108    1.417   1_556 S
C935   N943    1.366   .     A
C935   H941    1.082   .     S
C935   C105    1.417   1_556 S
C936   N944    1.366   .     A
C936   H942    1.082   .     S
N943   Zn953   2.010   .     S
N944   Zn954   2.010   .     S
O945   Zn953   1.989   .     S
O946   Zn954   1.989   .     S
O947   Zn954   1.990   .     S
O948   Zn953   1.990   .     S
O949   Zn953   1.987   .     S
O950   Zn954   1.987   .     S
O951   Zn954   1.996   .     S
O952   Zn953   1.996   .     S
C955   H956    1.086   .     S
C955   C833    1.499   1_655 S
C955   O865    1.221   1_655 S
C958   H959    1.086   .     S
O960   C866    1.221   1_655 S
C961   H962    1.082   .     S
C961   O963    1.221   .     D
C964   O966    1.221   .     D
C964   H965    1.081   .     S
C967   O991    1.281   .     A
C967   O993    1.280   .     A
C967   C978    1.412   .     S
C968   O992    1.281   .     A
C968   C977    1.412   .     S
C968   O994    1.280   .     A
C969   O997    1.283   .     A
C969   O995    1.275   .     A
C969   C971    1.412   .     S
C970   O998    1.283   .     A
C970   C972    1.412   .     S
C970   O996    1.275   .     A
C971   C1064   1.357   1_455 S
C971   C1093   1.499   1_455 S
C972   C1017   1.357   .     S
C972   C1050   1.499   .     S
C973   C978    1.406   .     A
C973   C1007   1.488   .     S
C974   C977    1.406   .     A
C974   C1010   1.488   .     S
C974   C1114   1.380   .     S
C975   C977    1.394   .     A
C975   H983    1.085   .     S
C975   C1111   1.380   .     S
C976   C978    1.394   .     A
C976   H984    1.085   .     S
C979   H985    1.082   .     S
C979   N990    1.366   .     A
C980   N989    1.366   .     A
C980   H986    1.082   .     S
C980   C154    1.417   1_556 S
C981   N989    1.366   .     A
C981   H987    1.082   .     S
C981   C151    1.417   1_556 S
C982   N990    1.366   .     A
C982   H988    1.082   .     S
N989   Zn999   2.010   .     S
N990   Zn1000  2.010   .     S
O991   Zn999   1.989   .     S
O992   Zn1000  1.989   .     S
O993   Zn1000  1.990   .     S
O994   Zn999   1.990   .     S
O995   Zn999   1.987   .     S
O996   Zn1000  1.987   .     S
O997   Zn1000  1.996   .     S
O998   Zn999   1.996   .     S
C1001  H1002   1.086   .     S
C1001  C1017   1.499   .     S
C1001  O1049   1.221   .     S
O1003  C1093   1.221   1_455 S
C1004  H1005   1.086   .     S
C1004  C1064   1.499   1_455 S
C1004  O1098   1.221   1_455 S
O1006  C1050   1.221   .     S
C1007  H1008   1.082   .     S
C1007  O1009   1.221   .     D
C1010  O1012   1.221   .     D
C1010  H1011   1.081   .     S
C1013  O1037   1.281   .     A
C1013  O1039   1.280   .     A
C1013  C1024   1.412   .     S
C1014  O1038   1.281   .     A
C1014  C1023   1.412   .     S
C1014  O1040   1.280   .     A
C1015  O1043   1.283   .     A
C1015  O1041   1.275   .     A
C1015  C1017   1.412   .     S
C1016  O1044   1.283   .     A
C1016  C1018   1.412   .     S
C1016  O1042   1.275   .     A
C1018  C1063   1.357   .     S
C1018  C1096   1.499   .     S
C1019  C1024   1.406   .     A
C1019  C1053   1.488   .     S
C1020  C1023   1.406   .     A
C1020  C1056   1.488   .     S
C1020  C1160   1.380   .     S
C1021  C1023   1.394   .     A
C1021  H1029   1.085   .     S
C1021  C1157   1.380   .     S
C1022  C1024   1.394   .     A
C1022  H1030   1.085   .     S
C1025  H1031   1.082   .     S
C1025  N1036   1.366   .     A
C1026  N1035   1.366   .     A
C1026  H1032   1.082   .     S
C1026  C200    1.417   1_556 S
C1027  N1035   1.366   .     A
C1027  H1033   1.082   .     S
C1027  C197    1.417   1_556 S
C1028  N1036   1.366   .     A
C1028  H1034   1.082   .     S
N1035  Zn1045  2.010   .     S
N1036  Zn1046  2.010   .     S
O1037  Zn1045  1.989   .     S
O1038  Zn1046  1.989   .     S
O1039  Zn1046  1.990   .     S
O1040  Zn1045  1.990   .     S
O1041  Zn1045  1.987   .     S
O1042  Zn1046  1.987   .     S
O1043  Zn1046  1.996   .     S
O1044  Zn1045  1.996   .     S
C1047  H1048   1.086   .     S
C1047  C1063   1.499   .     S
C1047  O1095   1.221   .     S
C1050  H1051   1.086   .     S
O1052  C1096   1.221   .     S
C1053  H1054   1.082   .     S
C1053  O1055   1.221   .     D
C1056  O1058   1.221   .     D
C1056  H1057   1.081   .     S
C1059  O1083   1.281   .     A
C1059  O1085   1.280   .     A
C1059  C1070   1.412   .     S
C1060  O1084   1.281   .     A
C1060  C1069   1.412   .     S
C1060  O1086   1.280   .     A
C1061  O1089   1.283   .     A
C1061  O1087   1.275   .     A
C1061  C1063   1.412   .     S
C1062  O1090   1.283   .     A
C1062  C1064   1.412   .     S
C1062  O1088   1.275   .     A
C1064  C971    1.357   1_655 S
C1064  C1004   1.499   1_655 S
C1065  C1070   1.406   .     A
C1065  C1099   1.488   .     S
C1066  C1069   1.406   .     A
C1066  C1102   1.488   .     S
C1066  C1206   1.380   .     S
C1067  C1069   1.394   .     A
C1067  H1075   1.085   .     S
C1067  C1203   1.380   .     S
C1068  C1070   1.394   .     A
C1068  H1076   1.085   .     S
C1071  H1077   1.082   .     S
C1071  N1082   1.366   .     A
C1072  N1081   1.366   .     A
C1072  H1078   1.082   .     S
C1072  C246    1.417   1_556 S
C1073  N1081   1.366   .     A
C1073  H1079   1.082   .     S
C1073  C243    1.417   1_556 S
C1074  N1082   1.366   .     A
C1074  H1080   1.082   .     S
N1081  Zn1091  2.010   .     S
N1082  Zn1092  2.010   .     S
O1083  Zn1091  1.989   .     S
O1084  Zn1092  1.989   .     S
O1085  Zn1092  1.990   .     S
O1086  Zn1091  1.990   .     S
O1087  Zn1091  1.987   .     S
O1088  Zn1092  1.987   .     S
O1089  Zn1092  1.996   .     S
O1090  Zn1091  1.996   .     S
C1093  H1094   1.086   .     S
C1093  C971    1.499   1_655 S
C1093  O1003   1.221   1_655 S
C1096  H1097   1.086   .     S
O1098  C1004   1.221   1_655 S
C1099  H1100   1.082   .     S
C1099  O1101   1.221   .     D
C1102  O1104   1.221   .     D
C1102  H1103   1.081   .     S
C1105  O1129   1.281   .     A
C1105  O1131   1.280   .     A
C1105  C1116   1.412   .     S
C1106  O1130   1.281   .     A
C1106  C1115   1.412   .     S
C1106  O1132   1.280   .     A
C1107  O1135   1.283   .     A
C1107  O1133   1.275   .     A
C1107  C1109   1.412   .     S
C1108  O1136   1.283   .     A
C1108  C1110   1.412   .     S
C1108  O1134   1.275   .     A
C1109  C1202   1.357   1_455 S
C1109  C1231   1.499   1_455 S
C1110  C1155   1.357   .     S
C1110  C1188   1.499   .     S
C1111  C1116   1.406   .     A
C1111  C1145   1.488   .     S
C1112  C1115   1.406   .     A
C1112  C1148   1.488   .     S
C1112  C838    1.380   1_565 S
C1113  C1115   1.394   .     A
C1113  H1121   1.085   .     S
C1113  C835    1.380   1_565 S
C1114  C1116   1.394   .     A
C1114  H1122   1.085   .     S
C1117  H1123   1.082   .     S
C1117  N1128   1.366   .     A
C1118  N1127   1.366   .     A
C1118  H1124   1.082   .     S
C1118  C292    1.417   1_556 S
C1119  N1127   1.366   .     A
C1119  H1125   1.082   .     S
C1119  C289    1.417   1_556 S
C1120  N1128   1.366   .     A
C1120  H1126   1.082   .     S
N1127  Zn1137  2.010   .     S
N1128  Zn1138  2.010   .     S
O1129  Zn1137  1.989   .     S
O1130  Zn1138  1.989   .     S
O1131  Zn1138  1.990   .     S
O1132  Zn1137  1.990   .     S
O1133  Zn1137  1.987   .     S
O1134  Zn1138  1.987   .     S
O1135  Zn1138  1.996   .     S
O1136  Zn1137  1.996   .     S
C1139  H1140   1.086   .     S
C1139  C1155   1.499   .     S
C1139  O1187   1.221   .     S
O1141  C1231   1.221   1_455 S
C1142  H1143   1.086   .     S
C1142  C1202   1.499   1_455 S
C1142  O1236   1.221   1_455 S
O1144  C1188   1.221   .     S
C1145  H1146   1.082   .     S
C1145  O1147   1.221   .     D
C1148  O1150   1.221   .     D
C1148  H1149   1.081   .     S
C1151  O1175   1.281   .     A
C1151  O1177   1.280   .     A
C1151  C1162   1.412   .     S
C1152  O1176   1.281   .     A
C1152  C1161   1.412   .     S
C1152  O1178   1.280   .     A
C1153  O1181   1.283   .     A
C1153  O1179   1.275   .     A
C1153  C1155   1.412   .     S
C1154  O1182   1.283   .     A
C1154  C1156   1.412   .     S
C1154  O1180   1.275   .     A
C1156  C1201   1.357   .     S
C1156  C1234   1.499   .     S
C1157  C1162   1.406   .     A
C1157  C1191   1.488   .     S
C1158  C1161   1.406   .     A
C1158  C1194   1.488   .     S
C1158  C884    1.380   1_565 S
C1159  C1161   1.394   .     A
C1159  H1167   1.085   .     S
C1159  C881    1.380   1_565 S
C1160  C1162   1.394   .     A
C1160  H1168   1.085   .     S
C1163  H1169   1.082   .     S
C1163  N1174   1.366   .     A
C1164  N1173   1.366   .     A
C1164  H1170   1.082   .     S
C1164  C338    1.417   1_556 S
C1165  N1173   1.366   .     A
C1165  H1171   1.082   .     S
C1165  C335    1.417   1_556 S
C1166  N1174   1.366   .     A
C1166  H1172   1.082   .     S
N1173  Zn1183  2.010   .     S
N1174  Zn1184  2.010   .     S
O1175  Zn1183  1.989   .     S
O1176  Zn1184  1.989   .     S
O1177  Zn1184  1.990   .     S
O1178  Zn1183  1.990   .     S
O1179  Zn1183  1.987   .     S
O1180  Zn1184  1.987   .     S
O1181  Zn1184  1.996   .     S
O1182  Zn1183  1.996   .     S
C1185  H1186   1.086   .     S
C1185  C1201   1.499   .     S
C1185  O1233   1.221   .     S
C1188  H1189   1.086   .     S
O1190  C1234   1.221   .     S
C1191  H1192   1.082   .     S
C1191  O1193   1.221   .     D
C1194  O1196   1.221   .     D
C1194  H1195   1.081   .     S
C1197  O1221   1.281   .     A
C1197  O1223   1.280   .     A
C1197  C1208   1.412   .     S
C1198  O1222   1.281   .     A
C1198  C1207   1.412   .     S
C1198  O1224   1.280   .     A
C1199  O1227   1.283   .     A
C1199  O1225   1.275   .     A
C1199  C1201   1.412   .     S
C1200  O1228   1.283   .     A
C1200  C1202   1.412   .     S
C1200  O1226   1.275   .     A
C1202  C1109   1.357   1_655 S
C1202  C1142   1.499   1_655 S
C1203  C1208   1.406   .     A
C1203  C1237   1.488   .     S
C1204  C1207   1.406   .     A
C1204  C1240   1.488   .     S
C1204  C930    1.380   1_565 S
C1205  C1207   1.394   .     A
C1205  H1213   1.085   .     S
C1205  C927    1.380   1_565 S
C1206  C1208   1.394   .     A
C1206  H1214   1.085   .     S
C1209  H1215   1.082   .     S
C1209  N1220   1.366   .     A
C1210  N1219   1.366   .     A
C1210  H1216   1.082   .     S
C1210  C384    1.417   1_556 S
C1211  N1219   1.366   .     A
C1211  H1217   1.082   .     S
C1211  C381    1.417   1_556 S
C1212  N1220   1.366   .     A
C1212  H1218   1.082   .     S
N1219  Zn1229  2.010   .     S
N1220  Zn1230  2.010   .     S
O1221  Zn1229  1.989   .     S
O1222  Zn1230  1.989   .     S
O1223  Zn1230  1.990   .     S
O1224  Zn1229  1.990   .     S
O1225  Zn1229  1.987   .     S
O1226  Zn1230  1.987   .     S
O1227  Zn1230  1.996   .     S
O1228  Zn1229  1.996   .     S
C1231  H1232   1.086   .     S
C1231  C1109   1.499   1_655 S
C1231  O1141   1.221   1_655 S
C1234  H1235   1.086   .     S
O1236  C1142   1.221   1_655 S
C1237  H1238   1.082   .     S
C1237  O1239   1.221   .     D
C1240  O1242   1.221   .     D
C1240  H1241   1.081   .     S
