data_str_m2_o1_o1_pcu_sym.6
_audit_creation_date              2020-01-03
_audit_creation_method            'Materials Studio'
_symmetry_space_group_name_H-M    'P1'
_symmetry_Int_Tables_number       1
_symmetry_cell_setting            triclinic
loop_
_symmetry_equiv_pos_as_xyz
  x,y,z
_cell_length_a                    30.5953
_cell_length_b                    30.4611
_cell_length_c                    28.5922
_cell_angle_alpha                 90.0003
_cell_angle_beta                  90.0009
_cell_angle_gamma                 89.9986
loop_
_atom_site_label
_atom_site_type_symbol
_atom_site_fract_x
_atom_site_fract_y
_atom_site_fract_z
_atom_site_U_iso_or_equiv
_atom_site_adp_type
_atom_site_occupancy
Br1    Br    0.46868   0.10717   0.22386   0.00000  Uiso   1.00
Br2    Br    0.28130   0.14286   0.10953   0.00000  Uiso   1.00
Br3    Br    0.39169   0.03106   0.22463   0.00000  Uiso   1.00
Br4    Br    0.10830   0.46896   0.22460   0.00000  Uiso   1.00
Br5    Br    0.28130   0.35715   0.22381   0.00000  Uiso   1.00
Br6    Br    0.10831   0.03105   0.10872   0.00000  Uiso   1.00
Br7    Br    0.21867   0.14282   0.22387   0.00000  Uiso   1.00
Br8    Br    0.39173   0.46899   0.10880   0.00000  Uiso   1.00
Br9    Br    0.03132   0.39283   0.22384   0.00000  Uiso   1.00
Br10   Br    0.14170   0.28104   0.10876   0.00000  Uiso   1.00
Br11   Br    0.35831   0.21894   0.10870   0.00000  Uiso   1.00
Br12   Br    0.14169   0.21894   0.22462   0.00000  Uiso   1.00
Br13   Br    0.46870   0.39286   0.10955   0.00000  Uiso   1.00
Br14   Br    0.35829   0.28103   0.22455   0.00000  Uiso   1.00
Br15   Br    0.03131   0.10716   0.10951   0.00000  Uiso   1.00
Br16   Br    0.21869   0.35714   0.10954   0.00000  Uiso   1.00
C17    C     0.05933   0.19052   0.16667   0.00000  Uiso   1.00
C18    C     0.49990   0.28852   0.30855   0.00000  Uiso   1.00
C19    C     0.00003   0.28852   0.02478   0.00000  Uiso   1.00
C20    C     0.00010   0.21148   0.30855   0.00000  Uiso   1.00
C21    C     0.24977   0.46147   0.02478   0.00000  Uiso   1.00
C22    C     0.25036   0.03853   0.30855   0.00000  Uiso   1.00
C23    C     0.25023   0.03853   0.02478   0.00000  Uiso   1.00
C24    C     0.24964   0.46147   0.30855   0.00000  Uiso   1.00
C25    C     0.41411   0.11792   0.19168   0.00000  Uiso   1.00
C26    C     0.08589   0.38209   0.19167   0.00000  Uiso   1.00
C27    C     0.13172   0.33570   0.14156   0.00000  Uiso   1.00
C28    C     0.44067   0.30948   0.16667   0.00000  Uiso   1.00
C29    C     0.36829   0.16430   0.14155   0.00000  Uiso   1.00
C30    C     0.13171   0.16429   0.19179   0.00000  Uiso   1.00
C31    C     0.41413   0.38210   0.14169   0.00000  Uiso   1.00
C32    C     0.36828   0.33569   0.19176   0.00000  Uiso   1.00
C33    C     0.08588   0.11791   0.14167   0.00000  Uiso   1.00
C34    C     0.16412   0.36791   0.14168   0.00000  Uiso   1.00
C35    C     0.33588   0.13209   0.14167   0.00000  Uiso   1.00
C36    C     0.38171   0.08571   0.19179   0.00000  Uiso   1.00
C37    C     0.11829   0.41430   0.19178   0.00000  Uiso   1.00
C38    C     0.33588   0.36791   0.19165   0.00000  Uiso   1.00
C39    C     0.44067   0.19052   0.16666   0.00000  Uiso   1.00
C40    C     0.11829   0.08570   0.14155   0.00000  Uiso   1.00
C41    C     0.16411   0.13208   0.19168   0.00000  Uiso   1.00
C42    C     0.38173   0.41431   0.14158   0.00000  Uiso   1.00
C43    C     0.09280   0.34293   0.16662   0.00000  Uiso   1.00
C44    C     0.40720   0.15707   0.16662   0.00000  Uiso   1.00
C45    C     0.40720   0.34293   0.16671   0.00000  Uiso   1.00
C46    C     0.09280   0.15707   0.16672   0.00000  Uiso   1.00
C47    C     0.34279   0.09293   0.16672   0.00000  Uiso   1.00
C48    C     0.15720   0.40707   0.16671   0.00000  Uiso   1.00
C49    C     0.15720   0.09293   0.16662   0.00000  Uiso   1.00
C50    C     0.05933   0.30948   0.16666   0.00000  Uiso   1.00
C51    C     0.34280   0.40707   0.16662   0.00000  Uiso   1.00
C52    C     0.30933   0.44052   0.16666   0.00000  Uiso   1.00
C53    C     0.19067   0.05948   0.16666   0.00000  Uiso   1.00
C54    C     0.19067   0.44052   0.16667   0.00000  Uiso   1.00
C55    C     0.30933   0.05948   0.16668   0.00000  Uiso   1.00
C56    C     0.49997   0.21148   0.02478   0.00000  Uiso   1.00
Cu57   Cu   -0.00000   0.25000   0.21355   0.00000  Uiso   1.00
Cu58   Cu   -0.00000   0.25000   0.11978   0.00000  Uiso   1.00
Cu59   Cu    0.25000   0.00000   0.21355   0.00000  Uiso   1.00
Cu60   Cu    0.25000   0.00000   0.11978   0.00000  Uiso   1.00
H61    H     0.49985   0.18061   0.04339   0.00000  Uiso   1.00
H62    H     0.49972   0.31939   0.28994   0.00000  Uiso   1.00
H63    H     0.00015   0.31939   0.04340   0.00000  Uiso   1.00
H64    H     0.00028   0.18061   0.28994   0.00000  Uiso   1.00
H65    H     0.24969   0.43060   0.04339   0.00000  Uiso   1.00
H66    H     0.25074   0.06940   0.28994   0.00000  Uiso   1.00
H67    H     0.25031   0.06940   0.04339   0.00000  Uiso   1.00
H68    H     0.24926   0.43060   0.28994   0.00000  Uiso   1.00
N69    N     0.00000   0.25000   0.28402   0.00000  Uiso   1.00
N70    N     0.00000   0.25000   0.04931   0.00000  Uiso   1.00
N71    N     0.25000   0.00000   0.28402   0.00000  Uiso   1.00
N72    N     0.25000   0.00000   0.04931   0.00000  Uiso   1.00
O73    O     0.04508   0.20491   0.20625   0.00000  Uiso   1.00
O74    O     0.20491   0.04509   0.12709   0.00000  Uiso   1.00
O75    O     0.20491   0.04509   0.20625   0.00000  Uiso   1.00
O76    O     0.29508   0.45491   0.12709   0.00000  Uiso   1.00
O77    O     0.20491   0.45491   0.12709   0.00000  Uiso   1.00
O78    O     0.29508   0.04509   0.20625   0.00000  Uiso   1.00
O79    O     0.29508   0.04509   0.12709   0.00000  Uiso   1.00
O80    O     0.20491   0.45491   0.20625   0.00000  Uiso   1.00
O81    O     0.45491   0.29509   0.12709   0.00000  Uiso   1.00
O82    O     0.45491   0.29509   0.20625   0.00000  Uiso   1.00
O83    O     0.04508   0.20491   0.12709   0.00000  Uiso   1.00
O84    O     0.45491   0.20491   0.12709   0.00000  Uiso   1.00
O85    O     0.04508   0.29509   0.20625   0.00000  Uiso   1.00
O86    O     0.04508   0.29509   0.12709   0.00000  Uiso   1.00
O87    O     0.45491   0.20491   0.20625   0.00000  Uiso   1.00
O88    O     0.29508   0.45491   0.20625   0.00000  Uiso   1.00
Br89   Br    0.96868   0.10717   0.22386   0.00000  Uiso   1.00
Br90   Br    0.78130   0.14286   0.10953   0.00000  Uiso   1.00
Br91   Br    0.89169   0.03106   0.22463   0.00000  Uiso   1.00
Br92   Br    0.60830   0.46896   0.22460   0.00000  Uiso   1.00
Br93   Br    0.78130   0.35715   0.22381   0.00000  Uiso   1.00
Br94   Br    0.60831   0.03105   0.10872   0.00000  Uiso   1.00
Br95   Br    0.71867   0.14282   0.22387   0.00000  Uiso   1.00
Br96   Br    0.89173   0.46899   0.10880   0.00000  Uiso   1.00
Br97   Br    0.53132   0.39283   0.22384   0.00000  Uiso   1.00
Br98   Br    0.64170   0.28104   0.10876   0.00000  Uiso   1.00
Br99   Br    0.85831   0.21894   0.10870   0.00000  Uiso   1.00
Br100  Br    0.64169   0.21894   0.22462   0.00000  Uiso   1.00
Br101  Br    0.96870   0.39286   0.10955   0.00000  Uiso   1.00
Br102  Br    0.85829   0.28103   0.22455   0.00000  Uiso   1.00
Br103  Br    0.53131   0.10716   0.10951   0.00000  Uiso   1.00
Br104  Br    0.71869   0.35714   0.10954   0.00000  Uiso   1.00
C105   C     0.55933   0.19052   0.16667   0.00000  Uiso   1.00
C106   C     0.99990   0.28852   0.30855   0.00000  Uiso   1.00
C107   C     0.50003   0.28852   0.02478   0.00000  Uiso   1.00
C108   C     0.50010   0.21148   0.30855   0.00000  Uiso   1.00
C109   C     0.74977   0.46147   0.02478   0.00000  Uiso   1.00
C110   C     0.75036   0.03853   0.30855   0.00000  Uiso   1.00
C111   C     0.75023   0.03853   0.02478   0.00000  Uiso   1.00
C112   C     0.74964   0.46147   0.30855   0.00000  Uiso   1.00
C113   C     0.91411   0.11792   0.19168   0.00000  Uiso   1.00
C114   C     0.58589   0.38209   0.19167   0.00000  Uiso   1.00
C115   C     0.63172   0.33570   0.14156   0.00000  Uiso   1.00
C116   C     0.94067   0.30948   0.16667   0.00000  Uiso   1.00
C117   C     0.86829   0.16430   0.14155   0.00000  Uiso   1.00
C118   C     0.63171   0.16429   0.19179   0.00000  Uiso   1.00
C119   C     0.91413   0.38210   0.14169   0.00000  Uiso   1.00
C120   C     0.86828   0.33569   0.19176   0.00000  Uiso   1.00
C121   C     0.58588   0.11791   0.14167   0.00000  Uiso   1.00
C122   C     0.66412   0.36791   0.14168   0.00000  Uiso   1.00
C123   C     0.83588   0.13209   0.14167   0.00000  Uiso   1.00
C124   C     0.88171   0.08571   0.19179   0.00000  Uiso   1.00
C125   C     0.61829   0.41430   0.19178   0.00000  Uiso   1.00
C126   C     0.83588   0.36791   0.19165   0.00000  Uiso   1.00
C127   C     0.94067   0.19052   0.16666   0.00000  Uiso   1.00
C128   C     0.61829   0.08570   0.14155   0.00000  Uiso   1.00
C129   C     0.66411   0.13208   0.19168   0.00000  Uiso   1.00
C130   C     0.88173   0.41431   0.14158   0.00000  Uiso   1.00
C131   C     0.59280   0.34293   0.16662   0.00000  Uiso   1.00
C132   C     0.90720   0.15707   0.16662   0.00000  Uiso   1.00
C133   C     0.90720   0.34293   0.16671   0.00000  Uiso   1.00
C134   C     0.59280   0.15707   0.16672   0.00000  Uiso   1.00
C135   C     0.84279   0.09293   0.16672   0.00000  Uiso   1.00
C136   C     0.65720   0.40707   0.16671   0.00000  Uiso   1.00
C137   C     0.65720   0.09293   0.16662   0.00000  Uiso   1.00
C138   C     0.55933   0.30948   0.16666   0.00000  Uiso   1.00
C139   C     0.84280   0.40707   0.16662   0.00000  Uiso   1.00
C140   C     0.80933   0.44052   0.16666   0.00000  Uiso   1.00
C141   C     0.69067   0.05948   0.16666   0.00000  Uiso   1.00
C142   C     0.69067   0.44052   0.16667   0.00000  Uiso   1.00
C143   C     0.80933   0.05948   0.16668   0.00000  Uiso   1.00
C144   C     0.99997   0.21148   0.02478   0.00000  Uiso   1.00
Cu145  Cu    0.50000   0.25000   0.21355   0.00000  Uiso   1.00
Cu146  Cu    0.50000   0.25000   0.11978   0.00000  Uiso   1.00
Cu147  Cu    0.75000   0.00000   0.21355   0.00000  Uiso   1.00
Cu148  Cu    0.75000   0.00000   0.11978   0.00000  Uiso   1.00
H149   H     0.99985   0.18061   0.04339   0.00000  Uiso   1.00
H150   H     0.99972   0.31939   0.28994   0.00000  Uiso   1.00
H151   H     0.50015   0.31939   0.04340   0.00000  Uiso   1.00
H152   H     0.50028   0.18061   0.28994   0.00000  Uiso   1.00
H153   H     0.74969   0.43060   0.04339   0.00000  Uiso   1.00
H154   H     0.75074   0.06940   0.28994   0.00000  Uiso   1.00
H155   H     0.75031   0.06940   0.04339   0.00000  Uiso   1.00
H156   H     0.74926   0.43060   0.28994   0.00000  Uiso   1.00
N157   N     0.50000   0.25000   0.28402   0.00000  Uiso   1.00
N158   N     0.50000   0.25000   0.04931   0.00000  Uiso   1.00
N159   N     0.75000   0.00000   0.28402   0.00000  Uiso   1.00
N160   N     0.75000   0.00000   0.04931   0.00000  Uiso   1.00
O161   O     0.54508   0.20491   0.20625   0.00000  Uiso   1.00
O162   O     0.70491   0.04509   0.12709   0.00000  Uiso   1.00
O163   O     0.70491   0.04509   0.20625   0.00000  Uiso   1.00
O164   O     0.79508   0.45491   0.12709   0.00000  Uiso   1.00
O165   O     0.70491   0.45491   0.12709   0.00000  Uiso   1.00
O166   O     0.79508   0.04509   0.20625   0.00000  Uiso   1.00
O167   O     0.79508   0.04509   0.12709   0.00000  Uiso   1.00
O168   O     0.70491   0.45491   0.20625   0.00000  Uiso   1.00
O169   O     0.95491   0.29509   0.12709   0.00000  Uiso   1.00
O170   O     0.95491   0.29509   0.20625   0.00000  Uiso   1.00
O171   O     0.54508   0.20491   0.12709   0.00000  Uiso   1.00
O172   O     0.95491   0.20491   0.12709   0.00000  Uiso   1.00
O173   O     0.54508   0.29509   0.20625   0.00000  Uiso   1.00
O174   O     0.54508   0.29509   0.12709   0.00000  Uiso   1.00
O175   O     0.95491   0.20491   0.20625   0.00000  Uiso   1.00
O176   O     0.79508   0.45491   0.20625   0.00000  Uiso   1.00
Br177  Br    0.46868   0.60717   0.22386   0.00000  Uiso   1.00
Br178  Br    0.28130   0.64286   0.10953   0.00000  Uiso   1.00
Br179  Br    0.39169   0.53106   0.22463   0.00000  Uiso   1.00
Br180  Br    0.10830   0.96896   0.22460   0.00000  Uiso   1.00
Br181  Br    0.28130   0.85715   0.22381   0.00000  Uiso   1.00
Br182  Br    0.10831   0.53105   0.10872   0.00000  Uiso   1.00
Br183  Br    0.21867   0.64282   0.22387   0.00000  Uiso   1.00
Br184  Br    0.39173   0.96899   0.10880   0.00000  Uiso   1.00
Br185  Br    0.03132   0.89283   0.22384   0.00000  Uiso   1.00
Br186  Br    0.14170   0.78104   0.10876   0.00000  Uiso   1.00
Br187  Br    0.35831   0.71894   0.10870   0.00000  Uiso   1.00
Br188  Br    0.14169   0.71894   0.22462   0.00000  Uiso   1.00
Br189  Br    0.46870   0.89286   0.10955   0.00000  Uiso   1.00
Br190  Br    0.35829   0.78103   0.22455   0.00000  Uiso   1.00
Br191  Br    0.03131   0.60716   0.10951   0.00000  Uiso   1.00
Br192  Br    0.21869   0.85714   0.10954   0.00000  Uiso   1.00
C193   C     0.05933   0.69052   0.16667   0.00000  Uiso   1.00
C194   C     0.49990   0.78852   0.30855   0.00000  Uiso   1.00
C195   C     0.00003   0.78852   0.02478   0.00000  Uiso   1.00
C196   C     0.00010   0.71148   0.30855   0.00000  Uiso   1.00
C197   C     0.24977   0.96147   0.02478   0.00000  Uiso   1.00
C198   C     0.25036   0.53853   0.30855   0.00000  Uiso   1.00
C199   C     0.25023   0.53853   0.02478   0.00000  Uiso   1.00
C200   C     0.24964   0.96147   0.30855   0.00000  Uiso   1.00
C201   C     0.41411   0.61792   0.19168   0.00000  Uiso   1.00
C202   C     0.08589   0.88209   0.19167   0.00000  Uiso   1.00
C203   C     0.13172   0.83570   0.14156   0.00000  Uiso   1.00
C204   C     0.44067   0.80948   0.16667   0.00000  Uiso   1.00
C205   C     0.36829   0.66430   0.14155   0.00000  Uiso   1.00
C206   C     0.13171   0.66429   0.19179   0.00000  Uiso   1.00
C207   C     0.41413   0.88210   0.14169   0.00000  Uiso   1.00
C208   C     0.36828   0.83569   0.19176   0.00000  Uiso   1.00
C209   C     0.08588   0.61791   0.14167   0.00000  Uiso   1.00
C210   C     0.16412   0.86791   0.14168   0.00000  Uiso   1.00
C211   C     0.33588   0.63209   0.14167   0.00000  Uiso   1.00
C212   C     0.38171   0.58571   0.19179   0.00000  Uiso   1.00
C213   C     0.11829   0.91430   0.19178   0.00000  Uiso   1.00
C214   C     0.33588   0.86791   0.19165   0.00000  Uiso   1.00
C215   C     0.44067   0.69052   0.16666   0.00000  Uiso   1.00
C216   C     0.11829   0.58570   0.14155   0.00000  Uiso   1.00
C217   C     0.16411   0.63208   0.19168   0.00000  Uiso   1.00
C218   C     0.38173   0.91431   0.14158   0.00000  Uiso   1.00
C219   C     0.09280   0.84293   0.16662   0.00000  Uiso   1.00
C220   C     0.40720   0.65707   0.16662   0.00000  Uiso   1.00
C221   C     0.40720   0.84293   0.16671   0.00000  Uiso   1.00
C222   C     0.09280   0.65707   0.16672   0.00000  Uiso   1.00
C223   C     0.34279   0.59293   0.16672   0.00000  Uiso   1.00
C224   C     0.15720   0.90707   0.16671   0.00000  Uiso   1.00
C225   C     0.15720   0.59293   0.16662   0.00000  Uiso   1.00
C226   C     0.05933   0.80948   0.16666   0.00000  Uiso   1.00
C227   C     0.34280   0.90707   0.16662   0.00000  Uiso   1.00
C228   C     0.30933   0.94052   0.16666   0.00000  Uiso   1.00
C229   C     0.19067   0.55948   0.16666   0.00000  Uiso   1.00
C230   C     0.19067   0.94052   0.16667   0.00000  Uiso   1.00
C231   C     0.30933   0.55948   0.16668   0.00000  Uiso   1.00
C232   C     0.49997   0.71148   0.02478   0.00000  Uiso   1.00
Cu233  Cu   -0.00000   0.75000   0.21355   0.00000  Uiso   1.00
Cu234  Cu   -0.00000   0.75000   0.11978   0.00000  Uiso   1.00
Cu235  Cu    0.25000   0.50000   0.21355   0.00000  Uiso   1.00
Cu236  Cu    0.25000   0.50000   0.11978   0.00000  Uiso   1.00
H237   H     0.49985   0.68061   0.04339   0.00000  Uiso   1.00
H238   H     0.49972   0.81939   0.28994   0.00000  Uiso   1.00
H239   H     0.00015   0.81939   0.04340   0.00000  Uiso   1.00
H240   H     0.00028   0.68061   0.28994   0.00000  Uiso   1.00
H241   H     0.24969   0.93060   0.04339   0.00000  Uiso   1.00
H242   H     0.25074   0.56940   0.28994   0.00000  Uiso   1.00
H243   H     0.25031   0.56940   0.04339   0.00000  Uiso   1.00
H244   H     0.24926   0.93060   0.28994   0.00000  Uiso   1.00
N245   N     0.00000   0.75000   0.28402   0.00000  Uiso   1.00
N246   N     0.00000   0.75000   0.04931   0.00000  Uiso   1.00
N247   N     0.25000   0.50000   0.28402   0.00000  Uiso   1.00
N248   N     0.25000   0.50000   0.04931   0.00000  Uiso   1.00
O249   O     0.04508   0.70491   0.20625   0.00000  Uiso   1.00
O250   O     0.20491   0.54509   0.12709   0.00000  Uiso   1.00
O251   O     0.20491   0.54509   0.20625   0.00000  Uiso   1.00
O252   O     0.29508   0.95491   0.12709   0.00000  Uiso   1.00
O253   O     0.20491   0.95491   0.12709   0.00000  Uiso   1.00
O254   O     0.29508   0.54509   0.20625   0.00000  Uiso   1.00
O255   O     0.29508   0.54509   0.12709   0.00000  Uiso   1.00
O256   O     0.20491   0.95491   0.20625   0.00000  Uiso   1.00
O257   O     0.45491   0.79509   0.12709   0.00000  Uiso   1.00
O258   O     0.45491   0.79509   0.20625   0.00000  Uiso   1.00
O259   O     0.04508   0.70491   0.12709   0.00000  Uiso   1.00
O260   O     0.45491   0.70491   0.12709   0.00000  Uiso   1.00
O261   O     0.04508   0.79509   0.20625   0.00000  Uiso   1.00
O262   O     0.04508   0.79509   0.12709   0.00000  Uiso   1.00
O263   O     0.45491   0.70491   0.20625   0.00000  Uiso   1.00
O264   O     0.29508   0.95491   0.20625   0.00000  Uiso   1.00
Br265  Br    0.96868   0.60717   0.22386   0.00000  Uiso   1.00
Br266  Br    0.78130   0.64286   0.10953   0.00000  Uiso   1.00
Br267  Br    0.89169   0.53106   0.22463   0.00000  Uiso   1.00
Br268  Br    0.60830   0.96896   0.22460   0.00000  Uiso   1.00
Br269  Br    0.78130   0.85715   0.22381   0.00000  Uiso   1.00
Br270  Br    0.60831   0.53105   0.10872   0.00000  Uiso   1.00
Br271  Br    0.71867   0.64282   0.22387   0.00000  Uiso   1.00
Br272  Br    0.89173   0.96899   0.10880   0.00000  Uiso   1.00
Br273  Br    0.53132   0.89283   0.22384   0.00000  Uiso   1.00
Br274  Br    0.64170   0.78104   0.10876   0.00000  Uiso   1.00
Br275  Br    0.85831   0.71894   0.10870   0.00000  Uiso   1.00
Br276  Br    0.64169   0.71894   0.22462   0.00000  Uiso   1.00
Br277  Br    0.96870   0.89286   0.10955   0.00000  Uiso   1.00
Br278  Br    0.85829   0.78103   0.22455   0.00000  Uiso   1.00
Br279  Br    0.53131   0.60716   0.10951   0.00000  Uiso   1.00
Br280  Br    0.71869   0.85714   0.10954   0.00000  Uiso   1.00
C281   C     0.55933   0.69052   0.16667   0.00000  Uiso   1.00
C282   C     0.99990   0.78852   0.30855   0.00000  Uiso   1.00
C283   C     0.50003   0.78852   0.02478   0.00000  Uiso   1.00
C284   C     0.50010   0.71148   0.30855   0.00000  Uiso   1.00
C285   C     0.74977   0.96147   0.02478   0.00000  Uiso   1.00
C286   C     0.75036   0.53853   0.30855   0.00000  Uiso   1.00
C287   C     0.75023   0.53853   0.02478   0.00000  Uiso   1.00
C288   C     0.74964   0.96147   0.30855   0.00000  Uiso   1.00
C289   C     0.91411   0.61792   0.19168   0.00000  Uiso   1.00
C290   C     0.58589   0.88209   0.19167   0.00000  Uiso   1.00
C291   C     0.63172   0.83570   0.14156   0.00000  Uiso   1.00
C292   C     0.94067   0.80948   0.16667   0.00000  Uiso   1.00
C293   C     0.86829   0.66430   0.14155   0.00000  Uiso   1.00
C294   C     0.63171   0.66429   0.19179   0.00000  Uiso   1.00
C295   C     0.91413   0.88210   0.14169   0.00000  Uiso   1.00
C296   C     0.86828   0.83569   0.19176   0.00000  Uiso   1.00
C297   C     0.58588   0.61791   0.14167   0.00000  Uiso   1.00
C298   C     0.66412   0.86791   0.14168   0.00000  Uiso   1.00
C299   C     0.83588   0.63209   0.14167   0.00000  Uiso   1.00
C300   C     0.88171   0.58571   0.19179   0.00000  Uiso   1.00
C301   C     0.61829   0.91430   0.19178   0.00000  Uiso   1.00
C302   C     0.83588   0.86791   0.19165   0.00000  Uiso   1.00
C303   C     0.94067   0.69052   0.16666   0.00000  Uiso   1.00
C304   C     0.61829   0.58570   0.14155   0.00000  Uiso   1.00
C305   C     0.66411   0.63208   0.19168   0.00000  Uiso   1.00
C306   C     0.88173   0.91431   0.14158   0.00000  Uiso   1.00
C307   C     0.59280   0.84293   0.16662   0.00000  Uiso   1.00
C308   C     0.90720   0.65707   0.16662   0.00000  Uiso   1.00
C309   C     0.90720   0.84293   0.16671   0.00000  Uiso   1.00
C310   C     0.59280   0.65707   0.16672   0.00000  Uiso   1.00
C311   C     0.84279   0.59293   0.16672   0.00000  Uiso   1.00
C312   C     0.65720   0.90707   0.16671   0.00000  Uiso   1.00
C313   C     0.65720   0.59293   0.16662   0.00000  Uiso   1.00
C314   C     0.55933   0.80948   0.16666   0.00000  Uiso   1.00
C315   C     0.84280   0.90707   0.16662   0.00000  Uiso   1.00
C316   C     0.80933   0.94052   0.16666   0.00000  Uiso   1.00
C317   C     0.69067   0.55948   0.16666   0.00000  Uiso   1.00
C318   C     0.69067   0.94052   0.16667   0.00000  Uiso   1.00
C319   C     0.80933   0.55948   0.16668   0.00000  Uiso   1.00
C320   C     0.99997   0.71148   0.02478   0.00000  Uiso   1.00
Cu321  Cu    0.50000   0.75000   0.21355   0.00000  Uiso   1.00
Cu322  Cu    0.50000   0.75000   0.11978   0.00000  Uiso   1.00
Cu323  Cu    0.75000   0.50000   0.21355   0.00000  Uiso   1.00
Cu324  Cu    0.75000   0.50000   0.11978   0.00000  Uiso   1.00
H325   H     0.99985   0.68061   0.04339   0.00000  Uiso   1.00
H326   H     0.99972   0.81939   0.28994   0.00000  Uiso   1.00
H327   H     0.50015   0.81939   0.04340   0.00000  Uiso   1.00
H328   H     0.50028   0.68061   0.28994   0.00000  Uiso   1.00
H329   H     0.74969   0.93060   0.04339   0.00000  Uiso   1.00
H330   H     0.75074   0.56940   0.28994   0.00000  Uiso   1.00
H331   H     0.75031   0.56940   0.04339   0.00000  Uiso   1.00
H332   H     0.74926   0.93060   0.28994   0.00000  Uiso   1.00
N333   N     0.50000   0.75000   0.28402   0.00000  Uiso   1.00
N334   N     0.50000   0.75000   0.04931   0.00000  Uiso   1.00
N335   N     0.75000   0.50000   0.28402   0.00000  Uiso   1.00
N336   N     0.75000   0.50000   0.04931   0.00000  Uiso   1.00
O337   O     0.54508   0.70491   0.20625   0.00000  Uiso   1.00
O338   O     0.70491   0.54509   0.12709   0.00000  Uiso   1.00
O339   O     0.70491   0.54509   0.20625   0.00000  Uiso   1.00
O340   O     0.79508   0.95491   0.12709   0.00000  Uiso   1.00
O341   O     0.70491   0.95491   0.12709   0.00000  Uiso   1.00
O342   O     0.79508   0.54509   0.20625   0.00000  Uiso   1.00
O343   O     0.79508   0.54509   0.12709   0.00000  Uiso   1.00
O344   O     0.70491   0.95491   0.20625   0.00000  Uiso   1.00
O345   O     0.95491   0.79509   0.12709   0.00000  Uiso   1.00
O346   O     0.95491   0.79509   0.20625   0.00000  Uiso   1.00
O347   O     0.54508   0.70491   0.12709   0.00000  Uiso   1.00
O348   O     0.95491   0.70491   0.12709   0.00000  Uiso   1.00
O349   O     0.54508   0.79509   0.20625   0.00000  Uiso   1.00
O350   O     0.54508   0.79509   0.12709   0.00000  Uiso   1.00
O351   O     0.95491   0.70491   0.20625   0.00000  Uiso   1.00
O352   O     0.79508   0.95491   0.20625   0.00000  Uiso   1.00
Br353  Br    0.46868   0.10717   0.55719   0.00000  Uiso   1.00
Br354  Br    0.28130   0.14286   0.44286   0.00000  Uiso   1.00
Br355  Br    0.39169   0.03106   0.55797   0.00000  Uiso   1.00
Br356  Br    0.10830   0.46896   0.55793   0.00000  Uiso   1.00
Br357  Br    0.28130   0.35715   0.55714   0.00000  Uiso   1.00
Br358  Br    0.10831   0.03105   0.44206   0.00000  Uiso   1.00
Br359  Br    0.21867   0.14282   0.55720   0.00000  Uiso   1.00
Br360  Br    0.39173   0.46899   0.44214   0.00000  Uiso   1.00
Br361  Br    0.03132   0.39283   0.55718   0.00000  Uiso   1.00
Br362  Br    0.14170   0.28104   0.44209   0.00000  Uiso   1.00
Br363  Br    0.35831   0.21894   0.44204   0.00000  Uiso   1.00
Br364  Br    0.14169   0.21894   0.55795   0.00000  Uiso   1.00
Br365  Br    0.46870   0.39286   0.44288   0.00000  Uiso   1.00
Br366  Br    0.35829   0.28103   0.55788   0.00000  Uiso   1.00
Br367  Br    0.03131   0.10716   0.44284   0.00000  Uiso   1.00
Br368  Br    0.21869   0.35714   0.44287   0.00000  Uiso   1.00
C369   C     0.05933   0.19052   0.50001   0.00000  Uiso   1.00
C370   C     0.49990   0.28852   0.64189   0.00000  Uiso   1.00
C371   C     0.00003   0.28852   0.35812   0.00000  Uiso   1.00
C372   C     0.00010   0.21148   0.64188   0.00000  Uiso   1.00
C373   C     0.24977   0.46147   0.35811   0.00000  Uiso   1.00
C374   C     0.25036   0.03853   0.64188   0.00000  Uiso   1.00
C375   C     0.25023   0.03853   0.35811   0.00000  Uiso   1.00
C376   C     0.24964   0.46147   0.64188   0.00000  Uiso   1.00
C377   C     0.41411   0.11792   0.52501   0.00000  Uiso   1.00
C378   C     0.08589   0.38209   0.52500   0.00000  Uiso   1.00
C379   C     0.13172   0.33570   0.47490   0.00000  Uiso   1.00
C380   C     0.44067   0.30948   0.50001   0.00000  Uiso   1.00
C381   C     0.36829   0.16430   0.47488   0.00000  Uiso   1.00
C382   C     0.13171   0.16429   0.52512   0.00000  Uiso   1.00
C383   C     0.41413   0.38210   0.47503   0.00000  Uiso   1.00
C384   C     0.36828   0.33569   0.52509   0.00000  Uiso   1.00
C385   C     0.08588   0.11791   0.47500   0.00000  Uiso   1.00
C386   C     0.16412   0.36791   0.47501   0.00000  Uiso   1.00
C387   C     0.33588   0.13209   0.47501   0.00000  Uiso   1.00
C388   C     0.38171   0.08571   0.52513   0.00000  Uiso   1.00
C389   C     0.11829   0.41430   0.52511   0.00000  Uiso   1.00
C390   C     0.33588   0.36791   0.52498   0.00000  Uiso   1.00
C391   C     0.44067   0.19052   0.49999   0.00000  Uiso   1.00
C392   C     0.11829   0.08570   0.47488   0.00000  Uiso   1.00
C393   C     0.16411   0.13208   0.52501   0.00000  Uiso   1.00
C394   C     0.38173   0.41431   0.47492   0.00000  Uiso   1.00
C395   C     0.09280   0.34293   0.49996   0.00000  Uiso   1.00
C396   C     0.40720   0.15707   0.49995   0.00000  Uiso   1.00
C397   C     0.40720   0.34293   0.50005   0.00000  Uiso   1.00
C398   C     0.09280   0.15707   0.50005   0.00000  Uiso   1.00
C399   C     0.34279   0.09293   0.50005   0.00000  Uiso   1.00
C400   C     0.15720   0.40707   0.50005   0.00000  Uiso   1.00
C401   C     0.15720   0.09293   0.49996   0.00000  Uiso   1.00
C402   C     0.05933   0.30948   0.49999   0.00000  Uiso   1.00
C403   C     0.34280   0.40707   0.49996   0.00000  Uiso   1.00
C404   C     0.30933   0.44052   0.49999   0.00000  Uiso   1.00
C405   C     0.19067   0.05948   0.49999   0.00000  Uiso   1.00
C406   C     0.19067   0.44052   0.50001   0.00000  Uiso   1.00
C407   C     0.30933   0.05948   0.50001   0.00000  Uiso   1.00
C408   C     0.49997   0.21148   0.35811   0.00000  Uiso   1.00
Cu409  Cu   -0.00000   0.25000   0.54689   0.00000  Uiso   1.00
Cu410  Cu   -0.00000   0.25000   0.45311   0.00000  Uiso   1.00
Cu411  Cu    0.25000   0.00000   0.54689   0.00000  Uiso   1.00
Cu412  Cu    0.25000   0.00000   0.45311   0.00000  Uiso   1.00
H413   H     0.49985   0.18061   0.37673   0.00000  Uiso   1.00
H414   H     0.49972   0.31939   0.62327   0.00000  Uiso   1.00
H415   H     0.00015   0.31939   0.37673   0.00000  Uiso   1.00
H416   H     0.00028   0.18061   0.62327   0.00000  Uiso   1.00
H417   H     0.24969   0.43060   0.37673   0.00000  Uiso   1.00
H418   H     0.25074   0.06940   0.62327   0.00000  Uiso   1.00
H419   H     0.25031   0.06940   0.37673   0.00000  Uiso   1.00
H420   H     0.24926   0.43060   0.62327   0.00000  Uiso   1.00
N421   N     0.00000   0.25000   0.61736   0.00000  Uiso   1.00
N422   N     0.00000   0.25000   0.38264   0.00000  Uiso   1.00
N423   N     0.25000   0.00000   0.61736   0.00000  Uiso   1.00
N424   N     0.25000   0.00000   0.38264   0.00000  Uiso   1.00
O425   O     0.04508   0.20491   0.53958   0.00000  Uiso   1.00
O426   O     0.20491   0.04509   0.46042   0.00000  Uiso   1.00
O427   O     0.20491   0.04509   0.53958   0.00000  Uiso   1.00
O428   O     0.29508   0.45491   0.46042   0.00000  Uiso   1.00
O429   O     0.20491   0.45491   0.46042   0.00000  Uiso   1.00
O430   O     0.29508   0.04509   0.53958   0.00000  Uiso   1.00
O431   O     0.29508   0.04509   0.46042   0.00000  Uiso   1.00
O432   O     0.20491   0.45491   0.53958   0.00000  Uiso   1.00
O433   O     0.45491   0.29509   0.46042   0.00000  Uiso   1.00
O434   O     0.45491   0.29509   0.53958   0.00000  Uiso   1.00
O435   O     0.04508   0.20491   0.46042   0.00000  Uiso   1.00
O436   O     0.45491   0.20491   0.46042   0.00000  Uiso   1.00
O437   O     0.04508   0.29509   0.53958   0.00000  Uiso   1.00
O438   O     0.04508   0.29509   0.46042   0.00000  Uiso   1.00
O439   O     0.45491   0.20491   0.53958   0.00000  Uiso   1.00
O440   O     0.29508   0.45491   0.53958   0.00000  Uiso   1.00
Br441  Br    0.96868   0.10717   0.55719   0.00000  Uiso   1.00
Br442  Br    0.78130   0.14286   0.44286   0.00000  Uiso   1.00
Br443  Br    0.89169   0.03106   0.55797   0.00000  Uiso   1.00
Br444  Br    0.60830   0.46896   0.55793   0.00000  Uiso   1.00
Br445  Br    0.78130   0.35715   0.55714   0.00000  Uiso   1.00
Br446  Br    0.60831   0.03105   0.44206   0.00000  Uiso   1.00
Br447  Br    0.71867   0.14282   0.55720   0.00000  Uiso   1.00
Br448  Br    0.89173   0.46899   0.44214   0.00000  Uiso   1.00
Br449  Br    0.53132   0.39283   0.55718   0.00000  Uiso   1.00
Br450  Br    0.64170   0.28104   0.44209   0.00000  Uiso   1.00
Br451  Br    0.85831   0.21894   0.44204   0.00000  Uiso   1.00
Br452  Br    0.64169   0.21894   0.55795   0.00000  Uiso   1.00
Br453  Br    0.96870   0.39286   0.44288   0.00000  Uiso   1.00
Br454  Br    0.85829   0.28103   0.55788   0.00000  Uiso   1.00
Br455  Br    0.53131   0.10716   0.44284   0.00000  Uiso   1.00
Br456  Br    0.71869   0.35714   0.44287   0.00000  Uiso   1.00
C457   C     0.55933   0.19052   0.50001   0.00000  Uiso   1.00
C458   C     0.99990   0.28852   0.64189   0.00000  Uiso   1.00
C459   C     0.50003   0.28852   0.35812   0.00000  Uiso   1.00
C460   C     0.50010   0.21148   0.64188   0.00000  Uiso   1.00
C461   C     0.74977   0.46147   0.35811   0.00000  Uiso   1.00
C462   C     0.75036   0.03853   0.64188   0.00000  Uiso   1.00
C463   C     0.75023   0.03853   0.35811   0.00000  Uiso   1.00
C464   C     0.74964   0.46147   0.64188   0.00000  Uiso   1.00
C465   C     0.91411   0.11792   0.52501   0.00000  Uiso   1.00
C466   C     0.58589   0.38209   0.52500   0.00000  Uiso   1.00
C467   C     0.63172   0.33570   0.47490   0.00000  Uiso   1.00
C468   C     0.94067   0.30948   0.50001   0.00000  Uiso   1.00
C469   C     0.86829   0.16430   0.47488   0.00000  Uiso   1.00
C470   C     0.63171   0.16429   0.52512   0.00000  Uiso   1.00
C471   C     0.91413   0.38210   0.47503   0.00000  Uiso   1.00
C472   C     0.86828   0.33569   0.52509   0.00000  Uiso   1.00
C473   C     0.58588   0.11791   0.47500   0.00000  Uiso   1.00
C474   C     0.66412   0.36791   0.47501   0.00000  Uiso   1.00
C475   C     0.83588   0.13209   0.47501   0.00000  Uiso   1.00
C476   C     0.88171   0.08571   0.52513   0.00000  Uiso   1.00
C477   C     0.61829   0.41430   0.52511   0.00000  Uiso   1.00
C478   C     0.83588   0.36791   0.52498   0.00000  Uiso   1.00
C479   C     0.94067   0.19052   0.49999   0.00000  Uiso   1.00
C480   C     0.61829   0.08570   0.47488   0.00000  Uiso   1.00
C481   C     0.66411   0.13208   0.52501   0.00000  Uiso   1.00
C482   C     0.88173   0.41431   0.47492   0.00000  Uiso   1.00
C483   C     0.59280   0.34293   0.49996   0.00000  Uiso   1.00
C484   C     0.90720   0.15707   0.49995   0.00000  Uiso   1.00
C485   C     0.90720   0.34293   0.50005   0.00000  Uiso   1.00
C486   C     0.59280   0.15707   0.50005   0.00000  Uiso   1.00
C487   C     0.84279   0.09293   0.50005   0.00000  Uiso   1.00
C488   C     0.65720   0.40707   0.50005   0.00000  Uiso   1.00
C489   C     0.65720   0.09293   0.49996   0.00000  Uiso   1.00
C490   C     0.55933   0.30948   0.49999   0.00000  Uiso   1.00
C491   C     0.84280   0.40707   0.49996   0.00000  Uiso   1.00
C492   C     0.80933   0.44052   0.49999   0.00000  Uiso   1.00
C493   C     0.69067   0.05948   0.49999   0.00000  Uiso   1.00
C494   C     0.69067   0.44052   0.50001   0.00000  Uiso   1.00
C495   C     0.80933   0.05948   0.50001   0.00000  Uiso   1.00
C496   C     0.99997   0.21148   0.35811   0.00000  Uiso   1.00
Cu497  Cu    0.50000   0.25000   0.54689   0.00000  Uiso   1.00
Cu498  Cu    0.50000   0.25000   0.45311   0.00000  Uiso   1.00
Cu499  Cu    0.75000   0.00000   0.54689   0.00000  Uiso   1.00
Cu500  Cu    0.75000   0.00000   0.45311   0.00000  Uiso   1.00
H501   H     0.99985   0.18061   0.37673   0.00000  Uiso   1.00
H502   H     0.99972   0.31939   0.62327   0.00000  Uiso   1.00
H503   H     0.50015   0.31939   0.37673   0.00000  Uiso   1.00
H504   H     0.50028   0.18061   0.62327   0.00000  Uiso   1.00
H505   H     0.74969   0.43060   0.37673   0.00000  Uiso   1.00
H506   H     0.75074   0.06940   0.62327   0.00000  Uiso   1.00
H507   H     0.75031   0.06940   0.37673   0.00000  Uiso   1.00
H508   H     0.74926   0.43060   0.62327   0.00000  Uiso   1.00
N509   N     0.50000   0.25000   0.61736   0.00000  Uiso   1.00
N510   N     0.50000   0.25000   0.38264   0.00000  Uiso   1.00
N511   N     0.75000   0.00000   0.61736   0.00000  Uiso   1.00
N512   N     0.75000   0.00000   0.38264   0.00000  Uiso   1.00
O513   O     0.54508   0.20491   0.53958   0.00000  Uiso   1.00
O514   O     0.70491   0.04509   0.46042   0.00000  Uiso   1.00
O515   O     0.70491   0.04509   0.53958   0.00000  Uiso   1.00
O516   O     0.79508   0.45491   0.46042   0.00000  Uiso   1.00
O517   O     0.70491   0.45491   0.46042   0.00000  Uiso   1.00
O518   O     0.79508   0.04509   0.53958   0.00000  Uiso   1.00
O519   O     0.79508   0.04509   0.46042   0.00000  Uiso   1.00
O520   O     0.70491   0.45491   0.53958   0.00000  Uiso   1.00
O521   O     0.95491   0.29509   0.46042   0.00000  Uiso   1.00
O522   O     0.95491   0.29509   0.53958   0.00000  Uiso   1.00
O523   O     0.54508   0.20491   0.46042   0.00000  Uiso   1.00
O524   O     0.95491   0.20491   0.46042   0.00000  Uiso   1.00
O525   O     0.54508   0.29509   0.53958   0.00000  Uiso   1.00
O526   O     0.54508   0.29509   0.46042   0.00000  Uiso   1.00
O527   O     0.95491   0.20491   0.53958   0.00000  Uiso   1.00
O528   O     0.79508   0.45491   0.53958   0.00000  Uiso   1.00
Br529  Br    0.46868   0.60717   0.55719   0.00000  Uiso   1.00
Br530  Br    0.28130   0.64286   0.44286   0.00000  Uiso   1.00
Br531  Br    0.39169   0.53106   0.55797   0.00000  Uiso   1.00
Br532  Br    0.10830   0.96896   0.55793   0.00000  Uiso   1.00
Br533  Br    0.28130   0.85715   0.55714   0.00000  Uiso   1.00
Br534  Br    0.10831   0.53105   0.44206   0.00000  Uiso   1.00
Br535  Br    0.21867   0.64282   0.55720   0.00000  Uiso   1.00
Br536  Br    0.39173   0.96899   0.44214   0.00000  Uiso   1.00
Br537  Br    0.03132   0.89283   0.55718   0.00000  Uiso   1.00
Br538  Br    0.14170   0.78104   0.44209   0.00000  Uiso   1.00
Br539  Br    0.35831   0.71894   0.44204   0.00000  Uiso   1.00
Br540  Br    0.14169   0.71894   0.55795   0.00000  Uiso   1.00
Br541  Br    0.46870   0.89286   0.44288   0.00000  Uiso   1.00
Br542  Br    0.35829   0.78103   0.55788   0.00000  Uiso   1.00
Br543  Br    0.03131   0.60716   0.44284   0.00000  Uiso   1.00
Br544  Br    0.21869   0.85714   0.44287   0.00000  Uiso   1.00
C545   C     0.05933   0.69052   0.50001   0.00000  Uiso   1.00
C546   C     0.49990   0.78852   0.64189   0.00000  Uiso   1.00
C547   C     0.00003   0.78852   0.35812   0.00000  Uiso   1.00
C548   C     0.00010   0.71148   0.64188   0.00000  Uiso   1.00
C549   C     0.24977   0.96147   0.35811   0.00000  Uiso   1.00
C550   C     0.25036   0.53853   0.64188   0.00000  Uiso   1.00
C551   C     0.25023   0.53853   0.35811   0.00000  Uiso   1.00
C552   C     0.24964   0.96147   0.64188   0.00000  Uiso   1.00
C553   C     0.41411   0.61792   0.52501   0.00000  Uiso   1.00
C554   C     0.08589   0.88209   0.52500   0.00000  Uiso   1.00
C555   C     0.13172   0.83570   0.47490   0.00000  Uiso   1.00
C556   C     0.44067   0.80948   0.50001   0.00000  Uiso   1.00
C557   C     0.36829   0.66430   0.47488   0.00000  Uiso   1.00
C558   C     0.13171   0.66429   0.52512   0.00000  Uiso   1.00
C559   C     0.41413   0.88210   0.47503   0.00000  Uiso   1.00
C560   C     0.36828   0.83569   0.52509   0.00000  Uiso   1.00
C561   C     0.08588   0.61791   0.47500   0.00000  Uiso   1.00
C562   C     0.16412   0.86791   0.47501   0.00000  Uiso   1.00
C563   C     0.33588   0.63209   0.47501   0.00000  Uiso   1.00
C564   C     0.38171   0.58571   0.52513   0.00000  Uiso   1.00
C565   C     0.11829   0.91430   0.52511   0.00000  Uiso   1.00
C566   C     0.33588   0.86791   0.52498   0.00000  Uiso   1.00
C567   C     0.44067   0.69052   0.49999   0.00000  Uiso   1.00
C568   C     0.11829   0.58570   0.47488   0.00000  Uiso   1.00
C569   C     0.16411   0.63208   0.52501   0.00000  Uiso   1.00
C570   C     0.38173   0.91431   0.47492   0.00000  Uiso   1.00
C571   C     0.09280   0.84293   0.49996   0.00000  Uiso   1.00
C572   C     0.40720   0.65707   0.49995   0.00000  Uiso   1.00
C573   C     0.40720   0.84293   0.50005   0.00000  Uiso   1.00
C574   C     0.09280   0.65707   0.50005   0.00000  Uiso   1.00
C575   C     0.34279   0.59293   0.50005   0.00000  Uiso   1.00
C576   C     0.15720   0.90707   0.50005   0.00000  Uiso   1.00
C577   C     0.15720   0.59293   0.49996   0.00000  Uiso   1.00
C578   C     0.05933   0.80948   0.49999   0.00000  Uiso   1.00
C579   C     0.34280   0.90707   0.49996   0.00000  Uiso   1.00
C580   C     0.30933   0.94052   0.49999   0.00000  Uiso   1.00
C581   C     0.19067   0.55948   0.49999   0.00000  Uiso   1.00
C582   C     0.19067   0.94052   0.50001   0.00000  Uiso   1.00
C583   C     0.30933   0.55948   0.50001   0.00000  Uiso   1.00
C584   C     0.49997   0.71148   0.35811   0.00000  Uiso   1.00
Cu585  Cu   -0.00000   0.75000   0.54689   0.00000  Uiso   1.00
Cu586  Cu   -0.00000   0.75000   0.45311   0.00000  Uiso   1.00
Cu587  Cu    0.25000   0.50000   0.54689   0.00000  Uiso   1.00
Cu588  Cu    0.25000   0.50000   0.45311   0.00000  Uiso   1.00
H589   H     0.49985   0.68061   0.37673   0.00000  Uiso   1.00
H590   H     0.49972   0.81939   0.62327   0.00000  Uiso   1.00
H591   H     0.00015   0.81939   0.37673   0.00000  Uiso   1.00
H592   H     0.00028   0.68061   0.62327   0.00000  Uiso   1.00
H593   H     0.24969   0.93060   0.37673   0.00000  Uiso   1.00
H594   H     0.25074   0.56940   0.62327   0.00000  Uiso   1.00
H595   H     0.25031   0.56940   0.37673   0.00000  Uiso   1.00
H596   H     0.24926   0.93060   0.62327   0.00000  Uiso   1.00
N597   N     0.00000   0.75000   0.61736   0.00000  Uiso   1.00
N598   N     0.00000   0.75000   0.38264   0.00000  Uiso   1.00
N599   N     0.25000   0.50000   0.61736   0.00000  Uiso   1.00
N600   N     0.25000   0.50000   0.38264   0.00000  Uiso   1.00
O601   O     0.04508   0.70491   0.53958   0.00000  Uiso   1.00
O602   O     0.20491   0.54509   0.46042   0.00000  Uiso   1.00
O603   O     0.20491   0.54509   0.53958   0.00000  Uiso   1.00
O604   O     0.29508   0.95491   0.46042   0.00000  Uiso   1.00
O605   O     0.20491   0.95491   0.46042   0.00000  Uiso   1.00
O606   O     0.29508   0.54509   0.53958   0.00000  Uiso   1.00
O607   O     0.29508   0.54509   0.46042   0.00000  Uiso   1.00
O608   O     0.20491   0.95491   0.53958   0.00000  Uiso   1.00
O609   O     0.45491   0.79509   0.46042   0.00000  Uiso   1.00
O610   O     0.45491   0.79509   0.53958   0.00000  Uiso   1.00
O611   O     0.04508   0.70491   0.46042   0.00000  Uiso   1.00
O612   O     0.45491   0.70491   0.46042   0.00000  Uiso   1.00
O613   O     0.04508   0.79509   0.53958   0.00000  Uiso   1.00
O614   O     0.04508   0.79509   0.46042   0.00000  Uiso   1.00
O615   O     0.45491   0.70491   0.53958   0.00000  Uiso   1.00
O616   O     0.29508   0.95491   0.53958   0.00000  Uiso   1.00
Br617  Br    0.96868   0.60717   0.55719   0.00000  Uiso   1.00
Br618  Br    0.78130   0.64286   0.44286   0.00000  Uiso   1.00
Br619  Br    0.89169   0.53106   0.55797   0.00000  Uiso   1.00
Br620  Br    0.60830   0.96896   0.55793   0.00000  Uiso   1.00
Br621  Br    0.78130   0.85715   0.55714   0.00000  Uiso   1.00
Br622  Br    0.60831   0.53105   0.44206   0.00000  Uiso   1.00
Br623  Br    0.71867   0.64282   0.55720   0.00000  Uiso   1.00
Br624  Br    0.89173   0.96899   0.44214   0.00000  Uiso   1.00
Br625  Br    0.53132   0.89283   0.55718   0.00000  Uiso   1.00
Br626  Br    0.64170   0.78104   0.44209   0.00000  Uiso   1.00
Br627  Br    0.85831   0.71894   0.44204   0.00000  Uiso   1.00
Br628  Br    0.64169   0.71894   0.55795   0.00000  Uiso   1.00
Br629  Br    0.96870   0.89286   0.44288   0.00000  Uiso   1.00
Br630  Br    0.85829   0.78103   0.55788   0.00000  Uiso   1.00
Br631  Br    0.53131   0.60716   0.44284   0.00000  Uiso   1.00
Br632  Br    0.71869   0.85714   0.44287   0.00000  Uiso   1.00
C633   C     0.55933   0.69052   0.50001   0.00000  Uiso   1.00
C634   C     0.99990   0.78852   0.64189   0.00000  Uiso   1.00
C635   C     0.50003   0.78852   0.35812   0.00000  Uiso   1.00
C636   C     0.50010   0.71148   0.64188   0.00000  Uiso   1.00
C637   C     0.74977   0.96147   0.35811   0.00000  Uiso   1.00
C638   C     0.75036   0.53853   0.64188   0.00000  Uiso   1.00
C639   C     0.75023   0.53853   0.35811   0.00000  Uiso   1.00
C640   C     0.74964   0.96147   0.64188   0.00000  Uiso   1.00
C641   C     0.91411   0.61792   0.52501   0.00000  Uiso   1.00
C642   C     0.58589   0.88209   0.52500   0.00000  Uiso   1.00
C643   C     0.63172   0.83570   0.47490   0.00000  Uiso   1.00
C644   C     0.94067   0.80948   0.50001   0.00000  Uiso   1.00
C645   C     0.86829   0.66430   0.47488   0.00000  Uiso   1.00
C646   C     0.63171   0.66429   0.52512   0.00000  Uiso   1.00
C647   C     0.91413   0.88210   0.47503   0.00000  Uiso   1.00
C648   C     0.86828   0.83569   0.52509   0.00000  Uiso   1.00
C649   C     0.58588   0.61791   0.47500   0.00000  Uiso   1.00
C650   C     0.66412   0.86791   0.47501   0.00000  Uiso   1.00
C651   C     0.83588   0.63209   0.47501   0.00000  Uiso   1.00
C652   C     0.88171   0.58571   0.52513   0.00000  Uiso   1.00
C653   C     0.61829   0.91430   0.52511   0.00000  Uiso   1.00
C654   C     0.83588   0.86791   0.52498   0.00000  Uiso   1.00
C655   C     0.94067   0.69052   0.49999   0.00000  Uiso   1.00
C656   C     0.61829   0.58570   0.47488   0.00000  Uiso   1.00
C657   C     0.66411   0.63208   0.52501   0.00000  Uiso   1.00
C658   C     0.88173   0.91431   0.47492   0.00000  Uiso   1.00
C659   C     0.59280   0.84293   0.49996   0.00000  Uiso   1.00
C660   C     0.90720   0.65707   0.49995   0.00000  Uiso   1.00
C661   C     0.90720   0.84293   0.50005   0.00000  Uiso   1.00
C662   C     0.59280   0.65707   0.50005   0.00000  Uiso   1.00
C663   C     0.84279   0.59293   0.50005   0.00000  Uiso   1.00
C664   C     0.65720   0.90707   0.50005   0.00000  Uiso   1.00
C665   C     0.65720   0.59293   0.49996   0.00000  Uiso   1.00
C666   C     0.55933   0.80948   0.49999   0.00000  Uiso   1.00
C667   C     0.84280   0.90707   0.49996   0.00000  Uiso   1.00
C668   C     0.80933   0.94052   0.49999   0.00000  Uiso   1.00
C669   C     0.69067   0.55948   0.49999   0.00000  Uiso   1.00
C670   C     0.69067   0.94052   0.50001   0.00000  Uiso   1.00
C671   C     0.80933   0.55948   0.50001   0.00000  Uiso   1.00
C672   C     0.99997   0.71148   0.35811   0.00000  Uiso   1.00
Cu673  Cu    0.50000   0.75000   0.54689   0.00000  Uiso   1.00
Cu674  Cu    0.50000   0.75000   0.45311   0.00000  Uiso   1.00
Cu675  Cu    0.75000   0.50000   0.54689   0.00000  Uiso   1.00
Cu676  Cu    0.75000   0.50000   0.45311   0.00000  Uiso   1.00
H677   H     0.99985   0.68061   0.37673   0.00000  Uiso   1.00
H678   H     0.99972   0.81939   0.62327   0.00000  Uiso   1.00
H679   H     0.50015   0.81939   0.37673   0.00000  Uiso   1.00
H680   H     0.50028   0.68061   0.62327   0.00000  Uiso   1.00
H681   H     0.74969   0.93060   0.37673   0.00000  Uiso   1.00
H682   H     0.75074   0.56940   0.62327   0.00000  Uiso   1.00
H683   H     0.75031   0.56940   0.37673   0.00000  Uiso   1.00
H684   H     0.74926   0.93060   0.62327   0.00000  Uiso   1.00
N685   N     0.50000   0.75000   0.61736   0.00000  Uiso   1.00
N686   N     0.50000   0.75000   0.38264   0.00000  Uiso   1.00
N687   N     0.75000   0.50000   0.61736   0.00000  Uiso   1.00
N688   N     0.75000   0.50000   0.38264   0.00000  Uiso   1.00
O689   O     0.54508   0.70491   0.53958   0.00000  Uiso   1.00
O690   O     0.70491   0.54509   0.46042   0.00000  Uiso   1.00
O691   O     0.70491   0.54509   0.53958   0.00000  Uiso   1.00
O692   O     0.79508   0.95491   0.46042   0.00000  Uiso   1.00
O693   O     0.70491   0.95491   0.46042   0.00000  Uiso   1.00
O694   O     0.79508   0.54509   0.53958   0.00000  Uiso   1.00
O695   O     0.79508   0.54509   0.46042   0.00000  Uiso   1.00
O696   O     0.70491   0.95491   0.53958   0.00000  Uiso   1.00
O697   O     0.95491   0.79509   0.46042   0.00000  Uiso   1.00
O698   O     0.95491   0.79509   0.53958   0.00000  Uiso   1.00
O699   O     0.54508   0.70491   0.46042   0.00000  Uiso   1.00
O700   O     0.95491   0.70491   0.46042   0.00000  Uiso   1.00
O701   O     0.54508   0.79509   0.53958   0.00000  Uiso   1.00
O702   O     0.54508   0.79509   0.46042   0.00000  Uiso   1.00
O703   O     0.95491   0.70491   0.53958   0.00000  Uiso   1.00
O704   O     0.79508   0.95491   0.53958   0.00000  Uiso   1.00
Br705  Br    0.46868   0.10717   0.89052   0.00000  Uiso   1.00
Br706  Br    0.28130   0.14286   0.77620   0.00000  Uiso   1.00
Br707  Br    0.39169   0.03106   0.89130   0.00000  Uiso   1.00
Br708  Br    0.10830   0.46896   0.89126   0.00000  Uiso   1.00
Br709  Br    0.28130   0.35715   0.89048   0.00000  Uiso   1.00
Br710  Br    0.10831   0.03105   0.77539   0.00000  Uiso   1.00
Br711  Br    0.21867   0.14282   0.89054   0.00000  Uiso   1.00
Br712  Br    0.39173   0.46899   0.77547   0.00000  Uiso   1.00
Br713  Br    0.03132   0.39283   0.89051   0.00000  Uiso   1.00
Br714  Br    0.14170   0.28104   0.77542   0.00000  Uiso   1.00
Br715  Br    0.35831   0.21894   0.77537   0.00000  Uiso   1.00
Br716  Br    0.14169   0.21894   0.89128   0.00000  Uiso   1.00
Br717  Br    0.46870   0.39286   0.77622   0.00000  Uiso   1.00
Br718  Br    0.35829   0.28103   0.89121   0.00000  Uiso   1.00
Br719  Br    0.03131   0.10716   0.77618   0.00000  Uiso   1.00
Br720  Br    0.21869   0.35714   0.77620   0.00000  Uiso   1.00
C721   C     0.05933   0.19052   0.83334   0.00000  Uiso   1.00
C722   C     0.49990   0.28852   0.97522   0.00000  Uiso   1.00
C723   C     0.00003   0.28852   0.69145   0.00000  Uiso   1.00
C724   C     0.00010   0.21148   0.97522   0.00000  Uiso   1.00
C725   C     0.24977   0.46147   0.69145   0.00000  Uiso   1.00
C726   C     0.25036   0.03853   0.97522   0.00000  Uiso   1.00
C727   C     0.25023   0.03853   0.69145   0.00000  Uiso   1.00
C728   C     0.24964   0.46147   0.97522   0.00000  Uiso   1.00
C729   C     0.41411   0.11792   0.85834   0.00000  Uiso   1.00
C730   C     0.08589   0.38209   0.85833   0.00000  Uiso   1.00
C731   C     0.13172   0.33570   0.80823   0.00000  Uiso   1.00
C732   C     0.44067   0.30948   0.83334   0.00000  Uiso   1.00
C733   C     0.36829   0.16430   0.80821   0.00000  Uiso   1.00
C734   C     0.13171   0.16429   0.85846   0.00000  Uiso   1.00
C735   C     0.41413   0.38210   0.80836   0.00000  Uiso   1.00
C736   C     0.36828   0.33569   0.85843   0.00000  Uiso   1.00
C737   C     0.08588   0.11791   0.80833   0.00000  Uiso   1.00
C738   C     0.16412   0.36791   0.80835   0.00000  Uiso   1.00
C739   C     0.33588   0.13209   0.80834   0.00000  Uiso   1.00
C740   C     0.38171   0.08571   0.85846   0.00000  Uiso   1.00
C741   C     0.11829   0.41430   0.85845   0.00000  Uiso   1.00
C742   C     0.33588   0.36791   0.85832   0.00000  Uiso   1.00
C743   C     0.44067   0.19052   0.83333   0.00000  Uiso   1.00
C744   C     0.11829   0.08570   0.80822   0.00000  Uiso   1.00
C745   C     0.16411   0.13208   0.85834   0.00000  Uiso   1.00
C746   C     0.38173   0.41431   0.80825   0.00000  Uiso   1.00
C747   C     0.09280   0.34293   0.83329   0.00000  Uiso   1.00
C748   C     0.40720   0.15707   0.83329   0.00000  Uiso   1.00
C749   C     0.40720   0.34293   0.83338   0.00000  Uiso   1.00
C750   C     0.09280   0.15707   0.83338   0.00000  Uiso   1.00
C751   C     0.34279   0.09293   0.83339   0.00000  Uiso   1.00
C752   C     0.15720   0.40707   0.83338   0.00000  Uiso   1.00
C753   C     0.15720   0.09293   0.83329   0.00000  Uiso   1.00
C754   C     0.05933   0.30948   0.83333   0.00000  Uiso   1.00
C755   C     0.34280   0.40707   0.83329   0.00000  Uiso   1.00
C756   C     0.30933   0.44052   0.83333   0.00000  Uiso   1.00
C757   C     0.19067   0.05948   0.83333   0.00000  Uiso   1.00
C758   C     0.19067   0.44052   0.83334   0.00000  Uiso   1.00
C759   C     0.30933   0.05948   0.83334   0.00000  Uiso   1.00
C760   C     0.49997   0.21148   0.69145   0.00000  Uiso   1.00
Cu761  Cu   -0.00000   0.25000   0.88022   0.00000  Uiso   1.00
Cu762  Cu   -0.00000   0.25000   0.78645   0.00000  Uiso   1.00
Cu763  Cu    0.25000   0.00000   0.88022   0.00000  Uiso   1.00
Cu764  Cu    0.25000   0.00000   0.78645   0.00000  Uiso   1.00
H765   H     0.49985   0.18061   0.71006   0.00000  Uiso   1.00
H766   H     0.49972   0.31939   0.95661   0.00000  Uiso   1.00
H767   H     0.00015   0.31939   0.71006   0.00000  Uiso   1.00
H768   H     0.00028   0.18061   0.95660   0.00000  Uiso   1.00
H769   H     0.24969   0.43060   0.71006   0.00000  Uiso   1.00
H770   H     0.25074   0.06940   0.95660   0.00000  Uiso   1.00
H771   H     0.25031   0.06940   0.71006   0.00000  Uiso   1.00
H772   H     0.24926   0.43060   0.95660   0.00000  Uiso   1.00
N773   N     0.00000   0.25000   0.95069   0.00000  Uiso   1.00
N774   N     0.00000   0.25000   0.71598   0.00000  Uiso   1.00
N775   N     0.25000   0.00000   0.95069   0.00000  Uiso   1.00
N776   N     0.25000   0.00000   0.71598   0.00000  Uiso   1.00
O777   O     0.04508   0.20491   0.87291   0.00000  Uiso   1.00
O778   O     0.20491   0.04509   0.79375   0.00000  Uiso   1.00
O779   O     0.20491   0.04509   0.87291   0.00000  Uiso   1.00
O780   O     0.29508   0.45491   0.79375   0.00000  Uiso   1.00
O781   O     0.20491   0.45491   0.79375   0.00000  Uiso   1.00
O782   O     0.29508   0.04509   0.87291   0.00000  Uiso   1.00
O783   O     0.29508   0.04509   0.79375   0.00000  Uiso   1.00
O784   O     0.20491   0.45491   0.87291   0.00000  Uiso   1.00
O785   O     0.45491   0.29509   0.79375   0.00000  Uiso   1.00
O786   O     0.45491   0.29509   0.87291   0.00000  Uiso   1.00
O787   O     0.04508   0.20491   0.79375   0.00000  Uiso   1.00
O788   O     0.45491   0.20491   0.79375   0.00000  Uiso   1.00
O789   O     0.04508   0.29509   0.87291   0.00000  Uiso   1.00
O790   O     0.04508   0.29509   0.79375   0.00000  Uiso   1.00
O791   O     0.45491   0.20491   0.87291   0.00000  Uiso   1.00
O792   O     0.29508   0.45491   0.87291   0.00000  Uiso   1.00
Br793  Br    0.96868   0.10717   0.89052   0.00000  Uiso   1.00
Br794  Br    0.78130   0.14286   0.77620   0.00000  Uiso   1.00
Br795  Br    0.89169   0.03106   0.89130   0.00000  Uiso   1.00
Br796  Br    0.60830   0.46896   0.89126   0.00000  Uiso   1.00
Br797  Br    0.78130   0.35715   0.89048   0.00000  Uiso   1.00
Br798  Br    0.60831   0.03105   0.77539   0.00000  Uiso   1.00
Br799  Br    0.71867   0.14282   0.89054   0.00000  Uiso   1.00
Br800  Br    0.89173   0.46899   0.77547   0.00000  Uiso   1.00
Br801  Br    0.53132   0.39283   0.89051   0.00000  Uiso   1.00
Br802  Br    0.64170   0.28104   0.77542   0.00000  Uiso   1.00
Br803  Br    0.85831   0.21894   0.77537   0.00000  Uiso   1.00
Br804  Br    0.64169   0.21894   0.89128   0.00000  Uiso   1.00
Br805  Br    0.96870   0.39286   0.77622   0.00000  Uiso   1.00
Br806  Br    0.85829   0.28103   0.89121   0.00000  Uiso   1.00
Br807  Br    0.53131   0.10716   0.77618   0.00000  Uiso   1.00
Br808  Br    0.71869   0.35714   0.77620   0.00000  Uiso   1.00
C809   C     0.55933   0.19052   0.83334   0.00000  Uiso   1.00
C810   C     0.99990   0.28852   0.97522   0.00000  Uiso   1.00
C811   C     0.50003   0.28852   0.69145   0.00000  Uiso   1.00
C812   C     0.50010   0.21148   0.97522   0.00000  Uiso   1.00
C813   C     0.74977   0.46147   0.69145   0.00000  Uiso   1.00
C814   C     0.75036   0.03853   0.97522   0.00000  Uiso   1.00
C815   C     0.75023   0.03853   0.69145   0.00000  Uiso   1.00
C816   C     0.74964   0.46147   0.97522   0.00000  Uiso   1.00
C817   C     0.91411   0.11792   0.85834   0.00000  Uiso   1.00
C818   C     0.58589   0.38209   0.85833   0.00000  Uiso   1.00
C819   C     0.63172   0.33570   0.80823   0.00000  Uiso   1.00
C820   C     0.94067   0.30948   0.83334   0.00000  Uiso   1.00
C821   C     0.86829   0.16430   0.80821   0.00000  Uiso   1.00
C822   C     0.63171   0.16429   0.85846   0.00000  Uiso   1.00
C823   C     0.91413   0.38210   0.80836   0.00000  Uiso   1.00
C824   C     0.86828   0.33569   0.85843   0.00000  Uiso   1.00
C825   C     0.58588   0.11791   0.80833   0.00000  Uiso   1.00
C826   C     0.66412   0.36791   0.80835   0.00000  Uiso   1.00
C827   C     0.83588   0.13209   0.80834   0.00000  Uiso   1.00
C828   C     0.88171   0.08571   0.85846   0.00000  Uiso   1.00
C829   C     0.61829   0.41430   0.85845   0.00000  Uiso   1.00
C830   C     0.83588   0.36791   0.85832   0.00000  Uiso   1.00
C831   C     0.94067   0.19052   0.83333   0.00000  Uiso   1.00
C832   C     0.61829   0.08570   0.80822   0.00000  Uiso   1.00
C833   C     0.66411   0.13208   0.85834   0.00000  Uiso   1.00
C834   C     0.88173   0.41431   0.80825   0.00000  Uiso   1.00
C835   C     0.59280   0.34293   0.83329   0.00000  Uiso   1.00
C836   C     0.90720   0.15707   0.83329   0.00000  Uiso   1.00
C837   C     0.90720   0.34293   0.83338   0.00000  Uiso   1.00
C838   C     0.59280   0.15707   0.83338   0.00000  Uiso   1.00
C839   C     0.84279   0.09293   0.83339   0.00000  Uiso   1.00
C840   C     0.65720   0.40707   0.83338   0.00000  Uiso   1.00
C841   C     0.65720   0.09293   0.83329   0.00000  Uiso   1.00
C842   C     0.55933   0.30948   0.83333   0.00000  Uiso   1.00
C843   C     0.84280   0.40707   0.83329   0.00000  Uiso   1.00
C844   C     0.80933   0.44052   0.83333   0.00000  Uiso   1.00
C845   C     0.69067   0.05948   0.83333   0.00000  Uiso   1.00
C846   C     0.69067   0.44052   0.83334   0.00000  Uiso   1.00
C847   C     0.80933   0.05948   0.83334   0.00000  Uiso   1.00
C848   C     0.99997   0.21148   0.69145   0.00000  Uiso   1.00
Cu849  Cu    0.50000   0.25000   0.88022   0.00000  Uiso   1.00
Cu850  Cu    0.50000   0.25000   0.78645   0.00000  Uiso   1.00
Cu851  Cu    0.75000   0.00000   0.88022   0.00000  Uiso   1.00
Cu852  Cu    0.75000   0.00000   0.78645   0.00000  Uiso   1.00
H853   H     0.99985   0.18061   0.71006   0.00000  Uiso   1.00
H854   H     0.99972   0.31939   0.95661   0.00000  Uiso   1.00
H855   H     0.50015   0.31939   0.71006   0.00000  Uiso   1.00
H856   H     0.50028   0.18061   0.95660   0.00000  Uiso   1.00
H857   H     0.74969   0.43060   0.71006   0.00000  Uiso   1.00
H858   H     0.75074   0.06940   0.95660   0.00000  Uiso   1.00
H859   H     0.75031   0.06940   0.71006   0.00000  Uiso   1.00
H860   H     0.74926   0.43060   0.95660   0.00000  Uiso   1.00
N861   N     0.50000   0.25000   0.95069   0.00000  Uiso   1.00
N862   N     0.50000   0.25000   0.71598   0.00000  Uiso   1.00
N863   N     0.75000   0.00000   0.95069   0.00000  Uiso   1.00
N864   N     0.75000   0.00000   0.71598   0.00000  Uiso   1.00
O865   O     0.54508   0.20491   0.87291   0.00000  Uiso   1.00
O866   O     0.70491   0.04509   0.79375   0.00000  Uiso   1.00
O867   O     0.70491   0.04509   0.87291   0.00000  Uiso   1.00
O868   O     0.79508   0.45491   0.79375   0.00000  Uiso   1.00
O869   O     0.70491   0.45491   0.79375   0.00000  Uiso   1.00
O870   O     0.79508   0.04509   0.87291   0.00000  Uiso   1.00
O871   O     0.79508   0.04509   0.79375   0.00000  Uiso   1.00
O872   O     0.70491   0.45491   0.87291   0.00000  Uiso   1.00
O873   O     0.95491   0.29509   0.79375   0.00000  Uiso   1.00
O874   O     0.95491   0.29509   0.87291   0.00000  Uiso   1.00
O875   O     0.54508   0.20491   0.79375   0.00000  Uiso   1.00
O876   O     0.95491   0.20491   0.79375   0.00000  Uiso   1.00
O877   O     0.54508   0.29509   0.87291   0.00000  Uiso   1.00
O878   O     0.54508   0.29509   0.79375   0.00000  Uiso   1.00
O879   O     0.95491   0.20491   0.87291   0.00000  Uiso   1.00
O880   O     0.79508   0.45491   0.87291   0.00000  Uiso   1.00
Br881  Br    0.46868   0.60717   0.89052   0.00000  Uiso   1.00
Br882  Br    0.28130   0.64286   0.77620   0.00000  Uiso   1.00
Br883  Br    0.39169   0.53106   0.89130   0.00000  Uiso   1.00
Br884  Br    0.10830   0.96896   0.89126   0.00000  Uiso   1.00
Br885  Br    0.28130   0.85715   0.89048   0.00000  Uiso   1.00
Br886  Br    0.10831   0.53105   0.77539   0.00000  Uiso   1.00
Br887  Br    0.21867   0.64282   0.89054   0.00000  Uiso   1.00
Br888  Br    0.39173   0.96899   0.77547   0.00000  Uiso   1.00
Br889  Br    0.03132   0.89283   0.89051   0.00000  Uiso   1.00
Br890  Br    0.14170   0.78104   0.77542   0.00000  Uiso   1.00
Br891  Br    0.35831   0.71894   0.77537   0.00000  Uiso   1.00
Br892  Br    0.14169   0.71894   0.89128   0.00000  Uiso   1.00
Br893  Br    0.46870   0.89286   0.77622   0.00000  Uiso   1.00
Br894  Br    0.35829   0.78103   0.89121   0.00000  Uiso   1.00
Br895  Br    0.03131   0.60716   0.77618   0.00000  Uiso   1.00
Br896  Br    0.21869   0.85714   0.77620   0.00000  Uiso   1.00
C897   C     0.05933   0.69052   0.83334   0.00000  Uiso   1.00
C898   C     0.49990   0.78852   0.97522   0.00000  Uiso   1.00
C899   C     0.00003   0.78852   0.69145   0.00000  Uiso   1.00
C900   C     0.00010   0.71148   0.97522   0.00000  Uiso   1.00
C901   C     0.24977   0.96147   0.69145   0.00000  Uiso   1.00
C902   C     0.25036   0.53853   0.97522   0.00000  Uiso   1.00
C903   C     0.25023   0.53853   0.69145   0.00000  Uiso   1.00
C904   C     0.24964   0.96147   0.97522   0.00000  Uiso   1.00
C905   C     0.41411   0.61792   0.85834   0.00000  Uiso   1.00
C906   C     0.08589   0.88209   0.85833   0.00000  Uiso   1.00
C907   C     0.13172   0.83570   0.80823   0.00000  Uiso   1.00
C908   C     0.44067   0.80948   0.83334   0.00000  Uiso   1.00
C909   C     0.36829   0.66430   0.80821   0.00000  Uiso   1.00
C910   C     0.13171   0.66429   0.85846   0.00000  Uiso   1.00
C911   C     0.41413   0.88210   0.80836   0.00000  Uiso   1.00
C912   C     0.36828   0.83569   0.85843   0.00000  Uiso   1.00
C913   C     0.08588   0.61791   0.80833   0.00000  Uiso   1.00
C914   C     0.16412   0.86791   0.80835   0.00000  Uiso   1.00
C915   C     0.33588   0.63209   0.80834   0.00000  Uiso   1.00
C916   C     0.38171   0.58571   0.85846   0.00000  Uiso   1.00
C917   C     0.11829   0.91430   0.85845   0.00000  Uiso   1.00
C918   C     0.33588   0.86791   0.85832   0.00000  Uiso   1.00
C919   C     0.44067   0.69052   0.83333   0.00000  Uiso   1.00
C920   C     0.11829   0.58570   0.80822   0.00000  Uiso   1.00
C921   C     0.16411   0.63208   0.85834   0.00000  Uiso   1.00
C922   C     0.38173   0.91431   0.80825   0.00000  Uiso   1.00
C923   C     0.09280   0.84293   0.83329   0.00000  Uiso   1.00
C924   C     0.40720   0.65707   0.83329   0.00000  Uiso   1.00
C925   C     0.40720   0.84293   0.83338   0.00000  Uiso   1.00
C926   C     0.09280   0.65707   0.83338   0.00000  Uiso   1.00
C927   C     0.34279   0.59293   0.83339   0.00000  Uiso   1.00
C928   C     0.15720   0.90707   0.83338   0.00000  Uiso   1.00
C929   C     0.15720   0.59293   0.83329   0.00000  Uiso   1.00
C930   C     0.05933   0.80948   0.83333   0.00000  Uiso   1.00
C931   C     0.34280   0.90707   0.83329   0.00000  Uiso   1.00
C932   C     0.30933   0.94052   0.83333   0.00000  Uiso   1.00
C933   C     0.19067   0.55948   0.83333   0.00000  Uiso   1.00
C934   C     0.19067   0.94052   0.83334   0.00000  Uiso   1.00
C935   C     0.30933   0.55948   0.83334   0.00000  Uiso   1.00
C936   C     0.49997   0.71148   0.69145   0.00000  Uiso   1.00
Cu937  Cu   -0.00000   0.75000   0.88022   0.00000  Uiso   1.00
Cu938  Cu   -0.00000   0.75000   0.78645   0.00000  Uiso   1.00
Cu939  Cu    0.25000   0.50000   0.88022   0.00000  Uiso   1.00
Cu940  Cu    0.25000   0.50000   0.78645   0.00000  Uiso   1.00
H941   H     0.49985   0.68061   0.71006   0.00000  Uiso   1.00
H942   H     0.49972   0.81939   0.95661   0.00000  Uiso   1.00
H943   H     0.00015   0.81939   0.71006   0.00000  Uiso   1.00
H944   H     0.00028   0.68061   0.95660   0.00000  Uiso   1.00
H945   H     0.24969   0.93060   0.71006   0.00000  Uiso   1.00
H946   H     0.25074   0.56940   0.95660   0.00000  Uiso   1.00
H947   H     0.25031   0.56940   0.71006   0.00000  Uiso   1.00
H948   H     0.24926   0.93060   0.95660   0.00000  Uiso   1.00
N949   N     0.00000   0.75000   0.95069   0.00000  Uiso   1.00
N950   N     0.00000   0.75000   0.71598   0.00000  Uiso   1.00
N951   N     0.25000   0.50000   0.95069   0.00000  Uiso   1.00
N952   N     0.25000   0.50000   0.71598   0.00000  Uiso   1.00
O953   O     0.04508   0.70491   0.87291   0.00000  Uiso   1.00
O954   O     0.20491   0.54509   0.79375   0.00000  Uiso   1.00
O955   O     0.20491   0.54509   0.87291   0.00000  Uiso   1.00
O956   O     0.29508   0.95491   0.79375   0.00000  Uiso   1.00
O957   O     0.20491   0.95491   0.79375   0.00000  Uiso   1.00
O958   O     0.29508   0.54509   0.87291   0.00000  Uiso   1.00
O959   O     0.29508   0.54509   0.79375   0.00000  Uiso   1.00
O960   O     0.20491   0.95491   0.87291   0.00000  Uiso   1.00
O961   O     0.45491   0.79509   0.79375   0.00000  Uiso   1.00
O962   O     0.45491   0.79509   0.87291   0.00000  Uiso   1.00
O963   O     0.04508   0.70491   0.79375   0.00000  Uiso   1.00
O964   O     0.45491   0.70491   0.79375   0.00000  Uiso   1.00
O965   O     0.04508   0.79509   0.87291   0.00000  Uiso   1.00
O966   O     0.04508   0.79509   0.79375   0.00000  Uiso   1.00
O967   O     0.45491   0.70491   0.87291   0.00000  Uiso   1.00
O968   O     0.29508   0.95491   0.87291   0.00000  Uiso   1.00
Br969  Br    0.96868   0.60717   0.89052   0.00000  Uiso   1.00
Br970  Br    0.78130   0.64286   0.77620   0.00000  Uiso   1.00
Br971  Br    0.89169   0.53106   0.89130   0.00000  Uiso   1.00
Br972  Br    0.60830   0.96896   0.89126   0.00000  Uiso   1.00
Br973  Br    0.78130   0.85715   0.89048   0.00000  Uiso   1.00
Br974  Br    0.60831   0.53105   0.77539   0.00000  Uiso   1.00
Br975  Br    0.71867   0.64282   0.89054   0.00000  Uiso   1.00
Br976  Br    0.89173   0.96899   0.77547   0.00000  Uiso   1.00
Br977  Br    0.53132   0.89283   0.89051   0.00000  Uiso   1.00
Br978  Br    0.64170   0.78104   0.77542   0.00000  Uiso   1.00
Br979  Br    0.85831   0.71894   0.77537   0.00000  Uiso   1.00
Br980  Br    0.64169   0.71894   0.89128   0.00000  Uiso   1.00
Br981  Br    0.96870   0.89286   0.77622   0.00000  Uiso   1.00
Br982  Br    0.85829   0.78103   0.89121   0.00000  Uiso   1.00
Br983  Br    0.53131   0.60716   0.77618   0.00000  Uiso   1.00
Br984  Br    0.71869   0.85714   0.77620   0.00000  Uiso   1.00
C985   C     0.55933   0.69052   0.83334   0.00000  Uiso   1.00
C986   C     0.99990   0.78852   0.97522   0.00000  Uiso   1.00
C987   C     0.50003   0.78852   0.69145   0.00000  Uiso   1.00
C988   C     0.50010   0.71148   0.97522   0.00000  Uiso   1.00
C989   C     0.74977   0.96147   0.69145   0.00000  Uiso   1.00
C990   C     0.75036   0.53853   0.97522   0.00000  Uiso   1.00
C991   C     0.75023   0.53853   0.69145   0.00000  Uiso   1.00
C992   C     0.74964   0.96147   0.97522   0.00000  Uiso   1.00
C993   C     0.91411   0.61792   0.85834   0.00000  Uiso   1.00
C994   C     0.58589   0.88209   0.85833   0.00000  Uiso   1.00
C995   C     0.63172   0.83570   0.80823   0.00000  Uiso   1.00
C996   C     0.94067   0.80948   0.83334   0.00000  Uiso   1.00
C997   C     0.86829   0.66430   0.80821   0.00000  Uiso   1.00
C998   C     0.63171   0.66429   0.85846   0.00000  Uiso   1.00
C999   C     0.91413   0.88210   0.80836   0.00000  Uiso   1.00
C1000  C     0.86828   0.83569   0.85843   0.00000  Uiso   1.00
C1001  C     0.58588   0.61791   0.80833   0.00000  Uiso   1.00
C1002  C     0.66412   0.86791   0.80835   0.00000  Uiso   1.00
C1003  C     0.83588   0.63209   0.80834   0.00000  Uiso   1.00
C1004  C     0.88171   0.58571   0.85846   0.00000  Uiso   1.00
C1005  C     0.61829   0.91430   0.85845   0.00000  Uiso   1.00
C1006  C     0.83588   0.86791   0.85832   0.00000  Uiso   1.00
C1007  C     0.94067   0.69052   0.83333   0.00000  Uiso   1.00
C1008  C     0.61829   0.58570   0.80822   0.00000  Uiso   1.00
C1009  C     0.66411   0.63208   0.85834   0.00000  Uiso   1.00
C1010  C     0.88173   0.91431   0.80825   0.00000  Uiso   1.00
C1011  C     0.59280   0.84293   0.83329   0.00000  Uiso   1.00
C1012  C     0.90720   0.65707   0.83329   0.00000  Uiso   1.00
C1013  C     0.90720   0.84293   0.83338   0.00000  Uiso   1.00
C1014  C     0.59280   0.65707   0.83338   0.00000  Uiso   1.00
C1015  C     0.84279   0.59293   0.83339   0.00000  Uiso   1.00
C1016  C     0.65720   0.90707   0.83338   0.00000  Uiso   1.00
C1017  C     0.65720   0.59293   0.83329   0.00000  Uiso   1.00
C1018  C     0.55933   0.80948   0.83333   0.00000  Uiso   1.00
C1019  C     0.84280   0.90707   0.83329   0.00000  Uiso   1.00
C1020  C     0.80933   0.94052   0.83333   0.00000  Uiso   1.00
C1021  C     0.69067   0.55948   0.83333   0.00000  Uiso   1.00
C1022  C     0.69067   0.94052   0.83334   0.00000  Uiso   1.00
C1023  C     0.80933   0.55948   0.83334   0.00000  Uiso   1.00
C1024  C     0.99997   0.71148   0.69145   0.00000  Uiso   1.00
Cu1025 Cu    0.50000   0.75000   0.88022   0.00000  Uiso   1.00
Cu1026 Cu    0.50000   0.75000   0.78645   0.00000  Uiso   1.00
Cu1027 Cu    0.75000   0.50000   0.88022   0.00000  Uiso   1.00
Cu1028 Cu    0.75000   0.50000   0.78645   0.00000  Uiso   1.00
H1029  H     0.99985   0.68061   0.71006   0.00000  Uiso   1.00
H1030  H     0.99972   0.81939   0.95661   0.00000  Uiso   1.00
H1031  H     0.50015   0.81939   0.71006   0.00000  Uiso   1.00
H1032  H     0.50028   0.68061   0.95660   0.00000  Uiso   1.00
H1033  H     0.74969   0.93060   0.71006   0.00000  Uiso   1.00
H1034  H     0.75074   0.56940   0.95660   0.00000  Uiso   1.00
H1035  H     0.75031   0.56940   0.71006   0.00000  Uiso   1.00
H1036  H     0.74926   0.93060   0.95660   0.00000  Uiso   1.00
N1037  N     0.50000   0.75000   0.95069   0.00000  Uiso   1.00
N1038  N     0.50000   0.75000   0.71598   0.00000  Uiso   1.00
N1039  N     0.75000   0.50000   0.95069   0.00000  Uiso   1.00
N1040  N     0.75000   0.50000   0.71598   0.00000  Uiso   1.00
O1041  O     0.54508   0.70491   0.87291   0.00000  Uiso   1.00
O1042  O     0.70491   0.54509   0.79375   0.00000  Uiso   1.00
O1043  O     0.70491   0.54509   0.87291   0.00000  Uiso   1.00
O1044  O     0.79508   0.95491   0.79375   0.00000  Uiso   1.00
O1045  O     0.70491   0.95491   0.79375   0.00000  Uiso   1.00
O1046  O     0.79508   0.54509   0.87291   0.00000  Uiso   1.00
O1047  O     0.79508   0.54509   0.79375   0.00000  Uiso   1.00
O1048  O     0.70491   0.95491   0.87291   0.00000  Uiso   1.00
O1049  O     0.95491   0.79509   0.79375   0.00000  Uiso   1.00
O1050  O     0.95491   0.79509   0.87291   0.00000  Uiso   1.00
O1051  O     0.54508   0.70491   0.79375   0.00000  Uiso   1.00
O1052  O     0.95491   0.70491   0.79375   0.00000  Uiso   1.00
O1053  O     0.54508   0.79509   0.87291   0.00000  Uiso   1.00
O1054  O     0.54508   0.79509   0.79375   0.00000  Uiso   1.00
O1055  O     0.95491   0.70491   0.87291   0.00000  Uiso   1.00
O1056  O     0.79508   0.95491   0.87291   0.00000  Uiso   1.00
loop_
_geom_bond_atom_site_label_1
_geom_bond_atom_site_label_2
_geom_bond_distance
_geom_bond_site_symmetry_2
_ccdc_geom_bond_type
Br1    C25     1.934   .     S
Br2    C35     1.934   .     S
Br3    C36     1.935   .     S
Br4    C37     1.935   .     S
Br5    C38     1.934   .     S
Br6    C40     1.935   .     S
Br7    C41     1.934   .     S
Br8    C42     1.935   .     S
Br9    C26     1.934   .     S
Br10   C27     1.935   .     S
Br11   C29     1.935   .     S
Br12   C30     1.935   .     S
Br13   C31     1.934   .     S
Br14   C32     1.935   .     S
Br15   C33     1.934   .     S
Br16   C34     1.934   .     S
C17    O73     1.289   .     A
C17    C46     1.445   .     S
C17    O83     1.290   .     A
C18    H62     1.081   .     S
C18    C459    1.417   .     S
C18    N157    1.367   .     S
C19    H63     1.081   .     S
C19    N70     1.367   .     A
C19    C810    1.417   1_454 S
C20    H64     1.081   .     S
C20    N69     1.367   .     A
C20    C496    1.417   1_455 S
C21    H65     1.081   .     S
C21    C728    1.417   1_554 S
C21    N248    1.367   .     S
C22    H66     1.081   .     S
C22    N71     1.367   .     A
C22    C375    1.417   .     S
C23    H67     1.081   .     S
C23    N72     1.367   .     A
C23    C726    1.417   1_554 S
C24    H68     1.081   .     S
C24    C373    1.417   .     S
C24    N247    1.367   .     S
C25    C44     1.407   .     A
C25    C36     1.395   .     A
C26    C43     1.407   .     A
C26    C37     1.395   .     A
C27    C34     1.395   .     A
C27    C43     1.407   .     A
C28    C45     1.445   .     S
C28    O82     1.289   .     A
C28    O81     1.290   .     A
C29    C44     1.407   .     A
C29    C35     1.395   .     A
C30    C41     1.395   .     A
C30    C46     1.407   .     A
C31    C42     1.395   .     A
C31    C45     1.407   .     A
C32    C45     1.407   .     A
C32    C38     1.395   .     A
C33    C46     1.407   .     A
C33    C40     1.395   .     A
C34    C48     1.407   .     A
C35    C47     1.407   .     A
C36    C47     1.407   .     A
C37    C48     1.407   .     A
C38    C51     1.407   .     A
C39    O87     1.290   .     A
C39    O84     1.289   .     A
C39    C44     1.445   .     S
C40    C49     1.407   .     A
C41    C49     1.407   .     A
C42    C51     1.407   .     A
C43    C50     1.445   .     S
C47    C55     1.445   .     S
C48    C54     1.445   .     S
C49    C53     1.444   .     S
C50    O85     1.290   .     A
C50    O86     1.289   .     A
C51    C52     1.444   .     S
C52    O88     1.290   .     A
C52    O76     1.289   .     A
C53    O74     1.289   .     A
C53    O75     1.290   .     A
C54    O77     1.290   .     A
C54    O80     1.289   .     A
C55    O78     1.289   .     A
C55    O79     1.290   .     A
C56    H61     1.081   .     S
C56    C812    1.417   1_554 S
C56    N158    1.367   .     S
Cu57   O170    1.958   1_455 S
Cu57   O175    1.958   1_455 S
Cu57   Cu58    2.681   .     S
Cu57   N69     2.015   .     S
Cu57   O73     1.958   .     S
Cu57   O85     1.958   .     S
Cu58   O169    1.958   1_455 S
Cu58   O172    1.958   1_455 S
Cu58   N70     2.015   .     S
Cu58   O83     1.958   .     S
Cu58   O86     1.958   .     S
Cu59   O78     1.958   .     S
Cu59   Cu60    2.681   .     S
Cu59   O75     1.958   .     S
Cu59   N71     2.015   .     S
Cu59   O256    1.958   1_545 S
Cu59   O264    1.958   1_545 S
Cu60   O79     1.958   .     S
Cu60   N72     2.015   .     S
Cu60   O74     1.958   .     S
Cu60   O252    1.958   1_545 S
Cu60   O253    1.958   1_545 S
N69    C106    1.367   1_455 S
N70    C144    1.367   1_455 S
N71    C200    1.367   1_545 S
N72    C197    1.367   1_545 S
O76    Cu236   1.958   .     S
O77    Cu236   1.958   .     S
O80    Cu235   1.958   .     S
O81    Cu146   1.958   .     S
O82    Cu145   1.958   .     S
O84    Cu146   1.958   .     S
O87    Cu145   1.958   .     S
O88    Cu235   1.958   .     S
Br89   C113    1.934   .     S
Br90   C123    1.934   .     S
Br91   C124    1.935   .     S
Br92   C125    1.935   .     S
Br93   C126    1.934   .     S
Br94   C128    1.935   .     S
Br95   C129    1.934   .     S
Br96   C130    1.935   .     S
Br97   C114    1.934   .     S
Br98   C115    1.935   .     S
Br99   C117    1.935   .     S
Br100  C118    1.935   .     S
Br101  C119    1.934   .     S
Br102  C120    1.935   .     S
Br103  C121    1.934   .     S
Br104  C122    1.934   .     S
C105   O161    1.289   .     A
C105   C134    1.445   .     S
C105   O171    1.290   .     A
C106   H150    1.081   .     S
C106   C371    1.417   1_655 S
C106   N69     1.367   1_655 S
C107   H151    1.081   .     S
C107   N158    1.367   .     A
C107   C722    1.417   1_554 S
C108   H152    1.081   .     S
C108   N157    1.367   .     A
C108   C408    1.417   .     S
C109   H153    1.081   .     S
C109   C816    1.417   1_554 S
C109   N336    1.367   .     S
C110   H154    1.081   .     S
C110   N159    1.367   .     A
C110   C463    1.417   .     S
C111   H155    1.081   .     S
C111   N160    1.367   .     A
C111   C814    1.417   1_554 S
C112   H156    1.081   .     S
C112   C461    1.417   .     S
C112   N335    1.367   .     S
C113   C132    1.407   .     A
C113   C124    1.395   .     A
C114   C131    1.407   .     A
C114   C125    1.395   .     A
C115   C122    1.395   .     A
C115   C131    1.407   .     A
C116   C133    1.445   .     S
C116   O170    1.289   .     A
C116   O169    1.290   .     A
C117   C132    1.407   .     A
C117   C123    1.395   .     A
C118   C129    1.395   .     A
C118   C134    1.407   .     A
C119   C130    1.395   .     A
C119   C133    1.407   .     A
C120   C133    1.407   .     A
C120   C126    1.395   .     A
C121   C134    1.407   .     A
C121   C128    1.395   .     A
C122   C136    1.407   .     A
C123   C135    1.407   .     A
C124   C135    1.407   .     A
C125   C136    1.407   .     A
C126   C139    1.407   .     A
C127   O175    1.290   .     A
C127   O172    1.289   .     A
C127   C132    1.445   .     S
C128   C137    1.407   .     A
C129   C137    1.407   .     A
C130   C139    1.407   .     A
C131   C138    1.445   .     S
C135   C143    1.445   .     S
C136   C142    1.445   .     S
C137   C141    1.444   .     S
C138   O173    1.290   .     A
C138   O174    1.289   .     A
C139   C140    1.444   .     S
C140   O176    1.290   .     A
C140   O164    1.289   .     A
C141   O162    1.289   .     A
C141   O163    1.290   .     A
C142   O165    1.290   .     A
C142   O168    1.289   .     A
C143   O166    1.289   .     A
C143   O167    1.290   .     A
C144   H149    1.081   .     S
C144   C724    1.417   1_654 S
C144   N70     1.367   1_655 S
Cu145  Cu146   2.681   .     S
Cu145  N157    2.015   .     S
Cu145  O161    1.958   .     S
Cu145  O173    1.958   .     S
Cu146  N158    2.015   .     S
Cu146  O171    1.958   .     S
Cu146  O174    1.958   .     S
Cu147  O166    1.958   .     S
Cu147  Cu148   2.681   .     S
Cu147  O163    1.958   .     S
Cu147  N159    2.015   .     S
Cu147  O344    1.958   1_545 S
Cu147  O352    1.958   1_545 S
Cu148  O167    1.958   .     S
Cu148  N160    2.015   .     S
Cu148  O162    1.958   .     S
Cu148  O340    1.958   1_545 S
Cu148  O341    1.958   1_545 S
N159   C288    1.367   1_545 S
N160   C285    1.367   1_545 S
O164   Cu324   1.958   .     S
O165   Cu324   1.958   .     S
O168   Cu323   1.958   .     S
O169   Cu58    1.958   1_655 S
O170   Cu57    1.958   1_655 S
O172   Cu58    1.958   1_655 S
O175   Cu57    1.958   1_655 S
O176   Cu323   1.958   .     S
Br177  C201    1.934   .     S
Br178  C211    1.934   .     S
Br179  C212    1.935   .     S
Br180  C213    1.935   .     S
Br181  C214    1.934   .     S
Br182  C216    1.935   .     S
Br183  C217    1.934   .     S
Br184  C218    1.935   .     S
Br185  C202    1.934   .     S
Br186  C203    1.935   .     S
Br187  C205    1.935   .     S
Br188  C206    1.935   .     S
Br189  C207    1.934   .     S
Br190  C208    1.935   .     S
Br191  C209    1.934   .     S
Br192  C210    1.934   .     S
C193   O249    1.289   .     A
C193   C222    1.445   .     S
C193   O259    1.290   .     A
C194   H238    1.081   .     S
C194   C635    1.417   .     S
C194   N333    1.367   .     S
C195   H239    1.081   .     S
C195   N246    1.367   .     A
C195   C986    1.417   1_454 S
C196   H240    1.081   .     S
C196   N245    1.367   .     A
C196   C672    1.417   1_455 S
C197   H241    1.081   .     S
C197   C904    1.417   1_554 S
C197   N72     1.367   1_565 S
C198   H242    1.081   .     S
C198   N247    1.367   .     A
C198   C551    1.417   .     S
C199   H243    1.081   .     S
C199   N248    1.367   .     A
C199   C902    1.417   1_554 S
C200   H244    1.081   .     S
C200   C549    1.417   .     S
C200   N71     1.367   1_565 S
C201   C220    1.407   .     A
C201   C212    1.395   .     A
C202   C219    1.407   .     A
C202   C213    1.395   .     A
C203   C210    1.395   .     A
C203   C219    1.407   .     A
C204   C221    1.445   .     S
C204   O258    1.289   .     A
C204   O257    1.290   .     A
C205   C220    1.407   .     A
C205   C211    1.395   .     A
C206   C217    1.395   .     A
C206   C222    1.407   .     A
C207   C218    1.395   .     A
C207   C221    1.407   .     A
C208   C221    1.407   .     A
C208   C214    1.395   .     A
C209   C222    1.407   .     A
C209   C216    1.395   .     A
C210   C224    1.407   .     A
C211   C223    1.407   .     A
C212   C223    1.407   .     A
C213   C224    1.407   .     A
C214   C227    1.407   .     A
C215   O263    1.290   .     A
C215   O260    1.289   .     A
C215   C220    1.445   .     S
C216   C225    1.407   .     A
C217   C225    1.407   .     A
C218   C227    1.407   .     A
C219   C226    1.445   .     S
C223   C231    1.445   .     S
C224   C230    1.445   .     S
C225   C229    1.444   .     S
C226   O261    1.290   .     A
C226   O262    1.289   .     A
C227   C228    1.444   .     S
C228   O264    1.290   .     A
C228   O252    1.289   .     A
C229   O250    1.289   .     A
C229   O251    1.290   .     A
C230   O253    1.290   .     A
C230   O256    1.289   .     A
C231   O254    1.289   .     A
C231   O255    1.290   .     A
C232   H237    1.081   .     S
C232   C988    1.417   1_554 S
C232   N334    1.367   .     S
Cu233  O346    1.958   1_455 S
Cu233  O351    1.958   1_455 S
Cu233  Cu234   2.681   .     S
Cu233  N245    2.015   .     S
Cu233  O249    1.958   .     S
Cu233  O261    1.958   .     S
Cu234  O345    1.958   1_455 S
Cu234  O348    1.958   1_455 S
Cu234  N246    2.015   .     S
Cu234  O259    1.958   .     S
Cu234  O262    1.958   .     S
Cu235  O254    1.958   .     S
Cu235  Cu236   2.681   .     S
Cu235  O251    1.958   .     S
Cu235  N247    2.015   .     S
Cu236  O255    1.958   .     S
Cu236  N248    2.015   .     S
Cu236  O250    1.958   .     S
N245   C282    1.367   1_455 S
N246   C320    1.367   1_455 S
O252   Cu60    1.958   1_565 S
O253   Cu60    1.958   1_565 S
O256   Cu59    1.958   1_565 S
O257   Cu322   1.958   .     S
O258   Cu321   1.958   .     S
O260   Cu322   1.958   .     S
O263   Cu321   1.958   .     S
O264   Cu59    1.958   1_565 S
Br265  C289    1.934   .     S
Br266  C299    1.934   .     S
Br267  C300    1.935   .     S
Br268  C301    1.935   .     S
Br269  C302    1.934   .     S
Br270  C304    1.935   .     S
Br271  C305    1.934   .     S
Br272  C306    1.935   .     S
Br273  C290    1.934   .     S
Br274  C291    1.935   .     S
Br275  C293    1.935   .     S
Br276  C294    1.935   .     S
Br277  C295    1.934   .     S
Br278  C296    1.935   .     S
Br279  C297    1.934   .     S
Br280  C298    1.934   .     S
C281   O337    1.289   .     A
C281   C310    1.445   .     S
C281   O347    1.290   .     A
C282   H326    1.081   .     S
C282   C547    1.417   1_655 S
C282   N245    1.367   1_655 S
C283   H327    1.081   .     S
C283   N334    1.367   .     A
C283   C898    1.417   1_554 S
C284   H328    1.081   .     S
C284   N333    1.367   .     A
C284   C584    1.417   .     S
C285   H329    1.081   .     S
C285   C992    1.417   1_554 S
C285   N160    1.367   1_565 S
C286   H330    1.081   .     S
C286   N335    1.367   .     A
C286   C639    1.417   .     S
C287   H331    1.081   .     S
C287   N336    1.367   .     A
C287   C990    1.417   1_554 S
C288   H332    1.081   .     S
C288   C637    1.417   .     S
C288   N159    1.367   1_565 S
C289   C308    1.407   .     A
C289   C300    1.395   .     A
C290   C307    1.407   .     A
C290   C301    1.395   .     A
C291   C298    1.395   .     A
C291   C307    1.407   .     A
C292   C309    1.445   .     S
C292   O346    1.289   .     A
C292   O345    1.290   .     A
C293   C308    1.407   .     A
C293   C299    1.395   .     A
C294   C305    1.395   .     A
C294   C310    1.407   .     A
C295   C306    1.395   .     A
C295   C309    1.407   .     A
C296   C309    1.407   .     A
C296   C302    1.395   .     A
C297   C310    1.407   .     A
C297   C304    1.395   .     A
C298   C312    1.407   .     A
C299   C311    1.407   .     A
C300   C311    1.407   .     A
C301   C312    1.407   .     A
C302   C315    1.407   .     A
C303   O351    1.290   .     A
C303   O348    1.289   .     A
C303   C308    1.445   .     S
C304   C313    1.407   .     A
C305   C313    1.407   .     A
C306   C315    1.407   .     A
C307   C314    1.445   .     S
C311   C319    1.445   .     S
C312   C318    1.445   .     S
C313   C317    1.444   .     S
C314   O349    1.290   .     A
C314   O350    1.289   .     A
C315   C316    1.444   .     S
C316   O352    1.290   .     A
C316   O340    1.289   .     A
C317   O338    1.289   .     A
C317   O339    1.290   .     A
C318   O341    1.290   .     A
C318   O344    1.289   .     A
C319   O342    1.289   .     A
C319   O343    1.290   .     A
C320   H325    1.081   .     S
C320   C900    1.417   1_654 S
C320   N246    1.367   1_655 S
Cu321  Cu322   2.681   .     S
Cu321  N333    2.015   .     S
Cu321  O337    1.958   .     S
Cu321  O349    1.958   .     S
Cu322  N334    2.015   .     S
Cu322  O347    1.958   .     S
Cu322  O350    1.958   .     S
Cu323  O342    1.958   .     S
Cu323  Cu324   2.681   .     S
Cu323  O339    1.958   .     S
Cu323  N335    2.015   .     S
Cu324  O343    1.958   .     S
Cu324  N336    2.015   .     S
Cu324  O338    1.958   .     S
O340   Cu148   1.958   1_565 S
O341   Cu148   1.958   1_565 S
O344   Cu147   1.958   1_565 S
O345   Cu234   1.958   1_655 S
O346   Cu233   1.958   1_655 S
O348   Cu234   1.958   1_655 S
O351   Cu233   1.958   1_655 S
O352   Cu147   1.958   1_565 S
Br353  C377    1.934   .     S
Br354  C387    1.934   .     S
Br355  C388    1.935   .     S
Br356  C389    1.935   .     S
Br357  C390    1.934   .     S
Br358  C392    1.935   .     S
Br359  C393    1.934   .     S
Br360  C394    1.935   .     S
Br361  C378    1.934   .     S
Br362  C379    1.935   .     S
Br363  C381    1.935   .     S
Br364  C382    1.935   .     S
Br365  C383    1.934   .     S
Br366  C384    1.935   .     S
Br367  C385    1.934   .     S
Br368  C386    1.934   .     S
C369   O425    1.289   .     A
C369   C398    1.445   .     S
C369   O435    1.290   .     A
C370   H414    1.081   .     S
C370   C811    1.417   .     S
C370   N509    1.367   .     S
C371   H415    1.081   .     S
C371   N422    1.367   .     A
C371   C106    1.417   1_455 S
C372   H416    1.081   .     S
C372   N421    1.367   .     A
C372   C848    1.417   1_455 S
C373   H417    1.081   .     S
C373   N600    1.367   .     S
C374   H418    1.081   .     S
C374   N423    1.367   .     A
C374   C727    1.417   .     S
C375   H419    1.081   .     S
C375   N424    1.367   .     A
C376   H420    1.081   .     S
C376   C725    1.417   .     S
C376   N599    1.367   .     S
C377   C396    1.407   .     A
C377   C388    1.395   .     A
C378   C395    1.407   .     A
C378   C389    1.395   .     A
C379   C386    1.395   .     A
C379   C395    1.407   .     A
C380   C397    1.445   .     S
C380   O434    1.289   .     A
C380   O433    1.290   .     A
C381   C396    1.407   .     A
C381   C387    1.395   .     A
C382   C393    1.395   .     A
C382   C398    1.407   .     A
C383   C394    1.395   .     A
C383   C397    1.407   .     A
C384   C397    1.407   .     A
C384   C390    1.395   .     A
C385   C398    1.407   .     A
C385   C392    1.395   .     A
C386   C400    1.407   .     A
C387   C399    1.407   .     A
C388   C399    1.407   .     A
C389   C400    1.407   .     A
C390   C403    1.407   .     A
C391   O439    1.290   .     A
C391   O436    1.289   .     A
C391   C396    1.445   .     S
C392   C401    1.407   .     A
C393   C401    1.407   .     A
C394   C403    1.407   .     A
C395   C402    1.445   .     S
C399   C407    1.445   .     S
C400   C406    1.445   .     S
C401   C405    1.444   .     S
C402   O437    1.290   .     A
C402   O438    1.289   .     A
C403   C404    1.444   .     S
C404   O440    1.290   .     A
C404   O428    1.289   .     A
C405   O426    1.289   .     A
C405   O427    1.290   .     A
C406   O429    1.290   .     A
C406   O432    1.289   .     A
C407   O430    1.289   .     A
C407   O431    1.290   .     A
C408   H413    1.081   .     S
C408   N510    1.367   .     S
Cu409  O522    1.958   1_455 S
Cu409  O527    1.958   1_455 S
Cu409  Cu410   2.681   .     S
Cu409  N421    2.015   .     S
Cu409  O425    1.958   .     S
Cu409  O437    1.958   .     S
Cu410  O521    1.958   1_455 S
Cu410  O524    1.958   1_455 S
Cu410  N422    2.015   .     S
Cu410  O435    1.958   .     S
Cu410  O438    1.958   .     S
Cu411  O430    1.958   .     S
Cu411  Cu412   2.681   .     S
Cu411  O427    1.958   .     S
Cu411  N423    2.015   .     S
Cu411  O608    1.958   1_545 S
Cu411  O616    1.958   1_545 S
Cu412  O431    1.958   .     S
Cu412  N424    2.015   .     S
Cu412  O426    1.958   .     S
Cu412  O604    1.958   1_545 S
Cu412  O605    1.958   1_545 S
N421   C458    1.367   1_455 S
N422   C496    1.367   1_455 S
N423   C552    1.367   1_545 S
N424   C549    1.367   1_545 S
O428   Cu588   1.958   .     S
O429   Cu588   1.958   .     S
O432   Cu587   1.958   .     S
O433   Cu498   1.958   .     S
O434   Cu497   1.958   .     S
O436   Cu498   1.958   .     S
O439   Cu497   1.958   .     S
O440   Cu587   1.958   .     S
Br441  C465    1.934   .     S
Br442  C475    1.934   .     S
Br443  C476    1.935   .     S
Br444  C477    1.935   .     S
Br445  C478    1.934   .     S
Br446  C480    1.935   .     S
Br447  C481    1.934   .     S
Br448  C482    1.935   .     S
Br449  C466    1.934   .     S
Br450  C467    1.935   .     S
Br451  C469    1.935   .     S
Br452  C470    1.935   .     S
Br453  C471    1.934   .     S
Br454  C472    1.935   .     S
Br455  C473    1.934   .     S
Br456  C474    1.934   .     S
C457   O513    1.289   .     A
C457   C486    1.445   .     S
C457   O523    1.290   .     A
C458   H502    1.081   .     S
C458   C723    1.417   1_655 S
C458   N421    1.367   1_655 S
C459   H503    1.081   .     S
C459   N510    1.367   .     A
C460   H504    1.081   .     S
C460   N509    1.367   .     A
C460   C760    1.417   .     S
C461   H505    1.081   .     S
C461   N688    1.367   .     S
C462   H506    1.081   .     S
C462   N511    1.367   .     A
C462   C815    1.417   .     S
C463   H507    1.081   .     S
C463   N512    1.367   .     A
C464   H508    1.081   .     S
C464   C813    1.417   .     S
C464   N687    1.367   .     S
C465   C484    1.407   .     A
C465   C476    1.395   .     A
C466   C483    1.407   .     A
C466   C477    1.395   .     A
C467   C474    1.395   .     A
C467   C483    1.407   .     A
C468   C485    1.445   .     S
C468   O522    1.289   .     A
C468   O521    1.290   .     A
C469   C484    1.407   .     A
C469   C475    1.395   .     A
C470   C481    1.395   .     A
C470   C486    1.407   .     A
C471   C482    1.395   .     A
C471   C485    1.407   .     A
C472   C485    1.407   .     A
C472   C478    1.395   .     A
C473   C486    1.407   .     A
C473   C480    1.395   .     A
C474   C488    1.407   .     A
C475   C487    1.407   .     A
C476   C487    1.407   .     A
C477   C488    1.407   .     A
C478   C491    1.407   .     A
C479   O527    1.290   .     A
C479   O524    1.289   .     A
C479   C484    1.445   .     S
C480   C489    1.407   .     A
C481   C489    1.407   .     A
C482   C491    1.407   .     A
C483   C490    1.445   .     S
C487   C495    1.445   .     S
C488   C494    1.445   .     S
C489   C493    1.444   .     S
C490   O525    1.290   .     A
C490   O526    1.289   .     A
C491   C492    1.444   .     S
C492   O528    1.290   .     A
C492   O516    1.289   .     A
C493   O514    1.289   .     A
C493   O515    1.290   .     A
C494   O517    1.290   .     A
C494   O520    1.289   .     A
C495   O518    1.289   .     A
C495   O519    1.290   .     A
C496   H501    1.081   .     S
C496   C20     1.417   1_655 S
C496   N422    1.367   1_655 S
Cu497  Cu498   2.681   .     S
Cu497  N509    2.015   .     S
Cu497  O513    1.958   .     S
Cu497  O525    1.958   .     S
Cu498  N510    2.015   .     S
Cu498  O523    1.958   .     S
Cu498  O526    1.958   .     S
Cu499  O518    1.958   .     S
Cu499  Cu500   2.681   .     S
Cu499  O515    1.958   .     S
Cu499  N511    2.015   .     S
Cu499  O696    1.958   1_545 S
Cu499  O704    1.958   1_545 S
Cu500  O519    1.958   .     S
Cu500  N512    2.015   .     S
Cu500  O514    1.958   .     S
Cu500  O692    1.958   1_545 S
Cu500  O693    1.958   1_545 S
N511   C640    1.367   1_545 S
N512   C637    1.367   1_545 S
O516   Cu676   1.958   .     S
O517   Cu676   1.958   .     S
O520   Cu675   1.958   .     S
O521   Cu410   1.958   1_655 S
O522   Cu409   1.958   1_655 S
O524   Cu410   1.958   1_655 S
O527   Cu409   1.958   1_655 S
O528   Cu675   1.958   .     S
Br529  C553    1.934   .     S
Br530  C563    1.934   .     S
Br531  C564    1.935   .     S
Br532  C565    1.935   .     S
Br533  C566    1.934   .     S
Br534  C568    1.935   .     S
Br535  C569    1.934   .     S
Br536  C570    1.935   .     S
Br537  C554    1.934   .     S
Br538  C555    1.935   .     S
Br539  C557    1.935   .     S
Br540  C558    1.935   .     S
Br541  C559    1.934   .     S
Br542  C560    1.935   .     S
Br543  C561    1.934   .     S
Br544  C562    1.934   .     S
C545   O601    1.289   .     A
C545   C574    1.445   .     S
C545   O611    1.290   .     A
C546   H590    1.081   .     S
C546   C987    1.417   .     S
C546   N685    1.367   .     S
C547   H591    1.081   .     S
C547   N598    1.367   .     A
C547   C282    1.417   1_455 S
C548   H592    1.081   .     S
C548   N597    1.367   .     A
C548   C1024   1.417   1_455 S
C549   H593    1.081   .     S
C549   N424    1.367   1_565 S
C550   H594    1.081   .     S
C550   N599    1.367   .     A
C550   C903    1.417   .     S
C551   H595    1.081   .     S
C551   N600    1.367   .     A
C552   H596    1.081   .     S
C552   C901    1.417   .     S
C552   N423    1.367   1_565 S
C553   C572    1.407   .     A
C553   C564    1.395   .     A
C554   C571    1.407   .     A
C554   C565    1.395   .     A
C555   C562    1.395   .     A
C555   C571    1.407   .     A
C556   C573    1.445   .     S
C556   O610    1.289   .     A
C556   O609    1.290   .     A
C557   C572    1.407   .     A
C557   C563    1.395   .     A
C558   C569    1.395   .     A
C558   C574    1.407   .     A
C559   C570    1.395   .     A
C559   C573    1.407   .     A
C560   C573    1.407   .     A
C560   C566    1.395   .     A
C561   C574    1.407   .     A
C561   C568    1.395   .     A
C562   C576    1.407   .     A
C563   C575    1.407   .     A
C564   C575    1.407   .     A
C565   C576    1.407   .     A
C566   C579    1.407   .     A
C567   O615    1.290   .     A
C567   O612    1.289   .     A
C567   C572    1.445   .     S
C568   C577    1.407   .     A
C569   C577    1.407   .     A
C570   C579    1.407   .     A
C571   C578    1.445   .     S
C575   C583    1.445   .     S
C576   C582    1.445   .     S
C577   C581    1.444   .     S
C578   O613    1.290   .     A
C578   O614    1.289   .     A
C579   C580    1.444   .     S
C580   O616    1.290   .     A
C580   O604    1.289   .     A
C581   O602    1.289   .     A
C581   O603    1.290   .     A
C582   O605    1.290   .     A
C582   O608    1.289   .     A
C583   O606    1.289   .     A
C583   O607    1.290   .     A
C584   H589    1.081   .     S
C584   N686    1.367   .     S
Cu585  O698    1.958   1_455 S
Cu585  O703    1.958   1_455 S
Cu585  Cu586   2.681   .     S
Cu585  N597    2.015   .     S
Cu585  O601    1.958   .     S
Cu585  O613    1.958   .     S
Cu586  O697    1.958   1_455 S
Cu586  O700    1.958   1_455 S
Cu586  N598    2.015   .     S
Cu586  O611    1.958   .     S
Cu586  O614    1.958   .     S
Cu587  O606    1.958   .     S
Cu587  Cu588   2.681   .     S
Cu587  O603    1.958   .     S
Cu587  N599    2.015   .     S
Cu588  O607    1.958   .     S
Cu588  N600    2.015   .     S
Cu588  O602    1.958   .     S
N597   C634    1.367   1_455 S
N598   C672    1.367   1_455 S
O604   Cu412   1.958   1_565 S
O605   Cu412   1.958   1_565 S
O608   Cu411   1.958   1_565 S
O609   Cu674   1.958   .     S
O610   Cu673   1.958   .     S
O612   Cu674   1.958   .     S
O615   Cu673   1.958   .     S
O616   Cu411   1.958   1_565 S
Br617  C641    1.934   .     S
Br618  C651    1.934   .     S
Br619  C652    1.935   .     S
Br620  C653    1.935   .     S
Br621  C654    1.934   .     S
Br622  C656    1.935   .     S
Br623  C657    1.934   .     S
Br624  C658    1.935   .     S
Br625  C642    1.934   .     S
Br626  C643    1.935   .     S
Br627  C645    1.935   .     S
Br628  C646    1.935   .     S
Br629  C647    1.934   .     S
Br630  C648    1.935   .     S
Br631  C649    1.934   .     S
Br632  C650    1.934   .     S
C633   O689    1.289   .     A
C633   C662    1.445   .     S
C633   O699    1.290   .     A
C634   H678    1.081   .     S
C634   C899    1.417   1_655 S
C634   N597    1.367   1_655 S
C635   H679    1.081   .     S
C635   N686    1.367   .     A
C636   H680    1.081   .     S
C636   N685    1.367   .     A
C636   C936    1.417   .     S
C637   H681    1.081   .     S
C637   N512    1.367   1_565 S
C638   H682    1.081   .     S
C638   N687    1.367   .     A
C638   C991    1.417   .     S
C639   H683    1.081   .     S
C639   N688    1.367   .     A
C640   H684    1.081   .     S
C640   C989    1.417   .     S
C640   N511    1.367   1_565 S
C641   C660    1.407   .     A
C641   C652    1.395   .     A
C642   C659    1.407   .     A
C642   C653    1.395   .     A
C643   C650    1.395   .     A
C643   C659    1.407   .     A
C644   C661    1.445   .     S
C644   O698    1.289   .     A
C644   O697    1.290   .     A
C645   C660    1.407   .     A
C645   C651    1.395   .     A
C646   C657    1.395   .     A
C646   C662    1.407   .     A
C647   C658    1.395   .     A
C647   C661    1.407   .     A
C648   C661    1.407   .     A
C648   C654    1.395   .     A
C649   C662    1.407   .     A
C649   C656    1.395   .     A
C650   C664    1.407   .     A
C651   C663    1.407   .     A
C652   C663    1.407   .     A
C653   C664    1.407   .     A
C654   C667    1.407   .     A
C655   O703    1.290   .     A
C655   O700    1.289   .     A
C655   C660    1.445   .     S
C656   C665    1.407   .     A
C657   C665    1.407   .     A
C658   C667    1.407   .     A
C659   C666    1.445   .     S
C663   C671    1.445   .     S
C664   C670    1.445   .     S
C665   C669    1.444   .     S
C666   O701    1.290   .     A
C666   O702    1.289   .     A
C667   C668    1.444   .     S
C668   O704    1.290   .     A
C668   O692    1.289   .     A
C669   O690    1.289   .     A
C669   O691    1.290   .     A
C670   O693    1.290   .     A
C670   O696    1.289   .     A
C671   O694    1.289   .     A
C671   O695    1.290   .     A
C672   H677    1.081   .     S
C672   C196    1.417   1_655 S
C672   N598    1.367   1_655 S
Cu673  Cu674   2.681   .     S
Cu673  N685    2.015   .     S
Cu673  O689    1.958   .     S
Cu673  O701    1.958   .     S
Cu674  N686    2.015   .     S
Cu674  O699    1.958   .     S
Cu674  O702    1.958   .     S
Cu675  O694    1.958   .     S
Cu675  Cu676   2.681   .     S
Cu675  O691    1.958   .     S
Cu675  N687    2.015   .     S
Cu676  O695    1.958   .     S
Cu676  N688    2.015   .     S
Cu676  O690    1.958   .     S
O692   Cu500   1.958   1_565 S
O693   Cu500   1.958   1_565 S
O696   Cu499   1.958   1_565 S
O697   Cu586   1.958   1_655 S
O698   Cu585   1.958   1_655 S
O700   Cu586   1.958   1_655 S
O703   Cu585   1.958   1_655 S
O704   Cu499   1.958   1_565 S
Br705  C729    1.934   .     S
Br706  C739    1.934   .     S
Br707  C740    1.935   .     S
Br708  C741    1.935   .     S
Br709  C742    1.934   .     S
Br710  C744    1.935   .     S
Br711  C745    1.934   .     S
Br712  C746    1.935   .     S
Br713  C730    1.934   .     S
Br714  C731    1.935   .     S
Br715  C733    1.935   .     S
Br716  C734    1.935   .     S
Br717  C735    1.934   .     S
Br718  C736    1.935   .     S
Br719  C737    1.934   .     S
Br720  C738    1.934   .     S
C721   O777    1.289   .     A
C721   C750    1.445   .     S
C721   O787    1.290   .     A
C722   H766    1.081   .     S
C722   C107    1.417   1_556 S
C722   N861    1.367   .     S
C723   H767    1.081   .     S
C723   N774    1.367   .     A
C723   C458    1.417   1_455 S
C724   H768    1.081   .     S
C724   N773    1.367   .     A
C724   C144    1.417   1_456 S
C725   H769    1.081   .     S
C725   N952    1.367   .     S
C726   H770    1.081   .     S
C726   N775    1.367   .     A
C726   C23     1.417   1_556 S
C727   H771    1.081   .     S
C727   N776    1.367   .     A
C728   H772    1.081   .     S
C728   C21     1.417   1_556 S
C728   N951    1.367   .     S
C729   C748    1.407   .     A
C729   C740    1.395   .     A
C730   C747    1.407   .     A
C730   C741    1.395   .     A
C731   C738    1.395   .     A
C731   C747    1.407   .     A
C732   C749    1.445   .     S
C732   O786    1.289   .     A
C732   O785    1.290   .     A
C733   C748    1.407   .     A
C733   C739    1.395   .     A
C734   C745    1.395   .     A
C734   C750    1.407   .     A
C735   C746    1.395   .     A
C735   C749    1.407   .     A
C736   C749    1.407   .     A
C736   C742    1.395   .     A
C737   C750    1.407   .     A
C737   C744    1.395   .     A
C738   C752    1.407   .     A
C739   C751    1.407   .     A
C740   C751    1.407   .     A
C741   C752    1.407   .     A
C742   C755    1.407   .     A
C743   O791    1.290   .     A
C743   O788    1.289   .     A
C743   C748    1.445   .     S
C744   C753    1.407   .     A
C745   C753    1.407   .     A
C746   C755    1.407   .     A
C747   C754    1.445   .     S
C751   C759    1.445   .     S
C752   C758    1.445   .     S
C753   C757    1.444   .     S
C754   O789    1.290   .     A
C754   O790    1.289   .     A
C755   C756    1.444   .     S
C756   O792    1.290   .     A
C756   O780    1.289   .     A
C757   O778    1.289   .     A
C757   O779    1.290   .     A
C758   O781    1.290   .     A
C758   O784    1.289   .     A
C759   O782    1.289   .     A
C759   O783    1.290   .     A
C760   H765    1.081   .     S
C760   N862    1.367   .     S
Cu761  O874    1.958   1_455 S
Cu761  O879    1.958   1_455 S
Cu761  Cu762   2.681   .     S
Cu761  N773    2.015   .     S
Cu761  O777    1.958   .     S
Cu761  O789    1.958   .     S
Cu762  O873    1.958   1_455 S
Cu762  O876    1.958   1_455 S
Cu762  N774    2.015   .     S
Cu762  O787    1.958   .     S
Cu762  O790    1.958   .     S
Cu763  O782    1.958   .     S
Cu763  Cu764   2.681   .     S
Cu763  O779    1.958   .     S
Cu763  N775    2.015   .     S
Cu763  O960    1.958   1_545 S
Cu763  O968    1.958   1_545 S
Cu764  O783    1.958   .     S
Cu764  N776    2.015   .     S
Cu764  O778    1.958   .     S
Cu764  O956    1.958   1_545 S
Cu764  O957    1.958   1_545 S
N773   C810    1.367   1_455 S
N774   C848    1.367   1_455 S
N775   C904    1.367   1_545 S
N776   C901    1.367   1_545 S
O780   Cu940   1.958   .     S
O781   Cu940   1.958   .     S
O784   Cu939   1.958   .     S
O785   Cu850   1.958   .     S
O786   Cu849   1.958   .     S
O788   Cu850   1.958   .     S
O791   Cu849   1.958   .     S
O792   Cu939   1.958   .     S
Br793  C817    1.934   .     S
Br794  C827    1.934   .     S
Br795  C828    1.935   .     S
Br796  C829    1.935   .     S
Br797  C830    1.934   .     S
Br798  C832    1.935   .     S
Br799  C833    1.934   .     S
Br800  C834    1.935   .     S
Br801  C818    1.934   .     S
Br802  C819    1.935   .     S
Br803  C821    1.935   .     S
Br804  C822    1.935   .     S
Br805  C823    1.934   .     S
Br806  C824    1.935   .     S
Br807  C825    1.934   .     S
Br808  C826    1.934   .     S
C809   O865    1.289   .     A
C809   C838    1.445   .     S
C809   O875    1.290   .     A
C810   H854    1.081   .     S
C810   C19     1.417   1_656 S
C810   N773    1.367   1_655 S
C811   H855    1.081   .     S
C811   N862    1.367   .     A
C812   H856    1.081   .     S
C812   N861    1.367   .     A
C812   C56     1.417   1_556 S
C813   H857    1.081   .     S
C813   N1040   1.367   .     S
C814   H858    1.081   .     S
C814   N863    1.367   .     A
C814   C111    1.417   1_556 S
C815   H859    1.081   .     S
C815   N864    1.367   .     A
C816   H860    1.081   .     S
C816   C109    1.417   1_556 S
C816   N1039   1.367   .     S
C817   C836    1.407   .     A
C817   C828    1.395   .     A
C818   C835    1.407   .     A
C818   C829    1.395   .     A
C819   C826    1.395   .     A
C819   C835    1.407   .     A
C820   C837    1.445   .     S
C820   O874    1.289   .     A
C820   O873    1.290   .     A
C821   C836    1.407   .     A
C821   C827    1.395   .     A
C822   C833    1.395   .     A
C822   C838    1.407   .     A
C823   C834    1.395   .     A
C823   C837    1.407   .     A
C824   C837    1.407   .     A
C824   C830    1.395   .     A
C825   C838    1.407   .     A
C825   C832    1.395   .     A
C826   C840    1.407   .     A
C827   C839    1.407   .     A
C828   C839    1.407   .     A
C829   C840    1.407   .     A
C830   C843    1.407   .     A
C831   O879    1.290   .     A
C831   O876    1.289   .     A
C831   C836    1.445   .     S
C832   C841    1.407   .     A
C833   C841    1.407   .     A
C834   C843    1.407   .     A
C835   C842    1.445   .     S
C839   C847    1.445   .     S
C840   C846    1.445   .     S
C841   C845    1.444   .     S
C842   O877    1.290   .     A
C842   O878    1.289   .     A
C843   C844    1.444   .     S
C844   O880    1.290   .     A
C844   O868    1.289   .     A
C845   O866    1.289   .     A
C845   O867    1.290   .     A
C846   O869    1.290   .     A
C846   O872    1.289   .     A
C847   O870    1.289   .     A
C847   O871    1.290   .     A
C848   H853    1.081   .     S
C848   C372    1.417   1_655 S
C848   N774    1.367   1_655 S
Cu849  Cu850   2.681   .     S
Cu849  N861    2.015   .     S
Cu849  O865    1.958   .     S
Cu849  O877    1.958   .     S
Cu850  N862    2.015   .     S
Cu850  O875    1.958   .     S
Cu850  O878    1.958   .     S
Cu851  O870    1.958   .     S
Cu851  Cu852   2.681   .     S
Cu851  O867    1.958   .     S
Cu851  N863    2.015   .     S
Cu851  O1048   1.958   1_545 S
Cu851  O1056   1.958   1_545 S
Cu852  O871    1.958   .     S
Cu852  N864    2.015   .     S
Cu852  O866    1.958   .     S
Cu852  O1044   1.958   1_545 S
Cu852  O1045   1.958   1_545 S
N863   C992    1.367   1_545 S
N864   C989    1.367   1_545 S
O868   Cu1028  1.958   .     S
O869   Cu1028  1.958   .     S
O872   Cu1027  1.958   .     S
O873   Cu762   1.958   1_655 S
O874   Cu761   1.958   1_655 S
O876   Cu762   1.958   1_655 S
O879   Cu761   1.958   1_655 S
O880   Cu1027  1.958   .     S
Br881  C905    1.934   .     S
Br882  C915    1.934   .     S
Br883  C916    1.935   .     S
Br884  C917    1.935   .     S
Br885  C918    1.934   .     S
Br886  C920    1.935   .     S
Br887  C921    1.934   .     S
Br888  C922    1.935   .     S
Br889  C906    1.934   .     S
Br890  C907    1.935   .     S
Br891  C909    1.935   .     S
Br892  C910    1.935   .     S
Br893  C911    1.934   .     S
Br894  C912    1.935   .     S
Br895  C913    1.934   .     S
Br896  C914    1.934   .     S
C897   O953    1.289   .     A
C897   C926    1.445   .     S
C897   O963    1.290   .     A
C898   H942    1.081   .     S
C898   C283    1.417   1_556 S
C898   N1037   1.367   .     S
C899   H943    1.081   .     S
C899   N950    1.367   .     A
C899   C634    1.417   1_455 S
C900   H944    1.081   .     S
C900   N949    1.367   .     A
C900   C320    1.417   1_456 S
C901   H945    1.081   .     S
C901   N776    1.367   1_565 S
C902   H946    1.081   .     S
C902   N951    1.367   .     A
C902   C199    1.417   1_556 S
C903   H947    1.081   .     S
C903   N952    1.367   .     A
C904   H948    1.081   .     S
C904   C197    1.417   1_556 S
C904   N775    1.367   1_565 S
C905   C924    1.407   .     A
C905   C916    1.395   .     A
C906   C923    1.407   .     A
C906   C917    1.395   .     A
C907   C914    1.395   .     A
C907   C923    1.407   .     A
C908   C925    1.445   .     S
C908   O962    1.289   .     A
C908   O961    1.290   .     A
C909   C924    1.407   .     A
C909   C915    1.395   .     A
C910   C921    1.395   .     A
C910   C926    1.407   .     A
C911   C922    1.395   .     A
C911   C925    1.407   .     A
C912   C925    1.407   .     A
C912   C918    1.395   .     A
C913   C926    1.407   .     A
C913   C920    1.395   .     A
C914   C928    1.407   .     A
C915   C927    1.407   .     A
C916   C927    1.407   .     A
C917   C928    1.407   .     A
C918   C931    1.407   .     A
C919   O967    1.290   .     A
C919   O964    1.289   .     A
C919   C924    1.445   .     S
C920   C929    1.407   .     A
C921   C929    1.407   .     A
C922   C931    1.407   .     A
C923   C930    1.445   .     S
C927   C935    1.445   .     S
C928   C934    1.445   .     S
C929   C933    1.444   .     S
C930   O965    1.290   .     A
C930   O966    1.289   .     A
C931   C932    1.444   .     S
C932   O968    1.290   .     A
C932   O956    1.289   .     A
C933   O954    1.289   .     A
C933   O955    1.290   .     A
C934   O957    1.290   .     A
C934   O960    1.289   .     A
C935   O958    1.289   .     A
C935   O959    1.290   .     A
C936   H941    1.081   .     S
C936   N1038   1.367   .     S
Cu937  O1050   1.958   1_455 S
Cu937  O1055   1.958   1_455 S
Cu937  Cu938   2.681   .     S
Cu937  N949    2.015   .     S
Cu937  O953    1.958   .     S
Cu937  O965    1.958   .     S
Cu938  O1049   1.958   1_455 S
Cu938  O1052   1.958   1_455 S
Cu938  N950    2.015   .     S
Cu938  O963    1.958   .     S
Cu938  O966    1.958   .     S
Cu939  O958    1.958   .     S
Cu939  Cu940   2.681   .     S
Cu939  O955    1.958   .     S
Cu939  N951    2.015   .     S
Cu940  O959    1.958   .     S
Cu940  N952    2.015   .     S
Cu940  O954    1.958   .     S
N949   C986    1.367   1_455 S
N950   C1024   1.367   1_455 S
O956   Cu764   1.958   1_565 S
O957   Cu764   1.958   1_565 S
O960   Cu763   1.958   1_565 S
O961   Cu1026  1.958   .     S
O962   Cu1025  1.958   .     S
O964   Cu1026  1.958   .     S
O967   Cu1025  1.958   .     S
O968   Cu763   1.958   1_565 S
Br969  C993    1.934   .     S
Br970  C1003   1.934   .     S
Br971  C1004   1.935   .     S
Br972  C1005   1.935   .     S
Br973  C1006   1.934   .     S
Br974  C1008   1.935   .     S
Br975  C1009   1.934   .     S
Br976  C1010   1.935   .     S
Br977  C994    1.934   .     S
Br978  C995    1.935   .     S
Br979  C997    1.935   .     S
Br980  C998    1.935   .     S
Br981  C999    1.934   .     S
Br982  C1000   1.935   .     S
Br983  C1001   1.934   .     S
Br984  C1002   1.934   .     S
C985   O1041   1.289   .     A
C985   C1014   1.445   .     S
C985   O1051   1.290   .     A
C986   H1030   1.081   .     S
C986   C195    1.417   1_656 S
C986   N949    1.367   1_655 S
C987   H1031   1.081   .     S
C987   N1038   1.367   .     A
C988   H1032   1.081   .     S
C988   N1037   1.367   .     A
C988   C232    1.417   1_556 S
C989   H1033   1.081   .     S
C989   N864    1.367   1_565 S
C990   H1034   1.081   .     S
C990   N1039   1.367   .     A
C990   C287    1.417   1_556 S
C991   H1035   1.081   .     S
C991   N1040   1.367   .     A
C992   H1036   1.081   .     S
C992   C285    1.417   1_556 S
C992   N863    1.367   1_565 S
C993   C1012   1.407   .     A
C993   C1004   1.395   .     A
C994   C1011   1.407   .     A
C994   C1005   1.395   .     A
C995   C1002   1.395   .     A
C995   C1011   1.407   .     A
C996   C1013   1.445   .     S
C996   O1050   1.289   .     A
C996   O1049   1.290   .     A
C997   C1012   1.407   .     A
C997   C1003   1.395   .     A
C998   C1009   1.395   .     A
C998   C1014   1.407   .     A
C999   C1010   1.395   .     A
C999   C1013   1.407   .     A
C1000  C1013   1.407   .     A
C1000  C1006   1.395   .     A
C1001  C1014   1.407   .     A
C1001  C1008   1.395   .     A
C1002  C1016   1.407   .     A
C1003  C1015   1.407   .     A
C1004  C1015   1.407   .     A
C1005  C1016   1.407   .     A
C1006  C1019   1.407   .     A
C1007  O1055   1.290   .     A
C1007  O1052   1.289   .     A
C1007  C1012   1.445   .     S
C1008  C1017   1.407   .     A
C1009  C1017   1.407   .     A
C1010  C1019   1.407   .     A
C1011  C1018   1.445   .     S
C1015  C1023   1.445   .     S
C1016  C1022   1.445   .     S
C1017  C1021   1.444   .     S
C1018  O1053   1.290   .     A
C1018  O1054   1.289   .     A
C1019  C1020   1.444   .     S
C1020  O1056   1.290   .     A
C1020  O1044   1.289   .     A
C1021  O1042   1.289   .     A
C1021  O1043   1.290   .     A
C1022  O1045   1.290   .     A
C1022  O1048   1.289   .     A
C1023  O1046   1.289   .     A
C1023  O1047   1.290   .     A
C1024  H1029   1.081   .     S
C1024  C548    1.417   1_655 S
C1024  N950    1.367   1_655 S
Cu1025 Cu1026  2.681   .     S
Cu1025 N1037   2.015   .     S
Cu1025 O1041   1.958   .     S
Cu1025 O1053   1.958   .     S
Cu1026 N1038   2.015   .     S
Cu1026 O1051   1.958   .     S
Cu1026 O1054   1.958   .     S
Cu1027 O1046   1.958   .     S
Cu1027 Cu1028  2.681   .     S
Cu1027 O1043   1.958   .     S
Cu1027 N1039   2.015   .     S
Cu1028 O1047   1.958   .     S
Cu1028 N1040   2.015   .     S
Cu1028 O1042   1.958   .     S
O1044  Cu852   1.958   1_565 S
O1045  Cu852   1.958   1_565 S
O1048  Cu851   1.958   1_565 S
O1049  Cu938   1.958   1_655 S
O1050  Cu937   1.958   1_655 S
O1052  Cu938   1.958   1_655 S
O1055  Cu937   1.958   1_655 S
O1056  Cu851   1.958   1_565 S
