data_str_m2_o1_o17_pcu_sym.207
_audit_creation_date              2020-01-03
_audit_creation_method            'Materials Studio'
_symmetry_space_group_name_H-M    'P1'
_symmetry_Int_Tables_number       1
_symmetry_cell_setting            triclinic
loop_
_symmetry_equiv_pos_as_xyz
  x,y,z
_cell_length_a                    32.5043
_cell_length_b                    28.5239
_cell_length_c                    30.1754
_cell_angle_alpha                 89.9986
_cell_angle_beta                  90.1533
_cell_angle_gamma                 90.0052
loop_
_atom_site_label
_atom_site_type_symbol
_atom_site_fract_x
_atom_site_fract_y
_atom_site_fract_z
_atom_site_U_iso_or_equiv
_atom_site_adp_type
_atom_site_occupancy
C1     C     0.08734   0.16667   0.24996   0.00000  Uiso   1.00
C2     C     0.24599   0.16667   0.25004   0.00000  Uiso   1.00
C3     C     0.14486   0.24962   0.02212   0.00000  Uiso   1.00
C4     C     0.18846   0.08371   0.47788   0.00000  Uiso   1.00
C5     C     0.02128   0.12406   0.25004   0.00000  Uiso   1.00
C6     C     0.31206   0.20927   0.24996   0.00000  Uiso   1.00
C7     C     0.31205   0.12406   0.25010   0.00000  Uiso   1.00
C8     C     0.02129   0.20927   0.24990   0.00000  Uiso   1.00
C9     C     0.29060   0.16667   0.25004   0.00000  Uiso   1.00
C10    C     0.04273   0.16667   0.24996   0.00000  Uiso   1.00
C11    C     0.14155   0.02482   0.22193   0.00000  Uiso   1.00
C12    C     0.19178   0.30852   0.27807   0.00000  Uiso   1.00
C13    C     0.19178   0.02482   0.27807   0.00000  Uiso   1.00
C14    C     0.14155   0.30851   0.22193   0.00000  Uiso   1.00
C15    C     0.16650   0.16667   0.16428   0.00000  Uiso   1.00
C16    C     0.16684   0.16666   0.33572   0.00000  Uiso   1.00
C17    C     0.17637   0.12528   0.40720   0.00000  Uiso   1.00
C18    C     0.15696   0.20805   0.09280   0.00000  Uiso   1.00
C19    C     0.16744   0.16665   0.38412   0.00000  Uiso   1.00
C20    C     0.16588   0.16669   0.11588   0.00000  Uiso   1.00
C21    C     0.15897   0.20794   0.40721   0.00000  Uiso   1.00
C22    C     0.17435   0.12539   0.09279   0.00000  Uiso   1.00
C23    C     0.15820   0.20797   0.45329   0.00000  Uiso   1.00
C24    C     0.17512   0.12536   0.04671   0.00000  Uiso   1.00
C25    C     0.16739   0.16649   0.47675   0.00000  Uiso   1.00
C26    C     0.16593   0.16685   0.02325   0.00000  Uiso   1.00
C27    C     0.17793   0.12476   0.45366   0.00000  Uiso   1.00
C28    C     0.15539   0.20857   0.04634   0.00000  Uiso   1.00
C29    C     0.14743   0.24889   0.47592   0.00000  Uiso   1.00
C30    C     0.18589   0.08445   0.02408   0.00000  Uiso   1.00
Cu31   Cu    0.16667   0.21355   0.25000   0.00000  Uiso   1.00
Cu32   Cu    0.16667   0.11978   0.25000   0.00000  Uiso   1.00
H33    H     0.13963   0.28020   0.45726   0.00000  Uiso   1.00
H34    H     0.19368   0.05313   0.04274   0.00000  Uiso   1.00
H35    H     0.03729   0.09075   0.25008   0.00000  Uiso   1.00
H36    H     0.29605   0.24258   0.24992   0.00000  Uiso   1.00
H37    H     0.29604   0.09075   0.25018   0.00000  Uiso   1.00
H38    H     0.03730   0.24258   0.24982   0.00000  Uiso   1.00
H39    H     0.12143   0.04355   0.19947   0.00000  Uiso   1.00
H40    H     0.21190   0.28979   0.30053   0.00000  Uiso   1.00
H41    H     0.21189   0.04356   0.30055   0.00000  Uiso   1.00
H42    H     0.12144   0.28977   0.19945   0.00000  Uiso   1.00
N43    N     0.16667   0.28402   0.25000   0.00000  Uiso   1.00
N44    N     0.16667   0.04931   0.25000   0.00000  Uiso   1.00
O45    O     0.10655   0.20625   0.25000   0.00000  Uiso   1.00
O46    O     0.22679   0.12709   0.25001   0.00000  Uiso   1.00
O47    O     0.22679   0.20625   0.25001   0.00000  Uiso   1.00
O48    O     0.10655   0.12709   0.25000   0.00000  Uiso   1.00
O49    O     0.16666   0.20627   0.18513   0.00000  Uiso   1.00
O50    O     0.16668   0.12707   0.31487   0.00000  Uiso   1.00
O51    O     0.16668   0.20627   0.31487   0.00000  Uiso   1.00
O52    O     0.16666   0.12707   0.18513   0.00000  Uiso   1.00
H53    H     0.18141   0.09366   0.38839   0.00000  Uiso   1.00
H54    H     0.15192   0.23968   0.11161   0.00000  Uiso   1.00
H55    H     0.15185   0.23990   0.38928   0.00000  Uiso   1.00
H56    H     0.18147   0.09343   0.11072   0.00000  Uiso   1.00
C57    C     0.12970   0.29376   0.04251   0.00000  Uiso   1.00
H58    H     0.13516   0.32691   0.02589   0.00000  Uiso   1.00
O59    O     0.10864   0.29362   0.07593   0.00000  Uiso   1.00
C60    C     0.20362   0.03957   0.45749   0.00000  Uiso   1.00
H61    H     0.19818   0.00642   0.47412   0.00000  Uiso   1.00
O62    O     0.22467   0.03971   0.42407   0.00000  Uiso   1.00
C63    C     0.42068   0.16667   0.24996   0.00000  Uiso   1.00
C64    C     0.57932   0.16667   0.25004   0.00000  Uiso   1.00
C65    C     0.47820   0.24962   0.02212   0.00000  Uiso   1.00
C66    C     0.52179   0.08371   0.47788   0.00000  Uiso   1.00
C67    C     0.35461   0.12406   0.25004   0.00000  Uiso   1.00
C68    C     0.64539   0.20927   0.24996   0.00000  Uiso   1.00
C69    C     0.64538   0.12406   0.25010   0.00000  Uiso   1.00
C70    C     0.35462   0.20927   0.24990   0.00000  Uiso   1.00
C71    C     0.62393   0.16667   0.25004   0.00000  Uiso   1.00
C72    C     0.37607   0.16667   0.24996   0.00000  Uiso   1.00
C73    C     0.47488   0.02482   0.22193   0.00000  Uiso   1.00
C74    C     0.52512   0.30852   0.27807   0.00000  Uiso   1.00
C75    C     0.52512   0.02482   0.27807   0.00000  Uiso   1.00
C76    C     0.47489   0.30851   0.22193   0.00000  Uiso   1.00
C77    C     0.49983   0.16667   0.16428   0.00000  Uiso   1.00
C78    C     0.50017   0.16666   0.33572   0.00000  Uiso   1.00
C79    C     0.50970   0.12528   0.40720   0.00000  Uiso   1.00
C80    C     0.49029   0.20805   0.09280   0.00000  Uiso   1.00
C81    C     0.50078   0.16665   0.38412   0.00000  Uiso   1.00
C82    C     0.49922   0.16669   0.11588   0.00000  Uiso   1.00
C83    C     0.49230   0.20794   0.40721   0.00000  Uiso   1.00
C84    C     0.50769   0.12539   0.09279   0.00000  Uiso   1.00
C85    C     0.49153   0.20797   0.45329   0.00000  Uiso   1.00
C86    C     0.50845   0.12536   0.04671   0.00000  Uiso   1.00
C87    C     0.50072   0.16649   0.47675   0.00000  Uiso   1.00
C88    C     0.49927   0.16685   0.02325   0.00000  Uiso   1.00
C89    C     0.51126   0.12476   0.45366   0.00000  Uiso   1.00
C90    C     0.48873   0.20857   0.04634   0.00000  Uiso   1.00
C91    C     0.48076   0.24889   0.47592   0.00000  Uiso   1.00
C92    C     0.51922   0.08445   0.02408   0.00000  Uiso   1.00
Cu93   Cu    0.50000   0.21355   0.25000   0.00000  Uiso   1.00
Cu94   Cu    0.50000   0.11978   0.25000   0.00000  Uiso   1.00
H95    H     0.47297   0.28020   0.45726   0.00000  Uiso   1.00
H96    H     0.52701   0.05313   0.04274   0.00000  Uiso   1.00
H97    H     0.37062   0.09075   0.25008   0.00000  Uiso   1.00
H98    H     0.62938   0.24258   0.24992   0.00000  Uiso   1.00
H99    H     0.62937   0.09075   0.25018   0.00000  Uiso   1.00
H100   H     0.37063   0.24258   0.24982   0.00000  Uiso   1.00
H101   H     0.45477   0.04355   0.19947   0.00000  Uiso   1.00
H102   H     0.54524   0.28979   0.30053   0.00000  Uiso   1.00
H103   H     0.54522   0.04356   0.30055   0.00000  Uiso   1.00
H104   H     0.45478   0.28977   0.19945   0.00000  Uiso   1.00
N105   N     0.50000   0.28402   0.25000   0.00000  Uiso   1.00
N106   N     0.50000   0.04931   0.25000   0.00000  Uiso   1.00
O107   O     0.43988   0.20625   0.25000   0.00000  Uiso   1.00
O108   O     0.56012   0.12709   0.25001   0.00000  Uiso   1.00
O109   O     0.56012   0.20625   0.25001   0.00000  Uiso   1.00
O110   O     0.43988   0.12709   0.25000   0.00000  Uiso   1.00
O111   O     0.49999   0.20627   0.18513   0.00000  Uiso   1.00
O112   O     0.50001   0.12707   0.31487   0.00000  Uiso   1.00
O113   O     0.50001   0.20627   0.31487   0.00000  Uiso   1.00
O114   O     0.49999   0.12707   0.18513   0.00000  Uiso   1.00
H115   H     0.51475   0.09366   0.38839   0.00000  Uiso   1.00
H116   H     0.48525   0.23968   0.11161   0.00000  Uiso   1.00
H117   H     0.48519   0.23990   0.38928   0.00000  Uiso   1.00
H118   H     0.51480   0.09343   0.11072   0.00000  Uiso   1.00
C119   C     0.46303   0.29376   0.04251   0.00000  Uiso   1.00
H120   H     0.46849   0.32691   0.02589   0.00000  Uiso   1.00
O121   O     0.44198   0.29362   0.07593   0.00000  Uiso   1.00
C122   C     0.53696   0.03957   0.45749   0.00000  Uiso   1.00
H123   H     0.53151   0.00642   0.47412   0.00000  Uiso   1.00
O124   O     0.55801   0.03971   0.42407   0.00000  Uiso   1.00
C125   C     0.75401   0.16667   0.24996   0.00000  Uiso   1.00
C126   C     0.91266   0.16667   0.25004   0.00000  Uiso   1.00
C127   C     0.81153   0.24962   0.02212   0.00000  Uiso   1.00
C128   C     0.85512   0.08371   0.47788   0.00000  Uiso   1.00
C129   C     0.68794   0.12406   0.25004   0.00000  Uiso   1.00
C130   C     0.97872   0.20927   0.24996   0.00000  Uiso   1.00
C131   C     0.97871   0.12406   0.25010   0.00000  Uiso   1.00
C132   C     0.68795   0.20927   0.24990   0.00000  Uiso   1.00
C133   C     0.95727   0.16667   0.25004   0.00000  Uiso   1.00
C134   C     0.70940   0.16667   0.24996   0.00000  Uiso   1.00
C135   C     0.80822   0.02482   0.22193   0.00000  Uiso   1.00
C136   C     0.85845   0.30852   0.27807   0.00000  Uiso   1.00
C137   C     0.85845   0.02482   0.27807   0.00000  Uiso   1.00
C138   C     0.80822   0.30851   0.22193   0.00000  Uiso   1.00
C139   C     0.83316   0.16667   0.16428   0.00000  Uiso   1.00
C140   C     0.83350   0.16666   0.33572   0.00000  Uiso   1.00
C141   C     0.84304   0.12528   0.40720   0.00000  Uiso   1.00
C142   C     0.82362   0.20805   0.09280   0.00000  Uiso   1.00
C143   C     0.83411   0.16665   0.38412   0.00000  Uiso   1.00
C144   C     0.83255   0.16669   0.11588   0.00000  Uiso   1.00
C145   C     0.82564   0.20794   0.40721   0.00000  Uiso   1.00
C146   C     0.84102   0.12539   0.09279   0.00000  Uiso   1.00
C147   C     0.82486   0.20797   0.45329   0.00000  Uiso   1.00
C148   C     0.84179   0.12536   0.04671   0.00000  Uiso   1.00
C149   C     0.83405   0.16649   0.47675   0.00000  Uiso   1.00
C150   C     0.83260   0.16685   0.02325   0.00000  Uiso   1.00
C151   C     0.84460   0.12476   0.45366   0.00000  Uiso   1.00
C152   C     0.82206   0.20857   0.04634   0.00000  Uiso   1.00
C153   C     0.81409   0.24889   0.47592   0.00000  Uiso   1.00
C154   C     0.85256   0.08445   0.02408   0.00000  Uiso   1.00
Cu155  Cu    0.83333   0.21355   0.25000   0.00000  Uiso   1.00
Cu156  Cu    0.83333   0.11978   0.25000   0.00000  Uiso   1.00
H157   H     0.80630   0.28020   0.45726   0.00000  Uiso   1.00
H158   H     0.86034   0.05313   0.04274   0.00000  Uiso   1.00
H159   H     0.70395   0.09075   0.25008   0.00000  Uiso   1.00
H160   H     0.96272   0.24258   0.24992   0.00000  Uiso   1.00
H161   H     0.96270   0.09075   0.25018   0.00000  Uiso   1.00
H162   H     0.70397   0.24258   0.24982   0.00000  Uiso   1.00
H163   H     0.78810   0.04355   0.19947   0.00000  Uiso   1.00
H164   H     0.87857   0.28979   0.30053   0.00000  Uiso   1.00
H165   H     0.87856   0.04356   0.30055   0.00000  Uiso   1.00
H166   H     0.78811   0.28977   0.19945   0.00000  Uiso   1.00
N167   N     0.83333   0.28402   0.25000   0.00000  Uiso   1.00
N168   N     0.83333   0.04931   0.25000   0.00000  Uiso   1.00
O169   O     0.77321   0.20625   0.25000   0.00000  Uiso   1.00
O170   O     0.89345   0.12709   0.25001   0.00000  Uiso   1.00
O171   O     0.89345   0.20625   0.25001   0.00000  Uiso   1.00
O172   O     0.77321   0.12709   0.25000   0.00000  Uiso   1.00
O173   O     0.83332   0.20627   0.18513   0.00000  Uiso   1.00
O174   O     0.83334   0.12707   0.31487   0.00000  Uiso   1.00
O175   O     0.83334   0.20627   0.31487   0.00000  Uiso   1.00
O176   O     0.83332   0.12707   0.18513   0.00000  Uiso   1.00
H177   H     0.84808   0.09366   0.38839   0.00000  Uiso   1.00
H178   H     0.81859   0.23968   0.11161   0.00000  Uiso   1.00
H179   H     0.81852   0.23990   0.38928   0.00000  Uiso   1.00
H180   H     0.84813   0.09343   0.11072   0.00000  Uiso   1.00
C181   C     0.79637   0.29376   0.04251   0.00000  Uiso   1.00
H182   H     0.80182   0.32691   0.02589   0.00000  Uiso   1.00
O183   O     0.77531   0.29362   0.07593   0.00000  Uiso   1.00
C184   C     0.87029   0.03957   0.45749   0.00000  Uiso   1.00
H185   H     0.86484   0.00642   0.47412   0.00000  Uiso   1.00
O186   O     0.89134   0.03971   0.42407   0.00000  Uiso   1.00
C187   C     0.08734   0.50000   0.24996   0.00000  Uiso   1.00
C188   C     0.24599   0.50000   0.25004   0.00000  Uiso   1.00
C189   C     0.14486   0.58295   0.02212   0.00000  Uiso   1.00
C190   C     0.18846   0.41704   0.47788   0.00000  Uiso   1.00
C191   C     0.02128   0.45739   0.25004   0.00000  Uiso   1.00
C192   C     0.31206   0.54261   0.24996   0.00000  Uiso   1.00
C193   C     0.31205   0.45740   0.25010   0.00000  Uiso   1.00
C194   C     0.02129   0.54260   0.24990   0.00000  Uiso   1.00
C195   C     0.29060   0.50000   0.25004   0.00000  Uiso   1.00
C196   C     0.04273   0.50000   0.24996   0.00000  Uiso   1.00
C197   C     0.14155   0.35815   0.22193   0.00000  Uiso   1.00
C198   C     0.19178   0.64185   0.27807   0.00000  Uiso   1.00
C199   C     0.19178   0.35816   0.27807   0.00000  Uiso   1.00
C200   C     0.14155   0.64184   0.22193   0.00000  Uiso   1.00
C201   C     0.16650   0.50001   0.16428   0.00000  Uiso   1.00
C202   C     0.16684   0.49999   0.33572   0.00000  Uiso   1.00
C203   C     0.17637   0.45862   0.40720   0.00000  Uiso   1.00
C204   C     0.15696   0.54138   0.09280   0.00000  Uiso   1.00
C205   C     0.16744   0.49998   0.38412   0.00000  Uiso   1.00
C206   C     0.16588   0.50002   0.11588   0.00000  Uiso   1.00
C207   C     0.15897   0.54128   0.40721   0.00000  Uiso   1.00
C208   C     0.17435   0.45872   0.09279   0.00000  Uiso   1.00
C209   C     0.15820   0.54131   0.45329   0.00000  Uiso   1.00
C210   C     0.17512   0.45869   0.04671   0.00000  Uiso   1.00
C211   C     0.16739   0.49982   0.47675   0.00000  Uiso   1.00
C212   C     0.16593   0.50018   0.02325   0.00000  Uiso   1.00
C213   C     0.17793   0.45809   0.45366   0.00000  Uiso   1.00
C214   C     0.15539   0.54191   0.04634   0.00000  Uiso   1.00
C215   C     0.14743   0.58222   0.47592   0.00000  Uiso   1.00
C216   C     0.18589   0.41778   0.02408   0.00000  Uiso   1.00
Cu217  Cu    0.16667   0.54689   0.25000   0.00000  Uiso   1.00
Cu218  Cu    0.16667   0.45311   0.25000   0.00000  Uiso   1.00
H219   H     0.13963   0.61353   0.45726   0.00000  Uiso   1.00
H220   H     0.19368   0.38646   0.04274   0.00000  Uiso   1.00
H221   H     0.03729   0.42409   0.25008   0.00000  Uiso   1.00
H222   H     0.29605   0.57591   0.24992   0.00000  Uiso   1.00
H223   H     0.29604   0.42409   0.25018   0.00000  Uiso   1.00
H224   H     0.03730   0.57591   0.24982   0.00000  Uiso   1.00
H225   H     0.12143   0.37688   0.19947   0.00000  Uiso   1.00
H226   H     0.21190   0.62312   0.30053   0.00000  Uiso   1.00
H227   H     0.21189   0.37689   0.30055   0.00000  Uiso   1.00
H228   H     0.12144   0.62311   0.19945   0.00000  Uiso   1.00
N229   N     0.16667   0.61736   0.25000   0.00000  Uiso   1.00
N230   N     0.16667   0.38264   0.25000   0.00000  Uiso   1.00
O231   O     0.10655   0.53958   0.25000   0.00000  Uiso   1.00
O232   O     0.22679   0.46042   0.25001   0.00000  Uiso   1.00
O233   O     0.22679   0.53958   0.25001   0.00000  Uiso   1.00
O234   O     0.10655   0.46042   0.25000   0.00000  Uiso   1.00
O235   O     0.16666   0.53960   0.18513   0.00000  Uiso   1.00
O236   O     0.16668   0.46040   0.31487   0.00000  Uiso   1.00
O237   O     0.16668   0.53960   0.31487   0.00000  Uiso   1.00
O238   O     0.16666   0.46040   0.18513   0.00000  Uiso   1.00
H239   H     0.18141   0.42699   0.38839   0.00000  Uiso   1.00
H240   H     0.15192   0.57301   0.11161   0.00000  Uiso   1.00
H241   H     0.15185   0.57324   0.38928   0.00000  Uiso   1.00
H242   H     0.18147   0.42676   0.11072   0.00000  Uiso   1.00
C243   C     0.12970   0.62709   0.04251   0.00000  Uiso   1.00
H244   H     0.13516   0.66025   0.02589   0.00000  Uiso   1.00
O245   O     0.10864   0.62695   0.07593   0.00000  Uiso   1.00
C246   C     0.20362   0.37290   0.45749   0.00000  Uiso   1.00
H247   H     0.19818   0.33975   0.47412   0.00000  Uiso   1.00
O248   O     0.22467   0.37305   0.42407   0.00000  Uiso   1.00
C249   C     0.42068   0.50000   0.24996   0.00000  Uiso   1.00
C250   C     0.57932   0.50000   0.25004   0.00000  Uiso   1.00
C251   C     0.47820   0.58295   0.02212   0.00000  Uiso   1.00
C252   C     0.52179   0.41704   0.47788   0.00000  Uiso   1.00
C253   C     0.35461   0.45739   0.25004   0.00000  Uiso   1.00
C254   C     0.64539   0.54261   0.24996   0.00000  Uiso   1.00
C255   C     0.64538   0.45740   0.25010   0.00000  Uiso   1.00
C256   C     0.35462   0.54260   0.24990   0.00000  Uiso   1.00
C257   C     0.62393   0.50000   0.25004   0.00000  Uiso   1.00
C258   C     0.37607   0.50000   0.24996   0.00000  Uiso   1.00
C259   C     0.47488   0.35815   0.22193   0.00000  Uiso   1.00
C260   C     0.52512   0.64185   0.27807   0.00000  Uiso   1.00
C261   C     0.52512   0.35816   0.27807   0.00000  Uiso   1.00
C262   C     0.47489   0.64184   0.22193   0.00000  Uiso   1.00
C263   C     0.49983   0.50001   0.16428   0.00000  Uiso   1.00
C264   C     0.50017   0.49999   0.33572   0.00000  Uiso   1.00
C265   C     0.50970   0.45862   0.40720   0.00000  Uiso   1.00
C266   C     0.49029   0.54138   0.09280   0.00000  Uiso   1.00
C267   C     0.50078   0.49998   0.38412   0.00000  Uiso   1.00
C268   C     0.49922   0.50002   0.11588   0.00000  Uiso   1.00
C269   C     0.49230   0.54128   0.40721   0.00000  Uiso   1.00
C270   C     0.50769   0.45872   0.09279   0.00000  Uiso   1.00
C271   C     0.49153   0.54131   0.45329   0.00000  Uiso   1.00
C272   C     0.50845   0.45869   0.04671   0.00000  Uiso   1.00
C273   C     0.50072   0.49982   0.47675   0.00000  Uiso   1.00
C274   C     0.49927   0.50018   0.02325   0.00000  Uiso   1.00
C275   C     0.51126   0.45809   0.45366   0.00000  Uiso   1.00
C276   C     0.48873   0.54191   0.04634   0.00000  Uiso   1.00
C277   C     0.48076   0.58222   0.47592   0.00000  Uiso   1.00
C278   C     0.51922   0.41778   0.02408   0.00000  Uiso   1.00
Cu279  Cu    0.50000   0.54689   0.25000   0.00000  Uiso   1.00
Cu280  Cu    0.50000   0.45311   0.25000   0.00000  Uiso   1.00
H281   H     0.47297   0.61353   0.45726   0.00000  Uiso   1.00
H282   H     0.52701   0.38646   0.04274   0.00000  Uiso   1.00
H283   H     0.37062   0.42409   0.25008   0.00000  Uiso   1.00
H284   H     0.62938   0.57591   0.24992   0.00000  Uiso   1.00
H285   H     0.62937   0.42409   0.25018   0.00000  Uiso   1.00
H286   H     0.37063   0.57591   0.24982   0.00000  Uiso   1.00
H287   H     0.45477   0.37688   0.19947   0.00000  Uiso   1.00
H288   H     0.54524   0.62312   0.30053   0.00000  Uiso   1.00
H289   H     0.54522   0.37689   0.30055   0.00000  Uiso   1.00
H290   H     0.45478   0.62311   0.19945   0.00000  Uiso   1.00
N291   N     0.50000   0.61736   0.25000   0.00000  Uiso   1.00
N292   N     0.50000   0.38264   0.25000   0.00000  Uiso   1.00
O293   O     0.43988   0.53958   0.25000   0.00000  Uiso   1.00
O294   O     0.56012   0.46042   0.25001   0.00000  Uiso   1.00
O295   O     0.56012   0.53958   0.25001   0.00000  Uiso   1.00
O296   O     0.43988   0.46042   0.25000   0.00000  Uiso   1.00
O297   O     0.49999   0.53960   0.18513   0.00000  Uiso   1.00
O298   O     0.50001   0.46040   0.31487   0.00000  Uiso   1.00
O299   O     0.50001   0.53960   0.31487   0.00000  Uiso   1.00
O300   O     0.49999   0.46040   0.18513   0.00000  Uiso   1.00
H301   H     0.51475   0.42699   0.38839   0.00000  Uiso   1.00
H302   H     0.48525   0.57301   0.11161   0.00000  Uiso   1.00
H303   H     0.48519   0.57324   0.38928   0.00000  Uiso   1.00
H304   H     0.51480   0.42676   0.11072   0.00000  Uiso   1.00
C305   C     0.46303   0.62709   0.04251   0.00000  Uiso   1.00
H306   H     0.46849   0.66025   0.02589   0.00000  Uiso   1.00
O307   O     0.44198   0.62695   0.07593   0.00000  Uiso   1.00
C308   C     0.53696   0.37290   0.45749   0.00000  Uiso   1.00
H309   H     0.53151   0.33975   0.47412   0.00000  Uiso   1.00
O310   O     0.55801   0.37305   0.42407   0.00000  Uiso   1.00
C311   C     0.75401   0.50000   0.24996   0.00000  Uiso   1.00
C312   C     0.91266   0.50000   0.25004   0.00000  Uiso   1.00
C313   C     0.81153   0.58295   0.02212   0.00000  Uiso   1.00
C314   C     0.85512   0.41704   0.47788   0.00000  Uiso   1.00
C315   C     0.68794   0.45739   0.25004   0.00000  Uiso   1.00
C316   C     0.97872   0.54261   0.24996   0.00000  Uiso   1.00
C317   C     0.97871   0.45740   0.25010   0.00000  Uiso   1.00
C318   C     0.68795   0.54260   0.24990   0.00000  Uiso   1.00
C319   C     0.95727   0.50000   0.25004   0.00000  Uiso   1.00
C320   C     0.70940   0.50000   0.24996   0.00000  Uiso   1.00
C321   C     0.80822   0.35815   0.22193   0.00000  Uiso   1.00
C322   C     0.85845   0.64185   0.27807   0.00000  Uiso   1.00
C323   C     0.85845   0.35816   0.27807   0.00000  Uiso   1.00
C324   C     0.80822   0.64184   0.22193   0.00000  Uiso   1.00
C325   C     0.83316   0.50001   0.16428   0.00000  Uiso   1.00
C326   C     0.83350   0.49999   0.33572   0.00000  Uiso   1.00
C327   C     0.84304   0.45862   0.40720   0.00000  Uiso   1.00
C328   C     0.82362   0.54138   0.09280   0.00000  Uiso   1.00
C329   C     0.83411   0.49998   0.38412   0.00000  Uiso   1.00
C330   C     0.83255   0.50002   0.11588   0.00000  Uiso   1.00
C331   C     0.82564   0.54128   0.40721   0.00000  Uiso   1.00
C332   C     0.84102   0.45872   0.09279   0.00000  Uiso   1.00
C333   C     0.82486   0.54131   0.45329   0.00000  Uiso   1.00
C334   C     0.84179   0.45869   0.04671   0.00000  Uiso   1.00
C335   C     0.83405   0.49982   0.47675   0.00000  Uiso   1.00
C336   C     0.83260   0.50018   0.02325   0.00000  Uiso   1.00
C337   C     0.84460   0.45809   0.45366   0.00000  Uiso   1.00
C338   C     0.82206   0.54191   0.04634   0.00000  Uiso   1.00
C339   C     0.81409   0.58222   0.47592   0.00000  Uiso   1.00
C340   C     0.85256   0.41778   0.02408   0.00000  Uiso   1.00
Cu341  Cu    0.83333   0.54689   0.25000   0.00000  Uiso   1.00
Cu342  Cu    0.83333   0.45311   0.25000   0.00000  Uiso   1.00
H343   H     0.80630   0.61353   0.45726   0.00000  Uiso   1.00
H344   H     0.86034   0.38646   0.04274   0.00000  Uiso   1.00
H345   H     0.70395   0.42409   0.25008   0.00000  Uiso   1.00
H346   H     0.96272   0.57591   0.24992   0.00000  Uiso   1.00
H347   H     0.96270   0.42409   0.25018   0.00000  Uiso   1.00
H348   H     0.70397   0.57591   0.24982   0.00000  Uiso   1.00
H349   H     0.78810   0.37688   0.19947   0.00000  Uiso   1.00
H350   H     0.87857   0.62312   0.30053   0.00000  Uiso   1.00
H351   H     0.87856   0.37689   0.30055   0.00000  Uiso   1.00
H352   H     0.78811   0.62311   0.19945   0.00000  Uiso   1.00
N353   N     0.83333   0.61736   0.25000   0.00000  Uiso   1.00
N354   N     0.83333   0.38264   0.25000   0.00000  Uiso   1.00
O355   O     0.77321   0.53958   0.25000   0.00000  Uiso   1.00
O356   O     0.89345   0.46042   0.25001   0.00000  Uiso   1.00
O357   O     0.89345   0.53958   0.25001   0.00000  Uiso   1.00
O358   O     0.77321   0.46042   0.25000   0.00000  Uiso   1.00
O359   O     0.83332   0.53960   0.18513   0.00000  Uiso   1.00
O360   O     0.83334   0.46040   0.31487   0.00000  Uiso   1.00
O361   O     0.83334   0.53960   0.31487   0.00000  Uiso   1.00
O362   O     0.83332   0.46040   0.18513   0.00000  Uiso   1.00
H363   H     0.84808   0.42699   0.38839   0.00000  Uiso   1.00
H364   H     0.81859   0.57301   0.11161   0.00000  Uiso   1.00
H365   H     0.81852   0.57324   0.38928   0.00000  Uiso   1.00
H366   H     0.84813   0.42676   0.11072   0.00000  Uiso   1.00
C367   C     0.79637   0.62709   0.04251   0.00000  Uiso   1.00
H368   H     0.80182   0.66025   0.02589   0.00000  Uiso   1.00
O369   O     0.77531   0.62695   0.07593   0.00000  Uiso   1.00
C370   C     0.87029   0.37290   0.45749   0.00000  Uiso   1.00
H371   H     0.86484   0.33975   0.47412   0.00000  Uiso   1.00
O372   O     0.89134   0.37305   0.42407   0.00000  Uiso   1.00
C373   C     0.08734   0.83333   0.24996   0.00000  Uiso   1.00
C374   C     0.24599   0.83333   0.25004   0.00000  Uiso   1.00
C375   C     0.14486   0.91629   0.02212   0.00000  Uiso   1.00
C376   C     0.18846   0.75038   0.47788   0.00000  Uiso   1.00
C377   C     0.02128   0.79073   0.25004   0.00000  Uiso   1.00
C378   C     0.31206   0.87594   0.24996   0.00000  Uiso   1.00
C379   C     0.31205   0.79073   0.25010   0.00000  Uiso   1.00
C380   C     0.02129   0.87594   0.24990   0.00000  Uiso   1.00
C381   C     0.29060   0.83333   0.25004   0.00000  Uiso   1.00
C382   C     0.04273   0.83333   0.24996   0.00000  Uiso   1.00
C383   C     0.14155   0.69148   0.22193   0.00000  Uiso   1.00
C384   C     0.19178   0.97518   0.27807   0.00000  Uiso   1.00
C385   C     0.19178   0.69149   0.27807   0.00000  Uiso   1.00
C386   C     0.14155   0.97518   0.22193   0.00000  Uiso   1.00
C387   C     0.16650   0.83334   0.16428   0.00000  Uiso   1.00
C388   C     0.16684   0.83333   0.33572   0.00000  Uiso   1.00
C389   C     0.17637   0.79195   0.40720   0.00000  Uiso   1.00
C390   C     0.15696   0.87472   0.09280   0.00000  Uiso   1.00
C391   C     0.16744   0.83331   0.38412   0.00000  Uiso   1.00
C392   C     0.16588   0.83335   0.11588   0.00000  Uiso   1.00
C393   C     0.15897   0.87461   0.40721   0.00000  Uiso   1.00
C394   C     0.17435   0.79206   0.09279   0.00000  Uiso   1.00
C395   C     0.15820   0.87464   0.45329   0.00000  Uiso   1.00
C396   C     0.17512   0.79203   0.04671   0.00000  Uiso   1.00
C397   C     0.16739   0.83315   0.47675   0.00000  Uiso   1.00
C398   C     0.16593   0.83351   0.02325   0.00000  Uiso   1.00
C399   C     0.17793   0.79142   0.45366   0.00000  Uiso   1.00
C400   C     0.15539   0.87524   0.04634   0.00000  Uiso   1.00
C401   C     0.14743   0.91555   0.47592   0.00000  Uiso   1.00
C402   C     0.18589   0.75111   0.02408   0.00000  Uiso   1.00
Cu403  Cu    0.16667   0.88022   0.25000   0.00000  Uiso   1.00
Cu404  Cu    0.16667   0.78645   0.25000   0.00000  Uiso   1.00
H405   H     0.13963   0.94687   0.45726   0.00000  Uiso   1.00
H406   H     0.19368   0.71980   0.04274   0.00000  Uiso   1.00
H407   H     0.03729   0.75742   0.25008   0.00000  Uiso   1.00
H408   H     0.29605   0.90925   0.24992   0.00000  Uiso   1.00
H409   H     0.29604   0.75742   0.25018   0.00000  Uiso   1.00
H410   H     0.03730   0.90925   0.24982   0.00000  Uiso   1.00
H411   H     0.12143   0.71021   0.19947   0.00000  Uiso   1.00
H412   H     0.21190   0.95645   0.30053   0.00000  Uiso   1.00
H413   H     0.21189   0.71023   0.30055   0.00000  Uiso   1.00
H414   H     0.12144   0.95644   0.19945   0.00000  Uiso   1.00
N415   N     0.16667   0.95069   0.25000   0.00000  Uiso   1.00
N416   N     0.16667   0.71598   0.25000   0.00000  Uiso   1.00
O417   O     0.10655   0.87291   0.25000   0.00000  Uiso   1.00
O418   O     0.22679   0.79375   0.25001   0.00000  Uiso   1.00
O419   O     0.22679   0.87291   0.25001   0.00000  Uiso   1.00
O420   O     0.10655   0.79375   0.25000   0.00000  Uiso   1.00
O421   O     0.16666   0.87293   0.18513   0.00000  Uiso   1.00
O422   O     0.16668   0.79373   0.31487   0.00000  Uiso   1.00
O423   O     0.16668   0.87293   0.31487   0.00000  Uiso   1.00
O424   O     0.16666   0.79373   0.18513   0.00000  Uiso   1.00
H425   H     0.18141   0.76032   0.38839   0.00000  Uiso   1.00
H426   H     0.15192   0.90635   0.11161   0.00000  Uiso   1.00
H427   H     0.15185   0.90657   0.38928   0.00000  Uiso   1.00
H428   H     0.18147   0.76010   0.11072   0.00000  Uiso   1.00
C429   C     0.12970   0.96043   0.04251   0.00000  Uiso   1.00
H430   H     0.13516   0.99358   0.02589   0.00000  Uiso   1.00
O431   O     0.10864   0.96028   0.07593   0.00000  Uiso   1.00
C432   C     0.20362   0.70624   0.45749   0.00000  Uiso   1.00
H433   H     0.19818   0.67308   0.47412   0.00000  Uiso   1.00
O434   O     0.22467   0.70638   0.42407   0.00000  Uiso   1.00
C435   C     0.42068   0.83333   0.24996   0.00000  Uiso   1.00
C436   C     0.57932   0.83333   0.25004   0.00000  Uiso   1.00
C437   C     0.47820   0.91629   0.02212   0.00000  Uiso   1.00
C438   C     0.52179   0.75038   0.47788   0.00000  Uiso   1.00
C439   C     0.35461   0.79073   0.25004   0.00000  Uiso   1.00
C440   C     0.64539   0.87594   0.24996   0.00000  Uiso   1.00
C441   C     0.64538   0.79073   0.25010   0.00000  Uiso   1.00
C442   C     0.35462   0.87594   0.24990   0.00000  Uiso   1.00
C443   C     0.62393   0.83333   0.25004   0.00000  Uiso   1.00
C444   C     0.37607   0.83333   0.24996   0.00000  Uiso   1.00
C445   C     0.47488   0.69148   0.22193   0.00000  Uiso   1.00
C446   C     0.52512   0.97518   0.27807   0.00000  Uiso   1.00
C447   C     0.52512   0.69149   0.27807   0.00000  Uiso   1.00
C448   C     0.47489   0.97518   0.22193   0.00000  Uiso   1.00
C449   C     0.49983   0.83334   0.16428   0.00000  Uiso   1.00
C450   C     0.50017   0.83333   0.33572   0.00000  Uiso   1.00
C451   C     0.50970   0.79195   0.40720   0.00000  Uiso   1.00
C452   C     0.49029   0.87472   0.09280   0.00000  Uiso   1.00
C453   C     0.50078   0.83331   0.38412   0.00000  Uiso   1.00
C454   C     0.49922   0.83335   0.11588   0.00000  Uiso   1.00
C455   C     0.49230   0.87461   0.40721   0.00000  Uiso   1.00
C456   C     0.50769   0.79206   0.09279   0.00000  Uiso   1.00
C457   C     0.49153   0.87464   0.45329   0.00000  Uiso   1.00
C458   C     0.50845   0.79203   0.04671   0.00000  Uiso   1.00
C459   C     0.50072   0.83315   0.47675   0.00000  Uiso   1.00
C460   C     0.49927   0.83351   0.02325   0.00000  Uiso   1.00
C461   C     0.51126   0.79142   0.45366   0.00000  Uiso   1.00
C462   C     0.48873   0.87524   0.04634   0.00000  Uiso   1.00
C463   C     0.48076   0.91555   0.47592   0.00000  Uiso   1.00
C464   C     0.51922   0.75111   0.02408   0.00000  Uiso   1.00
Cu465  Cu    0.50000   0.88022   0.25000   0.00000  Uiso   1.00
Cu466  Cu    0.50000   0.78645   0.25000   0.00000  Uiso   1.00
H467   H     0.47297   0.94687   0.45726   0.00000  Uiso   1.00
H468   H     0.52701   0.71980   0.04274   0.00000  Uiso   1.00
H469   H     0.37062   0.75742   0.25008   0.00000  Uiso   1.00
H470   H     0.62938   0.90925   0.24992   0.00000  Uiso   1.00
H471   H     0.62937   0.75742   0.25018   0.00000  Uiso   1.00
H472   H     0.37063   0.90925   0.24982   0.00000  Uiso   1.00
H473   H     0.45477   0.71021   0.19947   0.00000  Uiso   1.00
H474   H     0.54524   0.95645   0.30053   0.00000  Uiso   1.00
H475   H     0.54522   0.71023   0.30055   0.00000  Uiso   1.00
H476   H     0.45478   0.95644   0.19945   0.00000  Uiso   1.00
N477   N     0.50000   0.95069   0.25000   0.00000  Uiso   1.00
N478   N     0.50000   0.71598   0.25000   0.00000  Uiso   1.00
O479   O     0.43988   0.87291   0.25000   0.00000  Uiso   1.00
O480   O     0.56012   0.79375   0.25001   0.00000  Uiso   1.00
O481   O     0.56012   0.87291   0.25001   0.00000  Uiso   1.00
O482   O     0.43988   0.79375   0.25000   0.00000  Uiso   1.00
O483   O     0.49999   0.87293   0.18513   0.00000  Uiso   1.00
O484   O     0.50001   0.79373   0.31487   0.00000  Uiso   1.00
O485   O     0.50001   0.87293   0.31487   0.00000  Uiso   1.00
O486   O     0.49999   0.79373   0.18513   0.00000  Uiso   1.00
H487   H     0.51475   0.76032   0.38839   0.00000  Uiso   1.00
H488   H     0.48525   0.90635   0.11161   0.00000  Uiso   1.00
H489   H     0.48519   0.90657   0.38928   0.00000  Uiso   1.00
H490   H     0.51480   0.76010   0.11072   0.00000  Uiso   1.00
C491   C     0.46303   0.96043   0.04251   0.00000  Uiso   1.00
H492   H     0.46849   0.99358   0.02589   0.00000  Uiso   1.00
O493   O     0.44198   0.96028   0.07593   0.00000  Uiso   1.00
C494   C     0.53696   0.70624   0.45749   0.00000  Uiso   1.00
H495   H     0.53151   0.67308   0.47412   0.00000  Uiso   1.00
O496   O     0.55801   0.70638   0.42407   0.00000  Uiso   1.00
C497   C     0.75401   0.83333   0.24996   0.00000  Uiso   1.00
C498   C     0.91266   0.83333   0.25004   0.00000  Uiso   1.00
C499   C     0.81153   0.91629   0.02212   0.00000  Uiso   1.00
C500   C     0.85512   0.75038   0.47788   0.00000  Uiso   1.00
C501   C     0.68794   0.79073   0.25004   0.00000  Uiso   1.00
C502   C     0.97872   0.87594   0.24996   0.00000  Uiso   1.00
C503   C     0.97871   0.79073   0.25010   0.00000  Uiso   1.00
C504   C     0.68795   0.87594   0.24990   0.00000  Uiso   1.00
C505   C     0.95727   0.83333   0.25004   0.00000  Uiso   1.00
C506   C     0.70940   0.83333   0.24996   0.00000  Uiso   1.00
C507   C     0.80822   0.69148   0.22193   0.00000  Uiso   1.00
C508   C     0.85845   0.97518   0.27807   0.00000  Uiso   1.00
C509   C     0.85845   0.69149   0.27807   0.00000  Uiso   1.00
C510   C     0.80822   0.97518   0.22193   0.00000  Uiso   1.00
C511   C     0.83316   0.83334   0.16428   0.00000  Uiso   1.00
C512   C     0.83350   0.83333   0.33572   0.00000  Uiso   1.00
C513   C     0.84304   0.79195   0.40720   0.00000  Uiso   1.00
C514   C     0.82362   0.87472   0.09280   0.00000  Uiso   1.00
C515   C     0.83411   0.83331   0.38412   0.00000  Uiso   1.00
C516   C     0.83255   0.83335   0.11588   0.00000  Uiso   1.00
C517   C     0.82564   0.87461   0.40721   0.00000  Uiso   1.00
C518   C     0.84102   0.79206   0.09279   0.00000  Uiso   1.00
C519   C     0.82486   0.87464   0.45329   0.00000  Uiso   1.00
C520   C     0.84179   0.79203   0.04671   0.00000  Uiso   1.00
C521   C     0.83405   0.83315   0.47675   0.00000  Uiso   1.00
C522   C     0.83260   0.83351   0.02325   0.00000  Uiso   1.00
C523   C     0.84460   0.79142   0.45366   0.00000  Uiso   1.00
C524   C     0.82206   0.87524   0.04634   0.00000  Uiso   1.00
C525   C     0.81409   0.91555   0.47592   0.00000  Uiso   1.00
C526   C     0.85256   0.75111   0.02408   0.00000  Uiso   1.00
Cu527  Cu    0.83333   0.88022   0.25000   0.00000  Uiso   1.00
Cu528  Cu    0.83333   0.78645   0.25000   0.00000  Uiso   1.00
H529   H     0.80630   0.94687   0.45726   0.00000  Uiso   1.00
H530   H     0.86034   0.71980   0.04274   0.00000  Uiso   1.00
H531   H     0.70395   0.75742   0.25008   0.00000  Uiso   1.00
H532   H     0.96272   0.90925   0.24992   0.00000  Uiso   1.00
H533   H     0.96270   0.75742   0.25018   0.00000  Uiso   1.00
H534   H     0.70397   0.90925   0.24982   0.00000  Uiso   1.00
H535   H     0.78810   0.71021   0.19947   0.00000  Uiso   1.00
H536   H     0.87857   0.95645   0.30053   0.00000  Uiso   1.00
H537   H     0.87856   0.71023   0.30055   0.00000  Uiso   1.00
H538   H     0.78811   0.95644   0.19945   0.00000  Uiso   1.00
N539   N     0.83333   0.95069   0.25000   0.00000  Uiso   1.00
N540   N     0.83333   0.71598   0.25000   0.00000  Uiso   1.00
O541   O     0.77321   0.87291   0.25000   0.00000  Uiso   1.00
O542   O     0.89345   0.79375   0.25001   0.00000  Uiso   1.00
O543   O     0.89345   0.87291   0.25001   0.00000  Uiso   1.00
O544   O     0.77321   0.79375   0.25000   0.00000  Uiso   1.00
O545   O     0.83332   0.87293   0.18513   0.00000  Uiso   1.00
O546   O     0.83334   0.79373   0.31487   0.00000  Uiso   1.00
O547   O     0.83334   0.87293   0.31487   0.00000  Uiso   1.00
O548   O     0.83332   0.79373   0.18513   0.00000  Uiso   1.00
H549   H     0.84808   0.76032   0.38839   0.00000  Uiso   1.00
H550   H     0.81859   0.90635   0.11161   0.00000  Uiso   1.00
H551   H     0.81852   0.90657   0.38928   0.00000  Uiso   1.00
H552   H     0.84813   0.76010   0.11072   0.00000  Uiso   1.00
C553   C     0.79637   0.96043   0.04251   0.00000  Uiso   1.00
H554   H     0.80182   0.99358   0.02589   0.00000  Uiso   1.00
O555   O     0.77531   0.96028   0.07593   0.00000  Uiso   1.00
C556   C     0.87029   0.70624   0.45749   0.00000  Uiso   1.00
H557   H     0.86484   0.67308   0.47412   0.00000  Uiso   1.00
O558   O     0.89134   0.70638   0.42407   0.00000  Uiso   1.00
C559   C     0.08734   0.16667   0.74996   0.00000  Uiso   1.00
C560   C     0.24599   0.16667   0.75004   0.00000  Uiso   1.00
C561   C     0.14486   0.24962   0.52212   0.00000  Uiso   1.00
C562   C     0.18846   0.08371   0.97788   0.00000  Uiso   1.00
C563   C     0.02128   0.12406   0.75004   0.00000  Uiso   1.00
C564   C     0.31206   0.20927   0.74996   0.00000  Uiso   1.00
C565   C     0.31205   0.12406   0.75010   0.00000  Uiso   1.00
C566   C     0.02129   0.20927   0.74990   0.00000  Uiso   1.00
C567   C     0.29060   0.16667   0.75004   0.00000  Uiso   1.00
C568   C     0.04273   0.16667   0.74996   0.00000  Uiso   1.00
C569   C     0.14155   0.02482   0.72193   0.00000  Uiso   1.00
C570   C     0.19178   0.30852   0.77807   0.00000  Uiso   1.00
C571   C     0.19178   0.02482   0.77807   0.00000  Uiso   1.00
C572   C     0.14155   0.30851   0.72193   0.00000  Uiso   1.00
C573   C     0.16650   0.16667   0.66428   0.00000  Uiso   1.00
C574   C     0.16684   0.16666   0.83572   0.00000  Uiso   1.00
C575   C     0.17637   0.12528   0.90720   0.00000  Uiso   1.00
C576   C     0.15696   0.20805   0.59280   0.00000  Uiso   1.00
C577   C     0.16744   0.16665   0.88412   0.00000  Uiso   1.00
C578   C     0.16588   0.16669   0.61588   0.00000  Uiso   1.00
C579   C     0.15897   0.20794   0.90721   0.00000  Uiso   1.00
C580   C     0.17435   0.12539   0.59279   0.00000  Uiso   1.00
C581   C     0.15820   0.20797   0.95329   0.00000  Uiso   1.00
C582   C     0.17512   0.12536   0.54671   0.00000  Uiso   1.00
C583   C     0.16739   0.16649   0.97675   0.00000  Uiso   1.00
C584   C     0.16593   0.16685   0.52325   0.00000  Uiso   1.00
C585   C     0.17793   0.12476   0.95366   0.00000  Uiso   1.00
C586   C     0.15539   0.20857   0.54634   0.00000  Uiso   1.00
C587   C     0.14743   0.24889   0.97592   0.00000  Uiso   1.00
C588   C     0.18589   0.08445   0.52408   0.00000  Uiso   1.00
Cu589  Cu    0.16667   0.21355   0.75000   0.00000  Uiso   1.00
Cu590  Cu    0.16667   0.11978   0.75000   0.00000  Uiso   1.00
H591   H     0.13963   0.28020   0.95726   0.00000  Uiso   1.00
H592   H     0.19368   0.05313   0.54274   0.00000  Uiso   1.00
H593   H     0.03729   0.09075   0.75008   0.00000  Uiso   1.00
H594   H     0.29605   0.24258   0.74992   0.00000  Uiso   1.00
H595   H     0.29604   0.09075   0.75018   0.00000  Uiso   1.00
H596   H     0.03730   0.24258   0.74982   0.00000  Uiso   1.00
H597   H     0.12143   0.04355   0.69947   0.00000  Uiso   1.00
H598   H     0.21190   0.28979   0.80053   0.00000  Uiso   1.00
H599   H     0.21189   0.04356   0.80055   0.00000  Uiso   1.00
H600   H     0.12144   0.28977   0.69945   0.00000  Uiso   1.00
N601   N     0.16667   0.28402   0.75000   0.00000  Uiso   1.00
N602   N     0.16667   0.04931   0.75000   0.00000  Uiso   1.00
O603   O     0.10655   0.20625   0.75000   0.00000  Uiso   1.00
O604   O     0.22679   0.12709   0.75001   0.00000  Uiso   1.00
O605   O     0.22679   0.20625   0.75001   0.00000  Uiso   1.00
O606   O     0.10655   0.12709   0.75000   0.00000  Uiso   1.00
O607   O     0.16666   0.20627   0.68513   0.00000  Uiso   1.00
O608   O     0.16668   0.12707   0.81487   0.00000  Uiso   1.00
O609   O     0.16668   0.20627   0.81487   0.00000  Uiso   1.00
O610   O     0.16666   0.12707   0.68513   0.00000  Uiso   1.00
H611   H     0.18141   0.09366   0.88839   0.00000  Uiso   1.00
H612   H     0.15192   0.23968   0.61161   0.00000  Uiso   1.00
H613   H     0.15185   0.23990   0.88928   0.00000  Uiso   1.00
H614   H     0.18147   0.09343   0.61072   0.00000  Uiso   1.00
C615   C     0.12970   0.29376   0.54251   0.00000  Uiso   1.00
H616   H     0.13516   0.32691   0.52589   0.00000  Uiso   1.00
O617   O     0.10864   0.29362   0.57593   0.00000  Uiso   1.00
C618   C     0.20362   0.03957   0.95749   0.00000  Uiso   1.00
H619   H     0.19818   0.00642   0.97412   0.00000  Uiso   1.00
O620   O     0.22467   0.03971   0.92407   0.00000  Uiso   1.00
C621   C     0.42068   0.16667   0.74996   0.00000  Uiso   1.00
C622   C     0.57932   0.16667   0.75004   0.00000  Uiso   1.00
C623   C     0.47820   0.24962   0.52212   0.00000  Uiso   1.00
C624   C     0.52179   0.08371   0.97788   0.00000  Uiso   1.00
C625   C     0.35461   0.12406   0.75004   0.00000  Uiso   1.00
C626   C     0.64539   0.20927   0.74996   0.00000  Uiso   1.00
C627   C     0.64538   0.12406   0.75010   0.00000  Uiso   1.00
C628   C     0.35462   0.20927   0.74990   0.00000  Uiso   1.00
C629   C     0.62393   0.16667   0.75004   0.00000  Uiso   1.00
C630   C     0.37607   0.16667   0.74996   0.00000  Uiso   1.00
C631   C     0.47488   0.02482   0.72193   0.00000  Uiso   1.00
C632   C     0.52512   0.30852   0.77807   0.00000  Uiso   1.00
C633   C     0.52512   0.02482   0.77807   0.00000  Uiso   1.00
C634   C     0.47489   0.30851   0.72193   0.00000  Uiso   1.00
C635   C     0.49983   0.16667   0.66428   0.00000  Uiso   1.00
C636   C     0.50017   0.16666   0.83572   0.00000  Uiso   1.00
C637   C     0.50970   0.12528   0.90720   0.00000  Uiso   1.00
C638   C     0.49029   0.20805   0.59280   0.00000  Uiso   1.00
C639   C     0.50078   0.16665   0.88412   0.00000  Uiso   1.00
C640   C     0.49922   0.16669   0.61588   0.00000  Uiso   1.00
C641   C     0.49230   0.20794   0.90721   0.00000  Uiso   1.00
C642   C     0.50769   0.12539   0.59279   0.00000  Uiso   1.00
C643   C     0.49153   0.20797   0.95329   0.00000  Uiso   1.00
C644   C     0.50845   0.12536   0.54671   0.00000  Uiso   1.00
C645   C     0.50072   0.16649   0.97675   0.00000  Uiso   1.00
C646   C     0.49927   0.16685   0.52325   0.00000  Uiso   1.00
C647   C     0.51126   0.12476   0.95366   0.00000  Uiso   1.00
C648   C     0.48873   0.20857   0.54634   0.00000  Uiso   1.00
C649   C     0.48076   0.24889   0.97592   0.00000  Uiso   1.00
C650   C     0.51922   0.08445   0.52408   0.00000  Uiso   1.00
Cu651  Cu    0.50000   0.21355   0.75000   0.00000  Uiso   1.00
Cu652  Cu    0.50000   0.11978   0.75000   0.00000  Uiso   1.00
H653   H     0.47297   0.28020   0.95726   0.00000  Uiso   1.00
H654   H     0.52701   0.05313   0.54274   0.00000  Uiso   1.00
H655   H     0.37062   0.09075   0.75008   0.00000  Uiso   1.00
H656   H     0.62938   0.24258   0.74992   0.00000  Uiso   1.00
H657   H     0.62937   0.09075   0.75018   0.00000  Uiso   1.00
H658   H     0.37063   0.24258   0.74982   0.00000  Uiso   1.00
H659   H     0.45477   0.04355   0.69947   0.00000  Uiso   1.00
H660   H     0.54524   0.28979   0.80053   0.00000  Uiso   1.00
H661   H     0.54522   0.04356   0.80055   0.00000  Uiso   1.00
H662   H     0.45478   0.28977   0.69945   0.00000  Uiso   1.00
N663   N     0.50000   0.28402   0.75000   0.00000  Uiso   1.00
N664   N     0.50000   0.04931   0.75000   0.00000  Uiso   1.00
O665   O     0.43988   0.20625   0.75000   0.00000  Uiso   1.00
O666   O     0.56012   0.12709   0.75001   0.00000  Uiso   1.00
O667   O     0.56012   0.20625   0.75001   0.00000  Uiso   1.00
O668   O     0.43988   0.12709   0.75000   0.00000  Uiso   1.00
O669   O     0.49999   0.20627   0.68513   0.00000  Uiso   1.00
O670   O     0.50001   0.12707   0.81487   0.00000  Uiso   1.00
O671   O     0.50001   0.20627   0.81487   0.00000  Uiso   1.00
O672   O     0.49999   0.12707   0.68513   0.00000  Uiso   1.00
H673   H     0.51475   0.09366   0.88839   0.00000  Uiso   1.00
H674   H     0.48525   0.23968   0.61161   0.00000  Uiso   1.00
H675   H     0.48519   0.23990   0.88928   0.00000  Uiso   1.00
H676   H     0.51480   0.09343   0.61072   0.00000  Uiso   1.00
C677   C     0.46303   0.29376   0.54251   0.00000  Uiso   1.00
H678   H     0.46849   0.32691   0.52589   0.00000  Uiso   1.00
O679   O     0.44198   0.29362   0.57593   0.00000  Uiso   1.00
C680   C     0.53696   0.03957   0.95749   0.00000  Uiso   1.00
H681   H     0.53151   0.00642   0.97412   0.00000  Uiso   1.00
O682   O     0.55801   0.03971   0.92407   0.00000  Uiso   1.00
C683   C     0.75401   0.16667   0.74996   0.00000  Uiso   1.00
C684   C     0.91266   0.16667   0.75004   0.00000  Uiso   1.00
C685   C     0.81153   0.24962   0.52212   0.00000  Uiso   1.00
C686   C     0.85512   0.08371   0.97788   0.00000  Uiso   1.00
C687   C     0.68794   0.12406   0.75004   0.00000  Uiso   1.00
C688   C     0.97872   0.20927   0.74996   0.00000  Uiso   1.00
C689   C     0.97871   0.12406   0.75010   0.00000  Uiso   1.00
C690   C     0.68795   0.20927   0.74990   0.00000  Uiso   1.00
C691   C     0.95727   0.16667   0.75004   0.00000  Uiso   1.00
C692   C     0.70940   0.16667   0.74996   0.00000  Uiso   1.00
C693   C     0.80822   0.02482   0.72193   0.00000  Uiso   1.00
C694   C     0.85845   0.30852   0.77807   0.00000  Uiso   1.00
C695   C     0.85845   0.02482   0.77807   0.00000  Uiso   1.00
C696   C     0.80822   0.30851   0.72193   0.00000  Uiso   1.00
C697   C     0.83316   0.16667   0.66428   0.00000  Uiso   1.00
C698   C     0.83350   0.16666   0.83572   0.00000  Uiso   1.00
C699   C     0.84304   0.12528   0.90720   0.00000  Uiso   1.00
C700   C     0.82362   0.20805   0.59280   0.00000  Uiso   1.00
C701   C     0.83411   0.16665   0.88412   0.00000  Uiso   1.00
C702   C     0.83255   0.16669   0.61588   0.00000  Uiso   1.00
C703   C     0.82564   0.20794   0.90721   0.00000  Uiso   1.00
C704   C     0.84102   0.12539   0.59279   0.00000  Uiso   1.00
C705   C     0.82486   0.20797   0.95329   0.00000  Uiso   1.00
C706   C     0.84179   0.12536   0.54671   0.00000  Uiso   1.00
C707   C     0.83405   0.16649   0.97675   0.00000  Uiso   1.00
C708   C     0.83260   0.16685   0.52325   0.00000  Uiso   1.00
C709   C     0.84460   0.12476   0.95366   0.00000  Uiso   1.00
C710   C     0.82206   0.20857   0.54634   0.00000  Uiso   1.00
C711   C     0.81409   0.24889   0.97592   0.00000  Uiso   1.00
C712   C     0.85256   0.08445   0.52408   0.00000  Uiso   1.00
Cu713  Cu    0.83333   0.21355   0.75000   0.00000  Uiso   1.00
Cu714  Cu    0.83333   0.11978   0.75000   0.00000  Uiso   1.00
H715   H     0.80630   0.28020   0.95726   0.00000  Uiso   1.00
H716   H     0.86034   0.05313   0.54274   0.00000  Uiso   1.00
H717   H     0.70395   0.09075   0.75008   0.00000  Uiso   1.00
H718   H     0.96272   0.24258   0.74992   0.00000  Uiso   1.00
H719   H     0.96270   0.09075   0.75018   0.00000  Uiso   1.00
H720   H     0.70397   0.24258   0.74982   0.00000  Uiso   1.00
H721   H     0.78810   0.04355   0.69947   0.00000  Uiso   1.00
H722   H     0.87857   0.28979   0.80053   0.00000  Uiso   1.00
H723   H     0.87856   0.04356   0.80055   0.00000  Uiso   1.00
H724   H     0.78811   0.28977   0.69945   0.00000  Uiso   1.00
N725   N     0.83333   0.28402   0.75000   0.00000  Uiso   1.00
N726   N     0.83333   0.04931   0.75000   0.00000  Uiso   1.00
O727   O     0.77321   0.20625   0.75000   0.00000  Uiso   1.00
O728   O     0.89345   0.12709   0.75001   0.00000  Uiso   1.00
O729   O     0.89345   0.20625   0.75001   0.00000  Uiso   1.00
O730   O     0.77321   0.12709   0.75000   0.00000  Uiso   1.00
O731   O     0.83332   0.20627   0.68513   0.00000  Uiso   1.00
O732   O     0.83334   0.12707   0.81487   0.00000  Uiso   1.00
O733   O     0.83334   0.20627   0.81487   0.00000  Uiso   1.00
O734   O     0.83332   0.12707   0.68513   0.00000  Uiso   1.00
H735   H     0.84808   0.09366   0.88839   0.00000  Uiso   1.00
H736   H     0.81859   0.23968   0.61161   0.00000  Uiso   1.00
H737   H     0.81852   0.23990   0.88928   0.00000  Uiso   1.00
H738   H     0.84813   0.09343   0.61072   0.00000  Uiso   1.00
C739   C     0.79637   0.29376   0.54251   0.00000  Uiso   1.00
H740   H     0.80182   0.32691   0.52589   0.00000  Uiso   1.00
O741   O     0.77531   0.29362   0.57593   0.00000  Uiso   1.00
C742   C     0.87029   0.03957   0.95749   0.00000  Uiso   1.00
H743   H     0.86484   0.00642   0.97412   0.00000  Uiso   1.00
O744   O     0.89134   0.03971   0.92407   0.00000  Uiso   1.00
C745   C     0.08734   0.50000   0.74996   0.00000  Uiso   1.00
C746   C     0.24599   0.50000   0.75004   0.00000  Uiso   1.00
C747   C     0.14486   0.58295   0.52212   0.00000  Uiso   1.00
C748   C     0.18846   0.41704   0.97788   0.00000  Uiso   1.00
C749   C     0.02128   0.45739   0.75004   0.00000  Uiso   1.00
C750   C     0.31206   0.54261   0.74996   0.00000  Uiso   1.00
C751   C     0.31205   0.45740   0.75010   0.00000  Uiso   1.00
C752   C     0.02129   0.54260   0.74990   0.00000  Uiso   1.00
C753   C     0.29060   0.50000   0.75004   0.00000  Uiso   1.00
C754   C     0.04273   0.50000   0.74996   0.00000  Uiso   1.00
C755   C     0.14155   0.35815   0.72193   0.00000  Uiso   1.00
C756   C     0.19178   0.64185   0.77807   0.00000  Uiso   1.00
C757   C     0.19178   0.35816   0.77807   0.00000  Uiso   1.00
C758   C     0.14155   0.64184   0.72193   0.00000  Uiso   1.00
C759   C     0.16650   0.50001   0.66428   0.00000  Uiso   1.00
C760   C     0.16684   0.49999   0.83572   0.00000  Uiso   1.00
C761   C     0.17637   0.45862   0.90720   0.00000  Uiso   1.00
C762   C     0.15696   0.54138   0.59280   0.00000  Uiso   1.00
C763   C     0.16744   0.49998   0.88412   0.00000  Uiso   1.00
C764   C     0.16588   0.50002   0.61588   0.00000  Uiso   1.00
C765   C     0.15897   0.54128   0.90721   0.00000  Uiso   1.00
C766   C     0.17435   0.45872   0.59279   0.00000  Uiso   1.00
C767   C     0.15820   0.54131   0.95329   0.00000  Uiso   1.00
C768   C     0.17512   0.45869   0.54671   0.00000  Uiso   1.00
C769   C     0.16739   0.49982   0.97675   0.00000  Uiso   1.00
C770   C     0.16593   0.50018   0.52325   0.00000  Uiso   1.00
C771   C     0.17793   0.45809   0.95366   0.00000  Uiso   1.00
C772   C     0.15539   0.54191   0.54634   0.00000  Uiso   1.00
C773   C     0.14743   0.58222   0.97592   0.00000  Uiso   1.00
C774   C     0.18589   0.41778   0.52408   0.00000  Uiso   1.00
Cu775  Cu    0.16667   0.54689   0.75000   0.00000  Uiso   1.00
Cu776  Cu    0.16667   0.45311   0.75000   0.00000  Uiso   1.00
H777   H     0.13963   0.61353   0.95726   0.00000  Uiso   1.00
H778   H     0.19368   0.38646   0.54274   0.00000  Uiso   1.00
H779   H     0.03729   0.42409   0.75008   0.00000  Uiso   1.00
H780   H     0.29605   0.57591   0.74992   0.00000  Uiso   1.00
H781   H     0.29604   0.42409   0.75018   0.00000  Uiso   1.00
H782   H     0.03730   0.57591   0.74982   0.00000  Uiso   1.00
H783   H     0.12143   0.37688   0.69947   0.00000  Uiso   1.00
H784   H     0.21190   0.62312   0.80053   0.00000  Uiso   1.00
H785   H     0.21189   0.37689   0.80055   0.00000  Uiso   1.00
H786   H     0.12144   0.62311   0.69945   0.00000  Uiso   1.00
N787   N     0.16667   0.61736   0.75000   0.00000  Uiso   1.00
N788   N     0.16667   0.38264   0.75000   0.00000  Uiso   1.00
O789   O     0.10655   0.53958   0.75000   0.00000  Uiso   1.00
O790   O     0.22679   0.46042   0.75001   0.00000  Uiso   1.00
O791   O     0.22679   0.53958   0.75001   0.00000  Uiso   1.00
O792   O     0.10655   0.46042   0.75000   0.00000  Uiso   1.00
O793   O     0.16666   0.53960   0.68513   0.00000  Uiso   1.00
O794   O     0.16668   0.46040   0.81487   0.00000  Uiso   1.00
O795   O     0.16668   0.53960   0.81487   0.00000  Uiso   1.00
O796   O     0.16666   0.46040   0.68513   0.00000  Uiso   1.00
H797   H     0.18141   0.42699   0.88839   0.00000  Uiso   1.00
H798   H     0.15192   0.57301   0.61161   0.00000  Uiso   1.00
H799   H     0.15185   0.57324   0.88928   0.00000  Uiso   1.00
H800   H     0.18147   0.42676   0.61072   0.00000  Uiso   1.00
C801   C     0.12970   0.62709   0.54251   0.00000  Uiso   1.00
H802   H     0.13516   0.66025   0.52589   0.00000  Uiso   1.00
O803   O     0.10864   0.62695   0.57593   0.00000  Uiso   1.00
C804   C     0.20362   0.37290   0.95749   0.00000  Uiso   1.00
H805   H     0.19818   0.33975   0.97412   0.00000  Uiso   1.00
O806   O     0.22467   0.37305   0.92407   0.00000  Uiso   1.00
C807   C     0.42068   0.50000   0.74996   0.00000  Uiso   1.00
C808   C     0.57932   0.50000   0.75004   0.00000  Uiso   1.00
C809   C     0.47820   0.58295   0.52212   0.00000  Uiso   1.00
C810   C     0.52179   0.41704   0.97788   0.00000  Uiso   1.00
C811   C     0.35461   0.45739   0.75004   0.00000  Uiso   1.00
C812   C     0.64539   0.54261   0.74996   0.00000  Uiso   1.00
C813   C     0.64538   0.45740   0.75010   0.00000  Uiso   1.00
C814   C     0.35462   0.54260   0.74990   0.00000  Uiso   1.00
C815   C     0.62393   0.50000   0.75004   0.00000  Uiso   1.00
C816   C     0.37607   0.50000   0.74996   0.00000  Uiso   1.00
C817   C     0.47488   0.35815   0.72193   0.00000  Uiso   1.00
C818   C     0.52512   0.64185   0.77807   0.00000  Uiso   1.00
C819   C     0.52512   0.35816   0.77807   0.00000  Uiso   1.00
C820   C     0.47489   0.64184   0.72193   0.00000  Uiso   1.00
C821   C     0.49983   0.50001   0.66428   0.00000  Uiso   1.00
C822   C     0.50017   0.49999   0.83572   0.00000  Uiso   1.00
C823   C     0.50970   0.45862   0.90720   0.00000  Uiso   1.00
C824   C     0.49029   0.54138   0.59280   0.00000  Uiso   1.00
C825   C     0.50078   0.49998   0.88412   0.00000  Uiso   1.00
C826   C     0.49922   0.50002   0.61588   0.00000  Uiso   1.00
C827   C     0.49230   0.54128   0.90721   0.00000  Uiso   1.00
C828   C     0.50769   0.45872   0.59279   0.00000  Uiso   1.00
C829   C     0.49153   0.54131   0.95329   0.00000  Uiso   1.00
C830   C     0.50845   0.45869   0.54671   0.00000  Uiso   1.00
C831   C     0.50072   0.49982   0.97675   0.00000  Uiso   1.00
C832   C     0.49927   0.50018   0.52325   0.00000  Uiso   1.00
C833   C     0.51126   0.45809   0.95366   0.00000  Uiso   1.00
C834   C     0.48873   0.54191   0.54634   0.00000  Uiso   1.00
C835   C     0.48076   0.58222   0.97592   0.00000  Uiso   1.00
C836   C     0.51922   0.41778   0.52408   0.00000  Uiso   1.00
Cu837  Cu    0.50000   0.54689   0.75000   0.00000  Uiso   1.00
Cu838  Cu    0.50000   0.45311   0.75000   0.00000  Uiso   1.00
H839   H     0.47297   0.61353   0.95726   0.00000  Uiso   1.00
H840   H     0.52701   0.38646   0.54274   0.00000  Uiso   1.00
H841   H     0.37062   0.42409   0.75008   0.00000  Uiso   1.00
H842   H     0.62938   0.57591   0.74992   0.00000  Uiso   1.00
H843   H     0.62937   0.42409   0.75018   0.00000  Uiso   1.00
H844   H     0.37063   0.57591   0.74982   0.00000  Uiso   1.00
H845   H     0.45477   0.37688   0.69947   0.00000  Uiso   1.00
H846   H     0.54524   0.62312   0.80053   0.00000  Uiso   1.00
H847   H     0.54522   0.37689   0.80055   0.00000  Uiso   1.00
H848   H     0.45478   0.62311   0.69945   0.00000  Uiso   1.00
N849   N     0.50000   0.61736   0.75000   0.00000  Uiso   1.00
N850   N     0.50000   0.38264   0.75000   0.00000  Uiso   1.00
O851   O     0.43988   0.53958   0.75000   0.00000  Uiso   1.00
O852   O     0.56012   0.46042   0.75001   0.00000  Uiso   1.00
O853   O     0.56012   0.53958   0.75001   0.00000  Uiso   1.00
O854   O     0.43988   0.46042   0.75000   0.00000  Uiso   1.00
O855   O     0.49999   0.53960   0.68513   0.00000  Uiso   1.00
O856   O     0.50001   0.46040   0.81487   0.00000  Uiso   1.00
O857   O     0.50001   0.53960   0.81487   0.00000  Uiso   1.00
O858   O     0.49999   0.46040   0.68513   0.00000  Uiso   1.00
H859   H     0.51475   0.42699   0.88839   0.00000  Uiso   1.00
H860   H     0.48525   0.57301   0.61161   0.00000  Uiso   1.00
H861   H     0.48519   0.57324   0.88928   0.00000  Uiso   1.00
H862   H     0.51480   0.42676   0.61072   0.00000  Uiso   1.00
C863   C     0.46303   0.62709   0.54251   0.00000  Uiso   1.00
H864   H     0.46849   0.66025   0.52589   0.00000  Uiso   1.00
O865   O     0.44198   0.62695   0.57593   0.00000  Uiso   1.00
C866   C     0.53696   0.37290   0.95749   0.00000  Uiso   1.00
H867   H     0.53151   0.33975   0.97412   0.00000  Uiso   1.00
O868   O     0.55801   0.37305   0.92407   0.00000  Uiso   1.00
C869   C     0.75401   0.50000   0.74996   0.00000  Uiso   1.00
C870   C     0.91266   0.50000   0.75004   0.00000  Uiso   1.00
C871   C     0.81153   0.58295   0.52212   0.00000  Uiso   1.00
C872   C     0.85512   0.41704   0.97788   0.00000  Uiso   1.00
C873   C     0.68794   0.45739   0.75004   0.00000  Uiso   1.00
C874   C     0.97872   0.54261   0.74996   0.00000  Uiso   1.00
C875   C     0.97871   0.45740   0.75010   0.00000  Uiso   1.00
C876   C     0.68795   0.54260   0.74990   0.00000  Uiso   1.00
C877   C     0.95727   0.50000   0.75004   0.00000  Uiso   1.00
C878   C     0.70940   0.50000   0.74996   0.00000  Uiso   1.00
C879   C     0.80822   0.35815   0.72193   0.00000  Uiso   1.00
C880   C     0.85845   0.64185   0.77807   0.00000  Uiso   1.00
C881   C     0.85845   0.35816   0.77807   0.00000  Uiso   1.00
C882   C     0.80822   0.64184   0.72193   0.00000  Uiso   1.00
C883   C     0.83316   0.50001   0.66428   0.00000  Uiso   1.00
C884   C     0.83350   0.49999   0.83572   0.00000  Uiso   1.00
C885   C     0.84304   0.45862   0.90720   0.00000  Uiso   1.00
C886   C     0.82362   0.54138   0.59280   0.00000  Uiso   1.00
C887   C     0.83411   0.49998   0.88412   0.00000  Uiso   1.00
C888   C     0.83255   0.50002   0.61588   0.00000  Uiso   1.00
C889   C     0.82564   0.54128   0.90721   0.00000  Uiso   1.00
C890   C     0.84102   0.45872   0.59279   0.00000  Uiso   1.00
C891   C     0.82486   0.54131   0.95329   0.00000  Uiso   1.00
C892   C     0.84179   0.45869   0.54671   0.00000  Uiso   1.00
C893   C     0.83405   0.49982   0.97675   0.00000  Uiso   1.00
C894   C     0.83260   0.50018   0.52325   0.00000  Uiso   1.00
C895   C     0.84460   0.45809   0.95366   0.00000  Uiso   1.00
C896   C     0.82206   0.54191   0.54634   0.00000  Uiso   1.00
C897   C     0.81409   0.58222   0.97592   0.00000  Uiso   1.00
C898   C     0.85256   0.41778   0.52408   0.00000  Uiso   1.00
Cu899  Cu    0.83333   0.54689   0.75000   0.00000  Uiso   1.00
Cu900  Cu    0.83333   0.45311   0.75000   0.00000  Uiso   1.00
H901   H     0.80630   0.61353   0.95726   0.00000  Uiso   1.00
H902   H     0.86034   0.38646   0.54274   0.00000  Uiso   1.00
H903   H     0.70395   0.42409   0.75008   0.00000  Uiso   1.00
H904   H     0.96272   0.57591   0.74992   0.00000  Uiso   1.00
H905   H     0.96270   0.42409   0.75018   0.00000  Uiso   1.00
H906   H     0.70397   0.57591   0.74982   0.00000  Uiso   1.00
H907   H     0.78810   0.37688   0.69947   0.00000  Uiso   1.00
H908   H     0.87857   0.62312   0.80053   0.00000  Uiso   1.00
H909   H     0.87856   0.37689   0.80055   0.00000  Uiso   1.00
H910   H     0.78811   0.62311   0.69945   0.00000  Uiso   1.00
N911   N     0.83333   0.61736   0.75000   0.00000  Uiso   1.00
N912   N     0.83333   0.38264   0.75000   0.00000  Uiso   1.00
O913   O     0.77321   0.53958   0.75000   0.00000  Uiso   1.00
O914   O     0.89345   0.46042   0.75001   0.00000  Uiso   1.00
O915   O     0.89345   0.53958   0.75001   0.00000  Uiso   1.00
O916   O     0.77321   0.46042   0.75000   0.00000  Uiso   1.00
O917   O     0.83332   0.53960   0.68513   0.00000  Uiso   1.00
O918   O     0.83334   0.46040   0.81487   0.00000  Uiso   1.00
O919   O     0.83334   0.53960   0.81487   0.00000  Uiso   1.00
O920   O     0.83332   0.46040   0.68513   0.00000  Uiso   1.00
H921   H     0.84808   0.42699   0.88839   0.00000  Uiso   1.00
H922   H     0.81859   0.57301   0.61161   0.00000  Uiso   1.00
H923   H     0.81852   0.57324   0.88928   0.00000  Uiso   1.00
H924   H     0.84813   0.42676   0.61072   0.00000  Uiso   1.00
C925   C     0.79637   0.62709   0.54251   0.00000  Uiso   1.00
H926   H     0.80182   0.66025   0.52589   0.00000  Uiso   1.00
O927   O     0.77531   0.62695   0.57593   0.00000  Uiso   1.00
C928   C     0.87029   0.37290   0.95749   0.00000  Uiso   1.00
H929   H     0.86484   0.33975   0.97412   0.00000  Uiso   1.00
O930   O     0.89134   0.37305   0.92407   0.00000  Uiso   1.00
C931   C     0.08734   0.83333   0.74996   0.00000  Uiso   1.00
C932   C     0.24599   0.83333   0.75004   0.00000  Uiso   1.00
C933   C     0.14486   0.91629   0.52212   0.00000  Uiso   1.00
C934   C     0.18846   0.75038   0.97788   0.00000  Uiso   1.00
C935   C     0.02128   0.79073   0.75004   0.00000  Uiso   1.00
C936   C     0.31206   0.87594   0.74996   0.00000  Uiso   1.00
C937   C     0.31205   0.79073   0.75010   0.00000  Uiso   1.00
C938   C     0.02129   0.87594   0.74990   0.00000  Uiso   1.00
C939   C     0.29060   0.83333   0.75004   0.00000  Uiso   1.00
C940   C     0.04273   0.83333   0.74996   0.00000  Uiso   1.00
C941   C     0.14155   0.69148   0.72193   0.00000  Uiso   1.00
C942   C     0.19178   0.97518   0.77807   0.00000  Uiso   1.00
C943   C     0.19178   0.69149   0.77807   0.00000  Uiso   1.00
C944   C     0.14155   0.97518   0.72193   0.00000  Uiso   1.00
C945   C     0.16650   0.83334   0.66428   0.00000  Uiso   1.00
C946   C     0.16684   0.83333   0.83572   0.00000  Uiso   1.00
C947   C     0.17637   0.79195   0.90720   0.00000  Uiso   1.00
C948   C     0.15696   0.87472   0.59280   0.00000  Uiso   1.00
C949   C     0.16744   0.83331   0.88412   0.00000  Uiso   1.00
C950   C     0.16588   0.83335   0.61588   0.00000  Uiso   1.00
C951   C     0.15897   0.87461   0.90721   0.00000  Uiso   1.00
C952   C     0.17435   0.79206   0.59279   0.00000  Uiso   1.00
C953   C     0.15820   0.87464   0.95329   0.00000  Uiso   1.00
C954   C     0.17512   0.79203   0.54671   0.00000  Uiso   1.00
C955   C     0.16739   0.83315   0.97675   0.00000  Uiso   1.00
C956   C     0.16593   0.83351   0.52325   0.00000  Uiso   1.00
C957   C     0.17793   0.79142   0.95366   0.00000  Uiso   1.00
C958   C     0.15539   0.87524   0.54634   0.00000  Uiso   1.00
C959   C     0.14743   0.91555   0.97592   0.00000  Uiso   1.00
C960   C     0.18589   0.75111   0.52408   0.00000  Uiso   1.00
Cu961  Cu    0.16667   0.88022   0.75000   0.00000  Uiso   1.00
Cu962  Cu    0.16667   0.78645   0.75000   0.00000  Uiso   1.00
H963   H     0.13963   0.94687   0.95726   0.00000  Uiso   1.00
H964   H     0.19368   0.71980   0.54274   0.00000  Uiso   1.00
H965   H     0.03729   0.75742   0.75008   0.00000  Uiso   1.00
H966   H     0.29605   0.90925   0.74992   0.00000  Uiso   1.00
H967   H     0.29604   0.75742   0.75018   0.00000  Uiso   1.00
H968   H     0.03730   0.90925   0.74982   0.00000  Uiso   1.00
H969   H     0.12143   0.71021   0.69947   0.00000  Uiso   1.00
H970   H     0.21190   0.95645   0.80053   0.00000  Uiso   1.00
H971   H     0.21189   0.71023   0.80055   0.00000  Uiso   1.00
H972   H     0.12144   0.95644   0.69945   0.00000  Uiso   1.00
N973   N     0.16667   0.95069   0.75000   0.00000  Uiso   1.00
N974   N     0.16667   0.71598   0.75000   0.00000  Uiso   1.00
O975   O     0.10655   0.87291   0.75000   0.00000  Uiso   1.00
O976   O     0.22679   0.79375   0.75001   0.00000  Uiso   1.00
O977   O     0.22679   0.87291   0.75001   0.00000  Uiso   1.00
O978   O     0.10655   0.79375   0.75000   0.00000  Uiso   1.00
O979   O     0.16666   0.87293   0.68513   0.00000  Uiso   1.00
O980   O     0.16668   0.79373   0.81487   0.00000  Uiso   1.00
O981   O     0.16668   0.87293   0.81487   0.00000  Uiso   1.00
O982   O     0.16666   0.79373   0.68513   0.00000  Uiso   1.00
H983   H     0.18141   0.76032   0.88839   0.00000  Uiso   1.00
H984   H     0.15192   0.90635   0.61161   0.00000  Uiso   1.00
H985   H     0.15185   0.90657   0.88928   0.00000  Uiso   1.00
H986   H     0.18147   0.76010   0.61072   0.00000  Uiso   1.00
C987   C     0.12970   0.96043   0.54251   0.00000  Uiso   1.00
H988   H     0.13516   0.99358   0.52589   0.00000  Uiso   1.00
O989   O     0.10864   0.96028   0.57593   0.00000  Uiso   1.00
C990   C     0.20362   0.70624   0.95749   0.00000  Uiso   1.00
H991   H     0.19818   0.67308   0.97412   0.00000  Uiso   1.00
O992   O     0.22467   0.70638   0.92407   0.00000  Uiso   1.00
C993   C     0.42068   0.83333   0.74996   0.00000  Uiso   1.00
C994   C     0.57932   0.83333   0.75004   0.00000  Uiso   1.00
C995   C     0.47820   0.91629   0.52212   0.00000  Uiso   1.00
C996   C     0.52179   0.75038   0.97788   0.00000  Uiso   1.00
C997   C     0.35461   0.79073   0.75004   0.00000  Uiso   1.00
C998   C     0.64539   0.87594   0.74996   0.00000  Uiso   1.00
C999   C     0.64538   0.79073   0.75010   0.00000  Uiso   1.00
C1000  C     0.35462   0.87594   0.74990   0.00000  Uiso   1.00
C1001  C     0.62393   0.83333   0.75004   0.00000  Uiso   1.00
C1002  C     0.37607   0.83333   0.74996   0.00000  Uiso   1.00
C1003  C     0.47488   0.69148   0.72193   0.00000  Uiso   1.00
C1004  C     0.52512   0.97518   0.77807   0.00000  Uiso   1.00
C1005  C     0.52512   0.69149   0.77807   0.00000  Uiso   1.00
C1006  C     0.47489   0.97518   0.72193   0.00000  Uiso   1.00
C1007  C     0.49983   0.83334   0.66428   0.00000  Uiso   1.00
C1008  C     0.50017   0.83333   0.83572   0.00000  Uiso   1.00
C1009  C     0.50970   0.79195   0.90720   0.00000  Uiso   1.00
C1010  C     0.49029   0.87472   0.59280   0.00000  Uiso   1.00
C1011  C     0.50078   0.83331   0.88412   0.00000  Uiso   1.00
C1012  C     0.49922   0.83335   0.61588   0.00000  Uiso   1.00
C1013  C     0.49230   0.87461   0.90721   0.00000  Uiso   1.00
C1014  C     0.50769   0.79206   0.59279   0.00000  Uiso   1.00
C1015  C     0.49153   0.87464   0.95329   0.00000  Uiso   1.00
C1016  C     0.50845   0.79203   0.54671   0.00000  Uiso   1.00
C1017  C     0.50072   0.83315   0.97675   0.00000  Uiso   1.00
C1018  C     0.49927   0.83351   0.52325   0.00000  Uiso   1.00
C1019  C     0.51126   0.79142   0.95366   0.00000  Uiso   1.00
C1020  C     0.48873   0.87524   0.54634   0.00000  Uiso   1.00
C1021  C     0.48076   0.91555   0.97592   0.00000  Uiso   1.00
C1022  C     0.51922   0.75111   0.52408   0.00000  Uiso   1.00
Cu1023 Cu    0.50000   0.88022   0.75000   0.00000  Uiso   1.00
Cu1024 Cu    0.50000   0.78645   0.75000   0.00000  Uiso   1.00
H1025  H     0.47297   0.94687   0.95726   0.00000  Uiso   1.00
H1026  H     0.52701   0.71980   0.54274   0.00000  Uiso   1.00
H1027  H     0.37062   0.75742   0.75008   0.00000  Uiso   1.00
H1028  H     0.62938   0.90925   0.74992   0.00000  Uiso   1.00
H1029  H     0.62937   0.75742   0.75018   0.00000  Uiso   1.00
H1030  H     0.37063   0.90925   0.74982   0.00000  Uiso   1.00
H1031  H     0.45477   0.71021   0.69947   0.00000  Uiso   1.00
H1032  H     0.54524   0.95645   0.80053   0.00000  Uiso   1.00
H1033  H     0.54522   0.71023   0.80055   0.00000  Uiso   1.00
H1034  H     0.45478   0.95644   0.69945   0.00000  Uiso   1.00
N1035  N     0.50000   0.95069   0.75000   0.00000  Uiso   1.00
N1036  N     0.50000   0.71598   0.75000   0.00000  Uiso   1.00
O1037  O     0.43988   0.87291   0.75000   0.00000  Uiso   1.00
O1038  O     0.56012   0.79375   0.75001   0.00000  Uiso   1.00
O1039  O     0.56012   0.87291   0.75001   0.00000  Uiso   1.00
O1040  O     0.43988   0.79375   0.75000   0.00000  Uiso   1.00
O1041  O     0.49999   0.87293   0.68513   0.00000  Uiso   1.00
O1042  O     0.50001   0.79373   0.81487   0.00000  Uiso   1.00
O1043  O     0.50001   0.87293   0.81487   0.00000  Uiso   1.00
O1044  O     0.49999   0.79373   0.68513   0.00000  Uiso   1.00
H1045  H     0.51475   0.76032   0.88839   0.00000  Uiso   1.00
H1046  H     0.48525   0.90635   0.61161   0.00000  Uiso   1.00
H1047  H     0.48519   0.90657   0.88928   0.00000  Uiso   1.00
H1048  H     0.51480   0.76010   0.61072   0.00000  Uiso   1.00
C1049  C     0.46303   0.96043   0.54251   0.00000  Uiso   1.00
H1050  H     0.46849   0.99358   0.52589   0.00000  Uiso   1.00
O1051  O     0.44198   0.96028   0.57593   0.00000  Uiso   1.00
C1052  C     0.53696   0.70624   0.95749   0.00000  Uiso   1.00
H1053  H     0.53151   0.67308   0.97412   0.00000  Uiso   1.00
O1054  O     0.55801   0.70638   0.92407   0.00000  Uiso   1.00
C1055  C     0.75401   0.83333   0.74996   0.00000  Uiso   1.00
C1056  C     0.91266   0.83333   0.75004   0.00000  Uiso   1.00
C1057  C     0.81153   0.91629   0.52212   0.00000  Uiso   1.00
C1058  C     0.85512   0.75038   0.97788   0.00000  Uiso   1.00
C1059  C     0.68794   0.79073   0.75004   0.00000  Uiso   1.00
C1060  C     0.97872   0.87594   0.74996   0.00000  Uiso   1.00
C1061  C     0.97871   0.79073   0.75010   0.00000  Uiso   1.00
C1062  C     0.68795   0.87594   0.74990   0.00000  Uiso   1.00
C1063  C     0.95727   0.83333   0.75004   0.00000  Uiso   1.00
C1064  C     0.70940   0.83333   0.74996   0.00000  Uiso   1.00
C1065  C     0.80822   0.69148   0.72193   0.00000  Uiso   1.00
C1066  C     0.85845   0.97518   0.77807   0.00000  Uiso   1.00
C1067  C     0.85845   0.69149   0.77807   0.00000  Uiso   1.00
C1068  C     0.80822   0.97518   0.72193   0.00000  Uiso   1.00
C1069  C     0.83316   0.83334   0.66428   0.00000  Uiso   1.00
C1070  C     0.83350   0.83333   0.83572   0.00000  Uiso   1.00
C1071  C     0.84304   0.79195   0.90720   0.00000  Uiso   1.00
C1072  C     0.82362   0.87472   0.59280   0.00000  Uiso   1.00
C1073  C     0.83411   0.83331   0.88412   0.00000  Uiso   1.00
C1074  C     0.83255   0.83335   0.61588   0.00000  Uiso   1.00
C1075  C     0.82564   0.87461   0.90721   0.00000  Uiso   1.00
C1076  C     0.84102   0.79206   0.59279   0.00000  Uiso   1.00
C1077  C     0.82486   0.87464   0.95329   0.00000  Uiso   1.00
C1078  C     0.84179   0.79203   0.54671   0.00000  Uiso   1.00
C1079  C     0.83405   0.83315   0.97675   0.00000  Uiso   1.00
C1080  C     0.83260   0.83351   0.52325   0.00000  Uiso   1.00
C1081  C     0.84460   0.79142   0.95366   0.00000  Uiso   1.00
C1082  C     0.82206   0.87524   0.54634   0.00000  Uiso   1.00
C1083  C     0.81409   0.91555   0.97592   0.00000  Uiso   1.00
C1084  C     0.85256   0.75111   0.52408   0.00000  Uiso   1.00
Cu1085 Cu    0.83333   0.88022   0.75000   0.00000  Uiso   1.00
Cu1086 Cu    0.83333   0.78645   0.75000   0.00000  Uiso   1.00
H1087  H     0.80630   0.94687   0.95726   0.00000  Uiso   1.00
H1088  H     0.86034   0.71980   0.54274   0.00000  Uiso   1.00
H1089  H     0.70395   0.75742   0.75008   0.00000  Uiso   1.00
H1090  H     0.96272   0.90925   0.74992   0.00000  Uiso   1.00
H1091  H     0.96270   0.75742   0.75018   0.00000  Uiso   1.00
H1092  H     0.70397   0.90925   0.74982   0.00000  Uiso   1.00
H1093  H     0.78810   0.71021   0.69947   0.00000  Uiso   1.00
H1094  H     0.87857   0.95645   0.80053   0.00000  Uiso   1.00
H1095  H     0.87856   0.71023   0.80055   0.00000  Uiso   1.00
H1096  H     0.78811   0.95644   0.69945   0.00000  Uiso   1.00
N1097  N     0.83333   0.95069   0.75000   0.00000  Uiso   1.00
N1098  N     0.83333   0.71598   0.75000   0.00000  Uiso   1.00
O1099  O     0.77321   0.87291   0.75000   0.00000  Uiso   1.00
O1100  O     0.89345   0.79375   0.75001   0.00000  Uiso   1.00
O1101  O     0.89345   0.87291   0.75001   0.00000  Uiso   1.00
O1102  O     0.77321   0.79375   0.75000   0.00000  Uiso   1.00
O1103  O     0.83332   0.87293   0.68513   0.00000  Uiso   1.00
O1104  O     0.83334   0.79373   0.81487   0.00000  Uiso   1.00
O1105  O     0.83334   0.87293   0.81487   0.00000  Uiso   1.00
O1106  O     0.83332   0.79373   0.68513   0.00000  Uiso   1.00
H1107  H     0.84808   0.76032   0.88839   0.00000  Uiso   1.00
H1108  H     0.81859   0.90635   0.61161   0.00000  Uiso   1.00
H1109  H     0.81852   0.90657   0.88928   0.00000  Uiso   1.00
H1110  H     0.84813   0.76010   0.61072   0.00000  Uiso   1.00
C1111  C     0.79637   0.96043   0.54251   0.00000  Uiso   1.00
H1112  H     0.80182   0.99358   0.52589   0.00000  Uiso   1.00
O1113  O     0.77531   0.96028   0.57593   0.00000  Uiso   1.00
C1114  C     0.87029   0.70624   0.95749   0.00000  Uiso   1.00
H1115  H     0.86484   0.67308   0.97412   0.00000  Uiso   1.00
O1116  O     0.89134   0.70638   0.92407   0.00000  Uiso   1.00
loop_
_geom_bond_atom_site_label_1
_geom_bond_atom_site_label_2
_geom_bond_distance
_geom_bond_site_symmetry_2
_ccdc_geom_bond_type
C1     O48     1.290   .     A
C1     O45     1.290   .     A
C1     C10     1.450   .     S
C2     O47     1.290   .     A
C2     O46     1.290   .     A
C2     C9      1.450   .     S
C3     C28     1.421   .     A
C3     C57     1.486   .     S
C3     C587    1.397   1_554 S
C4     C60     1.486   .     S
C4     C27     1.421   .     A
C4     C588    1.397   .     S
C5     H35     1.083   .     S
C5     C10     1.401   .     A
C5     C131    1.383   1_455 S
C6     C9      1.401   .     A
C6     H36     1.083   .     S
C6     C70     1.383   .     S
C7     C9      1.401   .     A
C7     H37     1.083   .     S
C7     C67     1.383   .     S
C8     H38     1.083   .     S
C8     C10     1.401   .     A
C8     C130    1.383   1_455 S
C11    N44     1.367   .     A
C11    H39     1.082   .     S
C11    C386    1.416   1_545 S
C12    H40     1.082   .     S
C12    N43     1.367   .     A
C12    C199    1.416   .     S
C13    H41     1.082   .     S
C13    N44     1.367   .     A
C13    C384    1.416   1_545 S
C14    H42     1.082   .     S
C14    N43     1.367   .     A
C14    C197    1.416   .     S
C15    O52     1.293   .     A
C15    O49     1.293   .     A
C15    C20     1.461   .     S
C16    O51     1.293   .     A
C16    C19     1.461   .     S
C16    O50     1.293   .     A
C17    C27     1.403   .     A
C17    H53     1.079   .     S
C17    C19     1.400   .     A
C18    C20     1.400   .     A
C18    C28     1.403   .     A
C18    H54     1.079   .     S
C19    C21     1.396   .     A
C20    C22     1.396   .     A
C21    C23     1.391   .     A
C21    H55     1.085   .     S
C22    H56     1.085   .     S
C22    C24     1.391   .     A
C23    C29     1.397   .     A
C23    C25     1.411   .     A
C24    C30     1.397   .     A
C24    C26     1.411   .     A
C25    C27     1.422   .     A
C25    C584    1.404   .     S
C26    C28     1.422   .     A
C26    C583    1.404   1_554 S
C29    H33     1.085   .     S
C29    C561    1.397   .     S
C30    H34     1.085   .     S
C30    C562    1.397   1_554 S
Cu31   Cu32    2.675   .     S
Cu31   O47     1.965   .     S
Cu31   N43     2.010   .     S
Cu31   O49     1.968   .     S
Cu31   O45     1.965   .     S
Cu31   O51     1.968   .     S
Cu32   O50     1.968   .     S
Cu32   N44     2.010   .     S
Cu32   O48     1.965   .     S
Cu32   O52     1.968   .     S
Cu32   O46     1.965   .     S
C57    H58     1.085   .     S
C57    O59     1.220   .     D
C60    O62     1.220   .     D
C60    H61     1.085   .     S
C63    O110    1.290   .     A
C63    O107    1.290   .     A
C63    C72     1.450   .     S
C64    O109    1.290   .     A
C64    O108    1.290   .     A
C64    C71     1.450   .     S
C65    C90     1.421   .     A
C65    C119    1.486   .     S
C65    C649    1.397   1_554 S
C66    C122    1.486   .     S
C66    C89     1.421   .     A
C66    C650    1.397   .     S
C67    H97     1.083   .     S
C67    C72     1.401   .     A
C68    C71     1.401   .     A
C68    H98     1.083   .     S
C68    C132    1.383   .     S
C69    C71     1.401   .     A
C69    H99     1.083   .     S
C69    C129    1.383   .     S
C70    H100    1.083   .     S
C70    C72     1.401   .     A
C73    N106    1.367   .     A
C73    H101    1.082   .     S
C73    C448    1.416   1_545 S
C74    H102    1.082   .     S
C74    N105    1.367   .     A
C74    C261    1.416   .     S
C75    H103    1.082   .     S
C75    N106    1.367   .     A
C75    C446    1.416   1_545 S
C76    H104    1.082   .     S
C76    N105    1.367   .     A
C76    C259    1.416   .     S
C77    O114    1.293   .     A
C77    O111    1.293   .     A
C77    C82     1.461   .     S
C78    O113    1.293   .     A
C78    C81     1.461   .     S
C78    O112    1.293   .     A
C79    C89     1.403   .     A
C79    H115    1.079   .     S
C79    C81     1.400   .     A
C80    C82     1.400   .     A
C80    C90     1.403   .     A
C80    H116    1.079   .     S
C81    C83     1.396   .     A
C82    C84     1.396   .     A
C83    C85     1.391   .     A
C83    H117    1.085   .     S
C84    H118    1.085   .     S
C84    C86     1.391   .     A
C85    C91     1.397   .     A
C85    C87     1.411   .     A
C86    C92     1.397   .     A
C86    C88     1.411   .     A
C87    C89     1.422   .     A
C87    C646    1.404   .     S
C88    C90     1.422   .     A
C88    C645    1.404   1_554 S
C91    H95     1.085   .     S
C91    C623    1.397   .     S
C92    H96     1.085   .     S
C92    C624    1.397   1_554 S
Cu93   Cu94    2.675   .     S
Cu93   O109    1.965   .     S
Cu93   N105    2.010   .     S
Cu93   O111    1.968   .     S
Cu93   O107    1.965   .     S
Cu93   O113    1.968   .     S
Cu94   O112    1.968   .     S
Cu94   N106    2.010   .     S
Cu94   O110    1.965   .     S
Cu94   O114    1.968   .     S
Cu94   O108    1.965   .     S
C119   H120    1.085   .     S
C119   O121    1.220   .     D
C122   O124    1.220   .     D
C122   H123    1.085   .     S
C125   O172    1.290   .     A
C125   O169    1.290   .     A
C125   C134    1.450   .     S
C126   O171    1.290   .     A
C126   O170    1.290   .     A
C126   C133    1.450   .     S
C127   C152    1.421   .     A
C127   C181    1.486   .     S
C127   C711    1.397   1_554 S
C128   C184    1.486   .     S
C128   C151    1.421   .     A
C128   C712    1.397   .     S
C129   H159    1.083   .     S
C129   C134    1.401   .     A
C130   C133    1.401   .     A
C130   H160    1.083   .     S
C130   C8      1.383   1_655 S
C131   C133    1.401   .     A
C131   H161    1.083   .     S
C131   C5      1.383   1_655 S
C132   H162    1.083   .     S
C132   C134    1.401   .     A
C135   N168    1.367   .     A
C135   H163    1.082   .     S
C135   C510    1.416   1_545 S
C136   H164    1.082   .     S
C136   N167    1.367   .     A
C136   C323    1.416   .     S
C137   H165    1.082   .     S
C137   N168    1.367   .     A
C137   C508    1.416   1_545 S
C138   H166    1.082   .     S
C138   N167    1.367   .     A
C138   C321    1.416   .     S
C139   O176    1.293   .     A
C139   O173    1.293   .     A
C139   C144    1.461   .     S
C140   O175    1.293   .     A
C140   C143    1.461   .     S
C140   O174    1.293   .     A
C141   C151    1.403   .     A
C141   H177    1.079   .     S
C141   C143    1.400   .     A
C142   C144    1.400   .     A
C142   C152    1.403   .     A
C142   H178    1.079   .     S
C143   C145    1.396   .     A
C144   C146    1.396   .     A
C145   C147    1.391   .     A
C145   H179    1.085   .     S
C146   H180    1.085   .     S
C146   C148    1.391   .     A
C147   C153    1.397   .     A
C147   C149    1.411   .     A
C148   C154    1.397   .     A
C148   C150    1.411   .     A
C149   C151    1.422   .     A
C149   C708    1.404   .     S
C150   C152    1.422   .     A
C150   C707    1.404   1_554 S
C153   H157    1.085   .     S
C153   C685    1.397   .     S
C154   H158    1.085   .     S
C154   C686    1.397   1_554 S
Cu155  Cu156   2.675   .     S
Cu155  O171    1.965   .     S
Cu155  N167    2.010   .     S
Cu155  O173    1.968   .     S
Cu155  O169    1.965   .     S
Cu155  O175    1.968   .     S
Cu156  O174    1.968   .     S
Cu156  N168    2.010   .     S
Cu156  O172    1.965   .     S
Cu156  O176    1.968   .     S
Cu156  O170    1.965   .     S
C181   H182    1.085   .     S
C181   O183    1.220   .     D
C184   O186    1.220   .     D
C184   H185    1.085   .     S
C187   O234    1.290   .     A
C187   O231    1.290   .     A
C187   C196    1.450   .     S
C188   O233    1.290   .     A
C188   O232    1.290   .     A
C188   C195    1.450   .     S
C189   C214    1.421   .     A
C189   C243    1.486   .     S
C189   C773    1.397   1_554 S
C190   C246    1.486   .     S
C190   C213    1.421   .     A
C190   C774    1.397   .     S
C191   H221    1.083   .     S
C191   C196    1.401   .     A
C191   C317    1.383   1_455 S
C192   C195    1.401   .     A
C192   H222    1.083   .     S
C192   C256    1.383   .     S
C193   C195    1.401   .     A
C193   H223    1.083   .     S
C193   C253    1.383   .     S
C194   H224    1.083   .     S
C194   C196    1.401   .     A
C194   C316    1.383   1_455 S
C197   N230    1.367   .     A
C197   H225    1.082   .     S
C198   H226    1.082   .     S
C198   N229    1.367   .     A
C198   C385    1.416   .     S
C199   H227    1.082   .     S
C199   N230    1.367   .     A
C200   H228    1.082   .     S
C200   N229    1.367   .     A
C200   C383    1.416   .     S
C201   O238    1.293   .     A
C201   O235    1.293   .     A
C201   C206    1.461   .     S
C202   O237    1.293   .     A
C202   C205    1.461   .     S
C202   O236    1.293   .     A
C203   C213    1.403   .     A
C203   H239    1.079   .     S
C203   C205    1.400   .     A
C204   C206    1.400   .     A
C204   C214    1.403   .     A
C204   H240    1.079   .     S
C205   C207    1.396   .     A
C206   C208    1.396   .     A
C207   C209    1.391   .     A
C207   H241    1.085   .     S
C208   H242    1.085   .     S
C208   C210    1.391   .     A
C209   C215    1.397   .     A
C209   C211    1.411   .     A
C210   C216    1.397   .     A
C210   C212    1.411   .     A
C211   C213    1.422   .     A
C211   C770    1.404   .     S
C212   C214    1.422   .     A
C212   C769    1.404   1_554 S
C215   H219    1.085   .     S
C215   C747    1.397   .     S
C216   H220    1.085   .     S
C216   C748    1.397   1_554 S
Cu217  Cu218   2.675   .     S
Cu217  O233    1.965   .     S
Cu217  N229    2.010   .     S
Cu217  O235    1.968   .     S
Cu217  O231    1.965   .     S
Cu217  O237    1.968   .     S
Cu218  O236    1.968   .     S
Cu218  N230    2.010   .     S
Cu218  O234    1.965   .     S
Cu218  O238    1.968   .     S
Cu218  O232    1.965   .     S
C243   H244    1.085   .     S
C243   O245    1.220   .     D
C246   O248    1.220   .     D
C246   H247    1.085   .     S
C249   O296    1.290   .     A
C249   O293    1.290   .     A
C249   C258    1.450   .     S
C250   O295    1.290   .     A
C250   O294    1.290   .     A
C250   C257    1.450   .     S
C251   C276    1.421   .     A
C251   C305    1.486   .     S
C251   C835    1.397   1_554 S
C252   C308    1.486   .     S
C252   C275    1.421   .     A
C252   C836    1.397   .     S
C253   H283    1.083   .     S
C253   C258    1.401   .     A
C254   C257    1.401   .     A
C254   H284    1.083   .     S
C254   C318    1.383   .     S
C255   C257    1.401   .     A
C255   H285    1.083   .     S
C255   C315    1.383   .     S
C256   H286    1.083   .     S
C256   C258    1.401   .     A
C259   N292    1.367   .     A
C259   H287    1.082   .     S
C260   H288    1.082   .     S
C260   N291    1.367   .     A
C260   C447    1.416   .     S
C261   H289    1.082   .     S
C261   N292    1.367   .     A
C262   H290    1.082   .     S
C262   N291    1.367   .     A
C262   C445    1.416   .     S
C263   O300    1.293   .     A
C263   O297    1.293   .     A
C263   C268    1.461   .     S
C264   O299    1.293   .     A
C264   C267    1.461   .     S
C264   O298    1.293   .     A
C265   C275    1.403   .     A
C265   H301    1.079   .     S
C265   C267    1.400   .     A
C266   C268    1.400   .     A
C266   C276    1.403   .     A
C266   H302    1.079   .     S
C267   C269    1.396   .     A
C268   C270    1.396   .     A
C269   C271    1.391   .     A
C269   H303    1.085   .     S
C270   H304    1.085   .     S
C270   C272    1.391   .     A
C271   C277    1.397   .     A
C271   C273    1.411   .     A
C272   C278    1.397   .     A
C272   C274    1.411   .     A
C273   C275    1.422   .     A
C273   C832    1.404   .     S
C274   C276    1.422   .     A
C274   C831    1.404   1_554 S
C277   H281    1.085   .     S
C277   C809    1.397   .     S
C278   H282    1.085   .     S
C278   C810    1.397   1_554 S
Cu279  Cu280   2.675   .     S
Cu279  O295    1.965   .     S
Cu279  N291    2.010   .     S
Cu279  O297    1.968   .     S
Cu279  O293    1.965   .     S
Cu279  O299    1.968   .     S
Cu280  O298    1.968   .     S
Cu280  N292    2.010   .     S
Cu280  O296    1.965   .     S
Cu280  O300    1.968   .     S
Cu280  O294    1.965   .     S
C305   H306    1.085   .     S
C305   O307    1.220   .     D
C308   O310    1.220   .     D
C308   H309    1.085   .     S
C311   O358    1.290   .     A
C311   O355    1.290   .     A
C311   C320    1.450   .     S
C312   O357    1.290   .     A
C312   O356    1.290   .     A
C312   C319    1.450   .     S
C313   C338    1.421   .     A
C313   C367    1.486   .     S
C313   C897    1.397   1_554 S
C314   C370    1.486   .     S
C314   C337    1.421   .     A
C314   C898    1.397   .     S
C315   H345    1.083   .     S
C315   C320    1.401   .     A
C316   C319    1.401   .     A
C316   H346    1.083   .     S
C316   C194    1.383   1_655 S
C317   C319    1.401   .     A
C317   H347    1.083   .     S
C317   C191    1.383   1_655 S
C318   H348    1.083   .     S
C318   C320    1.401   .     A
C321   N354    1.367   .     A
C321   H349    1.082   .     S
C322   H350    1.082   .     S
C322   N353    1.367   .     A
C322   C509    1.416   .     S
C323   H351    1.082   .     S
C323   N354    1.367   .     A
C324   H352    1.082   .     S
C324   N353    1.367   .     A
C324   C507    1.416   .     S
C325   O362    1.293   .     A
C325   O359    1.293   .     A
C325   C330    1.461   .     S
C326   O361    1.293   .     A
C326   C329    1.461   .     S
C326   O360    1.293   .     A
C327   C337    1.403   .     A
C327   H363    1.079   .     S
C327   C329    1.400   .     A
C328   C330    1.400   .     A
C328   C338    1.403   .     A
C328   H364    1.079   .     S
C329   C331    1.396   .     A
C330   C332    1.396   .     A
C331   C333    1.391   .     A
C331   H365    1.085   .     S
C332   H366    1.085   .     S
C332   C334    1.391   .     A
C333   C339    1.397   .     A
C333   C335    1.411   .     A
C334   C340    1.397   .     A
C334   C336    1.411   .     A
C335   C337    1.422   .     A
C335   C894    1.404   .     S
C336   C338    1.422   .     A
C336   C893    1.404   1_554 S
C339   H343    1.085   .     S
C339   C871    1.397   .     S
C340   H344    1.085   .     S
C340   C872    1.397   1_554 S
Cu341  Cu342   2.675   .     S
Cu341  O357    1.965   .     S
Cu341  N353    2.010   .     S
Cu341  O359    1.968   .     S
Cu341  O355    1.965   .     S
Cu341  O361    1.968   .     S
Cu342  O360    1.968   .     S
Cu342  N354    2.010   .     S
Cu342  O358    1.965   .     S
Cu342  O362    1.968   .     S
Cu342  O356    1.965   .     S
C367   H368    1.085   .     S
C367   O369    1.220   .     D
C370   O372    1.220   .     D
C370   H371    1.085   .     S
C373   O420    1.290   .     A
C373   O417    1.290   .     A
C373   C382    1.450   .     S
C374   O419    1.290   .     A
C374   O418    1.290   .     A
C374   C381    1.450   .     S
C375   C400    1.421   .     A
C375   C429    1.486   .     S
C375   C959    1.397   1_554 S
C376   C432    1.486   .     S
C376   C399    1.421   .     A
C376   C960    1.397   .     S
C377   H407    1.083   .     S
C377   C382    1.401   .     A
C377   C503    1.383   1_455 S
C378   C381    1.401   .     A
C378   H408    1.083   .     S
C378   C442    1.383   .     S
C379   C381    1.401   .     A
C379   H409    1.083   .     S
C379   C439    1.383   .     S
C380   H410    1.083   .     S
C380   C382    1.401   .     A
C380   C502    1.383   1_455 S
C383   N416    1.367   .     A
C383   H411    1.082   .     S
C384   H412    1.082   .     S
C384   N415    1.367   .     A
C384   C13     1.416   1_565 S
C385   H413    1.082   .     S
C385   N416    1.367   .     A
C386   H414    1.082   .     S
C386   N415    1.367   .     A
C386   C11     1.416   1_565 S
C387   O424    1.293   .     A
C387   O421    1.293   .     A
C387   C392    1.461   .     S
C388   O423    1.293   .     A
C388   C391    1.461   .     S
C388   O422    1.293   .     A
C389   C399    1.403   .     A
C389   H425    1.079   .     S
C389   C391    1.400   .     A
C390   C392    1.400   .     A
C390   C400    1.403   .     A
C390   H426    1.079   .     S
C391   C393    1.396   .     A
C392   C394    1.396   .     A
C393   C395    1.391   .     A
C393   H427    1.085   .     S
C394   H428    1.085   .     S
C394   C396    1.391   .     A
C395   C401    1.397   .     A
C395   C397    1.411   .     A
C396   C402    1.397   .     A
C396   C398    1.411   .     A
C397   C399    1.422   .     A
C397   C956    1.404   .     S
C398   C400    1.422   .     A
C398   C955    1.404   1_554 S
C401   H405    1.085   .     S
C401   C933    1.397   .     S
C402   H406    1.085   .     S
C402   C934    1.397   1_554 S
Cu403  Cu404   2.675   .     S
Cu403  O419    1.965   .     S
Cu403  N415    2.010   .     S
Cu403  O421    1.968   .     S
Cu403  O417    1.965   .     S
Cu403  O423    1.968   .     S
Cu404  O422    1.968   .     S
Cu404  N416    2.010   .     S
Cu404  O420    1.965   .     S
Cu404  O424    1.968   .     S
Cu404  O418    1.965   .     S
C429   H430    1.085   .     S
C429   O431    1.220   .     D
C432   O434    1.220   .     D
C432   H433    1.085   .     S
C435   O482    1.290   .     A
C435   O479    1.290   .     A
C435   C444    1.450   .     S
C436   O481    1.290   .     A
C436   O480    1.290   .     A
C436   C443    1.450   .     S
C437   C462    1.421   .     A
C437   C491    1.486   .     S
C437   C1021   1.397   1_554 S
C438   C494    1.486   .     S
C438   C461    1.421   .     A
C438   C1022   1.397   .     S
C439   H469    1.083   .     S
C439   C444    1.401   .     A
C440   C443    1.401   .     A
C440   H470    1.083   .     S
C440   C504    1.383   .     S
C441   C443    1.401   .     A
C441   H471    1.083   .     S
C441   C501    1.383   .     S
C442   H472    1.083   .     S
C442   C444    1.401   .     A
C445   N478    1.367   .     A
C445   H473    1.082   .     S
C446   H474    1.082   .     S
C446   N477    1.367   .     A
C446   C75     1.416   1_565 S
C447   H475    1.082   .     S
C447   N478    1.367   .     A
C448   H476    1.082   .     S
C448   N477    1.367   .     A
C448   C73     1.416   1_565 S
C449   O486    1.293   .     A
C449   O483    1.293   .     A
C449   C454    1.461   .     S
C450   O485    1.293   .     A
C450   C453    1.461   .     S
C450   O484    1.293   .     A
C451   C461    1.403   .     A
C451   H487    1.079   .     S
C451   C453    1.400   .     A
C452   C454    1.400   .     A
C452   C462    1.403   .     A
C452   H488    1.079   .     S
C453   C455    1.396   .     A
C454   C456    1.396   .     A
C455   C457    1.391   .     A
C455   H489    1.085   .     S
C456   H490    1.085   .     S
C456   C458    1.391   .     A
C457   C463    1.397   .     A
C457   C459    1.411   .     A
C458   C464    1.397   .     A
C458   C460    1.411   .     A
C459   C461    1.422   .     A
C459   C1018   1.404   .     S
C460   C462    1.422   .     A
C460   C1017   1.404   1_554 S
C463   H467    1.085   .     S
C463   C995    1.397   .     S
C464   H468    1.085   .     S
C464   C996    1.397   1_554 S
Cu465  Cu466   2.675   .     S
Cu465  O481    1.965   .     S
Cu465  N477    2.010   .     S
Cu465  O483    1.968   .     S
Cu465  O479    1.965   .     S
Cu465  O485    1.968   .     S
Cu466  O484    1.968   .     S
Cu466  N478    2.010   .     S
Cu466  O482    1.965   .     S
Cu466  O486    1.968   .     S
Cu466  O480    1.965   .     S
C491   H492    1.085   .     S
C491   O493    1.220   .     D
C494   O496    1.220   .     D
C494   H495    1.085   .     S
C497   O544    1.290   .     A
C497   O541    1.290   .     A
C497   C506    1.450   .     S
C498   O543    1.290   .     A
C498   O542    1.290   .     A
C498   C505    1.450   .     S
C499   C524    1.421   .     A
C499   C553    1.486   .     S
C499   C1083   1.397   1_554 S
C500   C556    1.486   .     S
C500   C523    1.421   .     A
C500   C1084   1.397   .     S
C501   H531    1.083   .     S
C501   C506    1.401   .     A
C502   C505    1.401   .     A
C502   H532    1.083   .     S
C502   C380    1.383   1_655 S
C503   C505    1.401   .     A
C503   H533    1.083   .     S
C503   C377    1.383   1_655 S
C504   H534    1.083   .     S
C504   C506    1.401   .     A
C507   N540    1.367   .     A
C507   H535    1.082   .     S
C508   H536    1.082   .     S
C508   N539    1.367   .     A
C508   C137    1.416   1_565 S
C509   H537    1.082   .     S
C509   N540    1.367   .     A
C510   H538    1.082   .     S
C510   N539    1.367   .     A
C510   C135    1.416   1_565 S
C511   O548    1.293   .     A
C511   O545    1.293   .     A
C511   C516    1.461   .     S
C512   O547    1.293   .     A
C512   C515    1.461   .     S
C512   O546    1.293   .     A
C513   C523    1.403   .     A
C513   H549    1.079   .     S
C513   C515    1.400   .     A
C514   C516    1.400   .     A
C514   C524    1.403   .     A
C514   H550    1.079   .     S
C515   C517    1.396   .     A
C516   C518    1.396   .     A
C517   C519    1.391   .     A
C517   H551    1.085   .     S
C518   H552    1.085   .     S
C518   C520    1.391   .     A
C519   C525    1.397   .     A
C519   C521    1.411   .     A
C520   C526    1.397   .     A
C520   C522    1.411   .     A
C521   C523    1.422   .     A
C521   C1080   1.404   .     S
C522   C524    1.422   .     A
C522   C1079   1.404   1_554 S
C525   H529    1.085   .     S
C525   C1057   1.397   .     S
C526   H530    1.085   .     S
C526   C1058   1.397   1_554 S
Cu527  Cu528   2.675   .     S
Cu527  O543    1.965   .     S
Cu527  N539    2.010   .     S
Cu527  O545    1.968   .     S
Cu527  O541    1.965   .     S
Cu527  O547    1.968   .     S
Cu528  O546    1.968   .     S
Cu528  N540    2.010   .     S
Cu528  O544    1.965   .     S
Cu528  O548    1.968   .     S
Cu528  O542    1.965   .     S
C553   H554    1.085   .     S
C553   O555    1.220   .     D
C556   O558    1.220   .     D
C556   H557    1.085   .     S
C559   O606    1.290   .     A
C559   O603    1.290   .     A
C559   C568    1.450   .     S
C560   O605    1.290   .     A
C560   O604    1.290   .     A
C560   C567    1.450   .     S
C561   C586    1.421   .     A
C561   C615    1.486   .     S
C562   C618    1.486   .     S
C562   C585    1.421   .     A
C562   C30     1.397   1_556 S
C563   H593    1.083   .     S
C563   C568    1.401   .     A
C563   C689    1.383   1_455 S
C564   C567    1.401   .     A
C564   H594    1.083   .     S
C564   C628    1.383   .     S
C565   C567    1.401   .     A
C565   H595    1.083   .     S
C565   C625    1.383   .     S
C566   H596    1.083   .     S
C566   C568    1.401   .     A
C566   C688    1.383   1_455 S
C569   N602    1.367   .     A
C569   H597    1.082   .     S
C569   C944    1.416   1_545 S
C570   H598    1.082   .     S
C570   N601    1.367   .     A
C570   C757    1.416   .     S
C571   H599    1.082   .     S
C571   N602    1.367   .     A
C571   C942    1.416   1_545 S
C572   H600    1.082   .     S
C572   N601    1.367   .     A
C572   C755    1.416   .     S
C573   O610    1.293   .     A
C573   O607    1.293   .     A
C573   C578    1.461   .     S
C574   O609    1.293   .     A
C574   C577    1.461   .     S
C574   O608    1.293   .     A
C575   C585    1.403   .     A
C575   H611    1.079   .     S
C575   C577    1.400   .     A
C576   C578    1.400   .     A
C576   C586    1.403   .     A
C576   H612    1.079   .     S
C577   C579    1.396   .     A
C578   C580    1.396   .     A
C579   C581    1.391   .     A
C579   H613    1.085   .     S
C580   H614    1.085   .     S
C580   C582    1.391   .     A
C581   C587    1.397   .     A
C581   C583    1.411   .     A
C582   C588    1.397   .     A
C582   C584    1.411   .     A
C583   C585    1.422   .     A
C583   C26     1.404   1_556 S
C584   C586    1.422   .     A
C587   H591    1.085   .     S
C587   C3      1.397   1_556 S
C588   H592    1.085   .     S
Cu589  Cu590   2.675   .     S
Cu589  O605    1.965   .     S
Cu589  N601    2.010   .     S
Cu589  O607    1.968   .     S
Cu589  O603    1.965   .     S
Cu589  O609    1.968   .     S
Cu590  O608    1.968   .     S
Cu590  N602    2.010   .     S
Cu590  O606    1.965   .     S
Cu590  O610    1.968   .     S
Cu590  O604    1.965   .     S
C615   H616    1.085   .     S
C615   O617    1.220   .     D
C618   O620    1.220   .     D
C618   H619    1.085   .     S
C621   O668    1.290   .     A
C621   O665    1.290   .     A
C621   C630    1.450   .     S
C622   O667    1.290   .     A
C622   O666    1.290   .     A
C622   C629    1.450   .     S
C623   C648    1.421   .     A
C623   C677    1.486   .     S
C624   C680    1.486   .     S
C624   C647    1.421   .     A
C624   C92     1.397   1_556 S
C625   H655    1.083   .     S
C625   C630    1.401   .     A
C626   C629    1.401   .     A
C626   H656    1.083   .     S
C626   C690    1.383   .     S
C627   C629    1.401   .     A
C627   H657    1.083   .     S
C627   C687    1.383   .     S
C628   H658    1.083   .     S
C628   C630    1.401   .     A
C631   N664    1.367   .     A
C631   H659    1.082   .     S
C631   C1006   1.416   1_545 S
C632   H660    1.082   .     S
C632   N663    1.367   .     A
C632   C819    1.416   .     S
C633   H661    1.082   .     S
C633   N664    1.367   .     A
C633   C1004   1.416   1_545 S
C634   H662    1.082   .     S
C634   N663    1.367   .     A
C634   C817    1.416   .     S
C635   O672    1.293   .     A
C635   O669    1.293   .     A
C635   C640    1.461   .     S
C636   O671    1.293   .     A
C636   C639    1.461   .     S
C636   O670    1.293   .     A
C637   C647    1.403   .     A
C637   H673    1.079   .     S
C637   C639    1.400   .     A
C638   C640    1.400   .     A
C638   C648    1.403   .     A
C638   H674    1.079   .     S
C639   C641    1.396   .     A
C640   C642    1.396   .     A
C641   C643    1.391   .     A
C641   H675    1.085   .     S
C642   H676    1.085   .     S
C642   C644    1.391   .     A
C643   C649    1.397   .     A
C643   C645    1.411   .     A
C644   C650    1.397   .     A
C644   C646    1.411   .     A
C645   C647    1.422   .     A
C645   C88     1.404   1_556 S
C646   C648    1.422   .     A
C649   H653    1.085   .     S
C649   C65     1.397   1_556 S
C650   H654    1.085   .     S
Cu651  Cu652   2.675   .     S
Cu651  O667    1.965   .     S
Cu651  N663    2.010   .     S
Cu651  O669    1.968   .     S
Cu651  O665    1.965   .     S
Cu651  O671    1.968   .     S
Cu652  O670    1.968   .     S
Cu652  N664    2.010   .     S
Cu652  O668    1.965   .     S
Cu652  O672    1.968   .     S
Cu652  O666    1.965   .     S
C677   H678    1.085   .     S
C677   O679    1.220   .     D
C680   O682    1.220   .     D
C680   H681    1.085   .     S
C683   O730    1.290   .     A
C683   O727    1.290   .     A
C683   C692    1.450   .     S
C684   O729    1.290   .     A
C684   O728    1.290   .     A
C684   C691    1.450   .     S
C685   C710    1.421   .     A
C685   C739    1.486   .     S
C686   C742    1.486   .     S
C686   C709    1.421   .     A
C686   C154    1.397   1_556 S
C687   H717    1.083   .     S
C687   C692    1.401   .     A
C688   C691    1.401   .     A
C688   H718    1.083   .     S
C688   C566    1.383   1_655 S
C689   C691    1.401   .     A
C689   H719    1.083   .     S
C689   C563    1.383   1_655 S
C690   H720    1.083   .     S
C690   C692    1.401   .     A
C693   N726    1.367   .     A
C693   H721    1.082   .     S
C693   C1068   1.416   1_545 S
C694   H722    1.082   .     S
C694   N725    1.367   .     A
C694   C881    1.416   .     S
C695   H723    1.082   .     S
C695   N726    1.367   .     A
C695   C1066   1.416   1_545 S
C696   H724    1.082   .     S
C696   N725    1.367   .     A
C696   C879    1.416   .     S
C697   O734    1.293   .     A
C697   O731    1.293   .     A
C697   C702    1.461   .     S
C698   O733    1.293   .     A
C698   C701    1.461   .     S
C698   O732    1.293   .     A
C699   C709    1.403   .     A
C699   H735    1.079   .     S
C699   C701    1.400   .     A
C700   C702    1.400   .     A
C700   C710    1.403   .     A
C700   H736    1.079   .     S
C701   C703    1.396   .     A
C702   C704    1.396   .     A
C703   C705    1.391   .     A
C703   H737    1.085   .     S
C704   H738    1.085   .     S
C704   C706    1.391   .     A
C705   C711    1.397   .     A
C705   C707    1.411   .     A
C706   C712    1.397   .     A
C706   C708    1.411   .     A
C707   C709    1.422   .     A
C707   C150    1.404   1_556 S
C708   C710    1.422   .     A
C711   H715    1.085   .     S
C711   C127    1.397   1_556 S
C712   H716    1.085   .     S
Cu713  Cu714   2.675   .     S
Cu713  O729    1.965   .     S
Cu713  N725    2.010   .     S
Cu713  O731    1.968   .     S
Cu713  O727    1.965   .     S
Cu713  O733    1.968   .     S
Cu714  O732    1.968   .     S
Cu714  N726    2.010   .     S
Cu714  O730    1.965   .     S
Cu714  O734    1.968   .     S
Cu714  O728    1.965   .     S
C739   H740    1.085   .     S
C739   O741    1.220   .     D
C742   O744    1.220   .     D
C742   H743    1.085   .     S
C745   O792    1.290   .     A
C745   O789    1.290   .     A
C745   C754    1.450   .     S
C746   O791    1.290   .     A
C746   O790    1.290   .     A
C746   C753    1.450   .     S
C747   C772    1.421   .     A
C747   C801    1.486   .     S
C748   C804    1.486   .     S
C748   C771    1.421   .     A
C748   C216    1.397   1_556 S
C749   H779    1.083   .     S
C749   C754    1.401   .     A
C749   C875    1.383   1_455 S
C750   C753    1.401   .     A
C750   H780    1.083   .     S
C750   C814    1.383   .     S
C751   C753    1.401   .     A
C751   H781    1.083   .     S
C751   C811    1.383   .     S
C752   H782    1.083   .     S
C752   C754    1.401   .     A
C752   C874    1.383   1_455 S
C755   N788    1.367   .     A
C755   H783    1.082   .     S
C756   H784    1.082   .     S
C756   N787    1.367   .     A
C756   C943    1.416   .     S
C757   H785    1.082   .     S
C757   N788    1.367   .     A
C758   H786    1.082   .     S
C758   N787    1.367   .     A
C758   C941    1.416   .     S
C759   O796    1.293   .     A
C759   O793    1.293   .     A
C759   C764    1.461   .     S
C760   O795    1.293   .     A
C760   C763    1.461   .     S
C760   O794    1.293   .     A
C761   C771    1.403   .     A
C761   H797    1.079   .     S
C761   C763    1.400   .     A
C762   C764    1.400   .     A
C762   C772    1.403   .     A
C762   H798    1.079   .     S
C763   C765    1.396   .     A
C764   C766    1.396   .     A
C765   C767    1.391   .     A
C765   H799    1.085   .     S
C766   H800    1.085   .     S
C766   C768    1.391   .     A
C767   C773    1.397   .     A
C767   C769    1.411   .     A
C768   C774    1.397   .     A
C768   C770    1.411   .     A
C769   C771    1.422   .     A
C769   C212    1.404   1_556 S
C770   C772    1.422   .     A
C773   H777    1.085   .     S
C773   C189    1.397   1_556 S
C774   H778    1.085   .     S
Cu775  Cu776   2.675   .     S
Cu775  O791    1.965   .     S
Cu775  N787    2.010   .     S
Cu775  O793    1.968   .     S
Cu775  O789    1.965   .     S
Cu775  O795    1.968   .     S
Cu776  O794    1.968   .     S
Cu776  N788    2.010   .     S
Cu776  O792    1.965   .     S
Cu776  O796    1.968   .     S
Cu776  O790    1.965   .     S
C801   H802    1.085   .     S
C801   O803    1.220   .     D
C804   O806    1.220   .     D
C804   H805    1.085   .     S
C807   O854    1.290   .     A
C807   O851    1.290   .     A
C807   C816    1.450   .     S
C808   O853    1.290   .     A
C808   O852    1.290   .     A
C808   C815    1.450   .     S
C809   C834    1.421   .     A
C809   C863    1.486   .     S
C810   C866    1.486   .     S
C810   C833    1.421   .     A
C810   C278    1.397   1_556 S
C811   H841    1.083   .     S
C811   C816    1.401   .     A
C812   C815    1.401   .     A
C812   H842    1.083   .     S
C812   C876    1.383   .     S
C813   C815    1.401   .     A
C813   H843    1.083   .     S
C813   C873    1.383   .     S
C814   H844    1.083   .     S
C814   C816    1.401   .     A
C817   N850    1.367   .     A
C817   H845    1.082   .     S
C818   H846    1.082   .     S
C818   N849    1.367   .     A
C818   C1005   1.416   .     S
C819   H847    1.082   .     S
C819   N850    1.367   .     A
C820   H848    1.082   .     S
C820   N849    1.367   .     A
C820   C1003   1.416   .     S
C821   O858    1.293   .     A
C821   O855    1.293   .     A
C821   C826    1.461   .     S
C822   O857    1.293   .     A
C822   C825    1.461   .     S
C822   O856    1.293   .     A
C823   C833    1.403   .     A
C823   H859    1.079   .     S
C823   C825    1.400   .     A
C824   C826    1.400   .     A
C824   C834    1.403   .     A
C824   H860    1.079   .     S
C825   C827    1.396   .     A
C826   C828    1.396   .     A
C827   C829    1.391   .     A
C827   H861    1.085   .     S
C828   H862    1.085   .     S
C828   C830    1.391   .     A
C829   C835    1.397   .     A
C829   C831    1.411   .     A
C830   C836    1.397   .     A
C830   C832    1.411   .     A
C831   C833    1.422   .     A
C831   C274    1.404   1_556 S
C832   C834    1.422   .     A
C835   H839    1.085   .     S
C835   C251    1.397   1_556 S
C836   H840    1.085   .     S
Cu837  Cu838   2.675   .     S
Cu837  O853    1.965   .     S
Cu837  N849    2.010   .     S
Cu837  O855    1.968   .     S
Cu837  O851    1.965   .     S
Cu837  O857    1.968   .     S
Cu838  O856    1.968   .     S
Cu838  N850    2.010   .     S
Cu838  O854    1.965   .     S
Cu838  O858    1.968   .     S
Cu838  O852    1.965   .     S
C863   H864    1.085   .     S
C863   O865    1.220   .     D
C866   O868    1.220   .     D
C866   H867    1.085   .     S
C869   O916    1.290   .     A
C869   O913    1.290   .     A
C869   C878    1.450   .     S
C870   O915    1.290   .     A
C870   O914    1.290   .     A
C870   C877    1.450   .     S
C871   C896    1.421   .     A
C871   C925    1.486   .     S
C872   C928    1.486   .     S
C872   C895    1.421   .     A
C872   C340    1.397   1_556 S
C873   H903    1.083   .     S
C873   C878    1.401   .     A
C874   C877    1.401   .     A
C874   H904    1.083   .     S
C874   C752    1.383   1_655 S
C875   C877    1.401   .     A
C875   H905    1.083   .     S
C875   C749    1.383   1_655 S
C876   H906    1.083   .     S
C876   C878    1.401   .     A
C879   N912    1.367   .     A
C879   H907    1.082   .     S
C880   H908    1.082   .     S
C880   N911    1.367   .     A
C880   C1067   1.416   .     S
C881   H909    1.082   .     S
C881   N912    1.367   .     A
C882   H910    1.082   .     S
C882   N911    1.367   .     A
C882   C1065   1.416   .     S
C883   O920    1.293   .     A
C883   O917    1.293   .     A
C883   C888    1.461   .     S
C884   O919    1.293   .     A
C884   C887    1.461   .     S
C884   O918    1.293   .     A
C885   C895    1.403   .     A
C885   H921    1.079   .     S
C885   C887    1.400   .     A
C886   C888    1.400   .     A
C886   C896    1.403   .     A
C886   H922    1.079   .     S
C887   C889    1.396   .     A
C888   C890    1.396   .     A
C889   C891    1.391   .     A
C889   H923    1.085   .     S
C890   H924    1.085   .     S
C890   C892    1.391   .     A
C891   C897    1.397   .     A
C891   C893    1.411   .     A
C892   C898    1.397   .     A
C892   C894    1.411   .     A
C893   C895    1.422   .     A
C893   C336    1.404   1_556 S
C894   C896    1.422   .     A
C897   H901    1.085   .     S
C897   C313    1.397   1_556 S
C898   H902    1.085   .     S
Cu899  Cu900   2.675   .     S
Cu899  O915    1.965   .     S
Cu899  N911    2.010   .     S
Cu899  O917    1.968   .     S
Cu899  O913    1.965   .     S
Cu899  O919    1.968   .     S
Cu900  O918    1.968   .     S
Cu900  N912    2.010   .     S
Cu900  O916    1.965   .     S
Cu900  O920    1.968   .     S
Cu900  O914    1.965   .     S
C925   H926    1.085   .     S
C925   O927    1.220   .     D
C928   O930    1.220   .     D
C928   H929    1.085   .     S
C931   O978    1.290   .     A
C931   O975    1.290   .     A
C931   C940    1.450   .     S
C932   O977    1.290   .     A
C932   O976    1.290   .     A
C932   C939    1.450   .     S
C933   C958    1.421   .     A
C933   C987    1.486   .     S
C934   C990    1.486   .     S
C934   C957    1.421   .     A
C934   C402    1.397   1_556 S
C935   H965    1.083   .     S
C935   C940    1.401   .     A
C935   C1061   1.383   1_455 S
C936   C939    1.401   .     A
C936   H966    1.083   .     S
C936   C1000   1.383   .     S
C937   C939    1.401   .     A
C937   H967    1.083   .     S
C937   C997    1.383   .     S
C938   H968    1.083   .     S
C938   C940    1.401   .     A
C938   C1060   1.383   1_455 S
C941   N974    1.367   .     A
C941   H969    1.082   .     S
C942   H970    1.082   .     S
C942   N973    1.367   .     A
C942   C571    1.416   1_565 S
C943   H971    1.082   .     S
C943   N974    1.367   .     A
C944   H972    1.082   .     S
C944   N973    1.367   .     A
C944   C569    1.416   1_565 S
C945   O982    1.293   .     A
C945   O979    1.293   .     A
C945   C950    1.461   .     S
C946   O981    1.293   .     A
C946   C949    1.461   .     S
C946   O980    1.293   .     A
C947   C957    1.403   .     A
C947   H983    1.079   .     S
C947   C949    1.400   .     A
C948   C950    1.400   .     A
C948   C958    1.403   .     A
C948   H984    1.079   .     S
C949   C951    1.396   .     A
C950   C952    1.396   .     A
C951   C953    1.391   .     A
C951   H985    1.085   .     S
C952   H986    1.085   .     S
C952   C954    1.391   .     A
C953   C959    1.397   .     A
C953   C955    1.411   .     A
C954   C960    1.397   .     A
C954   C956    1.411   .     A
C955   C957    1.422   .     A
C955   C398    1.404   1_556 S
C956   C958    1.422   .     A
C959   H963    1.085   .     S
C959   C375    1.397   1_556 S
C960   H964    1.085   .     S
Cu961  Cu962   2.675   .     S
Cu961  O977    1.965   .     S
Cu961  N973    2.010   .     S
Cu961  O979    1.968   .     S
Cu961  O975    1.965   .     S
Cu961  O981    1.968   .     S
Cu962  O980    1.968   .     S
Cu962  N974    2.010   .     S
Cu962  O978    1.965   .     S
Cu962  O982    1.968   .     S
Cu962  O976    1.965   .     S
C987   H988    1.085   .     S
C987   O989    1.220   .     D
C990   O992    1.220   .     D
C990   H991    1.085   .     S
C993   O1040   1.290   .     A
C993   O1037   1.290   .     A
C993   C1002   1.450   .     S
C994   O1039   1.290   .     A
C994   O1038   1.290   .     A
C994   C1001   1.450   .     S
C995   C1020   1.421   .     A
C995   C1049   1.486   .     S
C996   C1052   1.486   .     S
C996   C1019   1.421   .     A
C996   C464    1.397   1_556 S
C997   H1027   1.083   .     S
C997   C1002   1.401   .     A
C998   C1001   1.401   .     A
C998   H1028   1.083   .     S
C998   C1062   1.383   .     S
C999   C1001   1.401   .     A
C999   H1029   1.083   .     S
C999   C1059   1.383   .     S
C1000  H1030   1.083   .     S
C1000  C1002   1.401   .     A
C1003  N1036   1.367   .     A
C1003  H1031   1.082   .     S
C1004  H1032   1.082   .     S
C1004  N1035   1.367   .     A
C1004  C633    1.416   1_565 S
C1005  H1033   1.082   .     S
C1005  N1036   1.367   .     A
C1006  H1034   1.082   .     S
C1006  N1035   1.367   .     A
C1006  C631    1.416   1_565 S
C1007  O1044   1.293   .     A
C1007  O1041   1.293   .     A
C1007  C1012   1.461   .     S
C1008  O1043   1.293   .     A
C1008  C1011   1.461   .     S
C1008  O1042   1.293   .     A
C1009  C1019   1.403   .     A
C1009  H1045   1.079   .     S
C1009  C1011   1.400   .     A
C1010  C1012   1.400   .     A
C1010  C1020   1.403   .     A
C1010  H1046   1.079   .     S
C1011  C1013   1.396   .     A
C1012  C1014   1.396   .     A
C1013  C1015   1.391   .     A
C1013  H1047   1.085   .     S
C1014  H1048   1.085   .     S
C1014  C1016   1.391   .     A
C1015  C1021   1.397   .     A
C1015  C1017   1.411   .     A
C1016  C1022   1.397   .     A
C1016  C1018   1.411   .     A
C1017  C1019   1.422   .     A
C1017  C460    1.404   1_556 S
C1018  C1020   1.422   .     A
C1021  H1025   1.085   .     S
C1021  C437    1.397   1_556 S
C1022  H1026   1.085   .     S
Cu1023 Cu1024  2.675   .     S
Cu1023 O1039   1.965   .     S
Cu1023 N1035   2.010   .     S
Cu1023 O1041   1.968   .     S
Cu1023 O1037   1.965   .     S
Cu1023 O1043   1.968   .     S
Cu1024 O1042   1.968   .     S
Cu1024 N1036   2.010   .     S
Cu1024 O1040   1.965   .     S
Cu1024 O1044   1.968   .     S
Cu1024 O1038   1.965   .     S
C1049  H1050   1.085   .     S
C1049  O1051   1.220   .     D
C1052  O1054   1.220   .     D
C1052  H1053   1.085   .     S
C1055  O1102   1.290   .     A
C1055  O1099   1.290   .     A
C1055  C1064   1.450   .     S
C1056  O1101   1.290   .     A
C1056  O1100   1.290   .     A
C1056  C1063   1.450   .     S
C1057  C1082   1.421   .     A
C1057  C1111   1.486   .     S
C1058  C1114   1.486   .     S
C1058  C1081   1.421   .     A
C1058  C526    1.397   1_556 S
C1059  H1089   1.083   .     S
C1059  C1064   1.401   .     A
C1060  C1063   1.401   .     A
C1060  H1090   1.083   .     S
C1060  C938    1.383   1_655 S
C1061  C1063   1.401   .     A
C1061  H1091   1.083   .     S
C1061  C935    1.383   1_655 S
C1062  H1092   1.083   .     S
C1062  C1064   1.401   .     A
C1065  N1098   1.367   .     A
C1065  H1093   1.082   .     S
C1066  H1094   1.082   .     S
C1066  N1097   1.367   .     A
C1066  C695    1.416   1_565 S
C1067  H1095   1.082   .     S
C1067  N1098   1.367   .     A
C1068  H1096   1.082   .     S
C1068  N1097   1.367   .     A
C1068  C693    1.416   1_565 S
C1069  O1106   1.293   .     A
C1069  O1103   1.293   .     A
C1069  C1074   1.461   .     S
C1070  O1105   1.293   .     A
C1070  C1073   1.461   .     S
C1070  O1104   1.293   .     A
C1071  C1081   1.403   .     A
C1071  H1107   1.079   .     S
C1071  C1073   1.400   .     A
C1072  C1074   1.400   .     A
C1072  C1082   1.403   .     A
C1072  H1108   1.079   .     S
C1073  C1075   1.396   .     A
C1074  C1076   1.396   .     A
C1075  C1077   1.391   .     A
C1075  H1109   1.085   .     S
C1076  H1110   1.085   .     S
C1076  C1078   1.391   .     A
C1077  C1083   1.397   .     A
C1077  C1079   1.411   .     A
C1078  C1084   1.397   .     A
C1078  C1080   1.411   .     A
C1079  C1081   1.422   .     A
C1079  C522    1.404   1_556 S
C1080  C1082   1.422   .     A
C1083  H1087   1.085   .     S
C1083  C499    1.397   1_556 S
C1084  H1088   1.085   .     S
Cu1085 Cu1086  2.675   .     S
Cu1085 O1101   1.965   .     S
Cu1085 N1097   2.010   .     S
Cu1085 O1103   1.968   .     S
Cu1085 O1099   1.965   .     S
Cu1085 O1105   1.968   .     S
Cu1086 O1104   1.968   .     S
Cu1086 N1098   2.010   .     S
Cu1086 O1102   1.965   .     S
Cu1086 O1106   1.968   .     S
Cu1086 O1100   1.965   .     S
C1111  H1112   1.085   .     S
C1111  O1113   1.220   .     D
C1114  O1116   1.220   .     D
C1114  H1115   1.085   .     S
