data_str_m3_o1_o2_pcu_sym.101
_audit_creation_date              2020-01-03
_audit_creation_method            'Materials Studio'
_symmetry_space_group_name_H-M    'P1'
_symmetry_Int_Tables_number       1
_symmetry_cell_setting            triclinic
loop_
_symmetry_equiv_pos_as_xyz
  x,y,z
_cell_length_a                    31.7350
_cell_length_b                    29.7516
_cell_length_c                    29.8889
_cell_angle_alpha                 89.8198
_cell_angle_beta                  92.3181
_cell_angle_gamma                 89.4176
loop_
_atom_site_label
_atom_site_type_symbol
_atom_site_fract_x
_atom_site_fract_y
_atom_site_fract_z
_atom_site_U_iso_or_equiv
_atom_site_adp_type
_atom_site_occupancy
C1     C     0.08697   0.16692   0.25591   0.00000  Uiso   1.00
C2     C     0.24638   0.16646   0.24412   0.00000  Uiso   1.00
C3     C     0.16620   0.16681   0.16415   0.00000  Uiso   1.00
C4     C     0.16567   0.16664   0.33620   0.00000  Uiso   1.00
C5     C     0.19464   0.02349   0.27729   0.00000  Uiso   1.00
C6     C     0.14133   0.30962   0.22005   0.00000  Uiso   1.00
C7     C     0.13874   0.02423   0.22267   0.00000  Uiso   1.00
C8     C     0.19191   0.30893   0.28003   0.00000  Uiso   1.00
C9     C     0.02070   0.12626   0.26289   0.00000  Uiso   1.00
C10    C     0.31271   0.20727   0.23737   0.00000  Uiso   1.00
C11    C     0.31365   0.12501   0.24265   0.00000  Uiso   1.00
C12    C     0.01970   0.20851   0.25758   0.00000  Uiso   1.00
C13    C     0.19154   0.18730   0.04542   0.00000  Uiso   1.00
C14    C     0.17186   0.13157   0.45681   0.00000  Uiso   1.00
C15    C     0.13162   0.20279   0.44938   0.00000  Uiso   1.00
C16    C     0.11947   0.15810   0.04868   0.00000  Uiso   1.00
C17    C     0.19650   0.18416   0.09159   0.00000  Uiso   1.00
C18    C     0.17777   0.13170   0.41074   0.00000  Uiso   1.00
C19    C     0.13570   0.20128   0.40295   0.00000  Uiso   1.00
C20    C     0.12462   0.15448   0.09544   0.00000  Uiso   1.00
C21    C     0.16295   0.16764   0.11624   0.00000  Uiso   1.00
C22    C     0.16010   0.16675   0.38425   0.00000  Uiso   1.00
C23    C     0.15346   0.17281   0.02424   0.00000  Uiso   1.00
C24    C     0.15060   0.16826   0.47601   0.00000  Uiso   1.00
C25    C     0.29138   0.16600   0.23719   0.00000  Uiso   1.00
C26    C     0.04200   0.16753   0.26296   0.00000  Uiso   1.00
N27    N     0.16667   0.28573   0.25000   0.00000  Uiso   1.00
N28    N     0.16667   0.04760   0.25000   0.00000  Uiso   1.00
O29    O     0.10559   0.20487   0.24999   0.00000  Uiso   1.00
O30    O     0.22774   0.12846   0.25001   0.00000  Uiso   1.00
O31    O     0.22774   0.20487   0.25001   0.00000  Uiso   1.00
O32    O     0.10559   0.12846   0.25000   0.00000  Uiso   1.00
O33    O     0.16666   0.20489   0.18453   0.00000  Uiso   1.00
O34    O     0.16667   0.12845   0.31547   0.00000  Uiso   1.00
O35    O     0.16667   0.20489   0.31547   0.00000  Uiso   1.00
O36    O     0.16666   0.12845   0.18453   0.00000  Uiso   1.00
Zn37   Zn    0.16667   0.21771   0.25000   0.00000  Uiso   1.00
Zn38   Zn    0.16667   0.11563   0.25000   0.00000  Uiso   1.00
C39    C     0.22914   0.04699   0.30227   0.00000  Uiso   1.00
H40    H     0.22543   0.08088   0.31352   0.00000  Uiso   1.00
O41    O     0.26332   0.02867   0.30966   0.00000  Uiso   1.00
C42    C     0.11808   0.28559   0.18361   0.00000  Uiso   1.00
H43    H     0.10166   0.25488   0.18986   0.00000  Uiso   1.00
O44    O     0.11755   0.30004   0.14530   0.00000  Uiso   1.00
C45    C     0.10455   0.04859   0.19728   0.00000  Uiso   1.00
H46    H     0.10928   0.08143   0.18381   0.00000  Uiso   1.00
O47    O     0.06967   0.03207   0.19182   0.00000  Uiso   1.00
C48    C     0.21470   0.28432   0.31686   0.00000  Uiso   1.00
H49    H     0.23176   0.25361   0.31087   0.00000  Uiso   1.00
O50    O     0.21415   0.29836   0.35518   0.00000  Uiso   1.00
O51    O     0.22515   0.20341   0.02222   0.00000  Uiso   1.00
H52    H     0.21615   0.21010   0.49082   0.00000  Uiso   1.00
O53    O     0.18901   0.09641   0.48229   0.00000  Uiso   1.00
H54    H     0.17547   0.09487   0.01149   0.00000  Uiso   1.00
O55    O     0.11042   0.23907   0.46729   0.00000  Uiso   1.00
H56    H     0.10797   0.23555   0.49993   0.00000  Uiso   1.00
O57    O     0.08218   0.14755   0.02578   0.00000  Uiso   1.00
H58    H     0.05838   0.15370   0.04537   0.00000  Uiso   1.00
O59    O     0.23481   0.19704   0.11105   0.00000  Uiso   1.00
H60    H     0.23749   0.18617   0.14234   0.00000  Uiso   1.00
O61    O     0.20135   0.09862   0.39064   0.00000  Uiso   1.00
H62    H     0.21206   0.07623   0.41296   0.00000  Uiso   1.00
O63    O     0.11624   0.23298   0.37477   0.00000  Uiso   1.00
H64    H     0.09834   0.25363   0.39184   0.00000  Uiso   1.00
O65    O     0.09313   0.13856   0.12169   0.00000  Uiso   1.00
H66    H     0.07628   0.11636   0.10427   0.00000  Uiso   1.00
C67    C     0.03824   0.08783   0.29045   0.00000  Uiso   1.00
H68    H     0.06975   0.08916   0.30573   0.00000  Uiso   1.00
O69    O     0.01663   0.05574   0.29988   0.00000  Uiso   1.00
C70    C     0.29550   0.24615   0.21021   0.00000  Uiso   1.00
H71    H     0.26355   0.24608   0.19606   0.00000  Uiso   1.00
O72    O     0.31794   0.27733   0.19997   0.00000  Uiso   1.00
C73    C     0.29740   0.08355   0.21984   0.00000  Uiso   1.00
H74    H     0.26745   0.08419   0.20108   0.00000  Uiso   1.00
O75    O     0.31842   0.04907   0.21847   0.00000  Uiso   1.00
C76    C     0.03559   0.25023   0.28020   0.00000  Uiso   1.00
H77    H     0.06648   0.25092   0.29691   0.00000  Uiso   1.00
O78    O     0.01306   0.28341   0.28392   0.00000  Uiso   1.00
C79    C     0.42030   0.16692   0.25591   0.00000  Uiso   1.00
C80    C     0.57972   0.16646   0.24412   0.00000  Uiso   1.00
C81    C     0.49953   0.16681   0.16415   0.00000  Uiso   1.00
C82    C     0.49900   0.16664   0.33620   0.00000  Uiso   1.00
C83    C     0.52797   0.02349   0.27729   0.00000  Uiso   1.00
C84    C     0.47466   0.30962   0.22005   0.00000  Uiso   1.00
C85    C     0.47207   0.02423   0.22267   0.00000  Uiso   1.00
C86    C     0.52525   0.30893   0.28003   0.00000  Uiso   1.00
C87    C     0.35403   0.12626   0.26289   0.00000  Uiso   1.00
C88    C     0.64604   0.20727   0.23737   0.00000  Uiso   1.00
C89    C     0.64698   0.12501   0.24265   0.00000  Uiso   1.00
C90    C     0.35303   0.20851   0.25758   0.00000  Uiso   1.00
C91    C     0.52487   0.18730   0.04542   0.00000  Uiso   1.00
C92    C     0.50520   0.13157   0.45681   0.00000  Uiso   1.00
C93    C     0.46496   0.20279   0.44938   0.00000  Uiso   1.00
C94    C     0.45280   0.15810   0.04868   0.00000  Uiso   1.00
C95    C     0.52984   0.18416   0.09159   0.00000  Uiso   1.00
C96    C     0.51110   0.13170   0.41074   0.00000  Uiso   1.00
C97    C     0.46904   0.20128   0.40295   0.00000  Uiso   1.00
C98    C     0.45796   0.15448   0.09544   0.00000  Uiso   1.00
C99    C     0.49629   0.16764   0.11624   0.00000  Uiso   1.00
C100   C     0.49343   0.16675   0.38425   0.00000  Uiso   1.00
C101   C     0.48679   0.17281   0.02424   0.00000  Uiso   1.00
C102   C     0.48393   0.16826   0.47601   0.00000  Uiso   1.00
C103   C     0.62471   0.16600   0.23719   0.00000  Uiso   1.00
C104   C     0.37534   0.16753   0.26296   0.00000  Uiso   1.00
N105   N     0.50000   0.28573   0.25000   0.00000  Uiso   1.00
N106   N     0.50000   0.04760   0.25000   0.00000  Uiso   1.00
O107   O     0.43892   0.20487   0.24999   0.00000  Uiso   1.00
O108   O     0.56108   0.12846   0.25001   0.00000  Uiso   1.00
O109   O     0.56108   0.20487   0.25001   0.00000  Uiso   1.00
O110   O     0.43892   0.12846   0.25000   0.00000  Uiso   1.00
O111   O     0.50000   0.20489   0.18453   0.00000  Uiso   1.00
O112   O     0.50000   0.12845   0.31547   0.00000  Uiso   1.00
O113   O     0.50000   0.20489   0.31547   0.00000  Uiso   1.00
O114   O     0.50000   0.12845   0.18453   0.00000  Uiso   1.00
Zn115  Zn    0.50000   0.21771   0.25000   0.00000  Uiso   1.00
Zn116  Zn    0.50000   0.11563   0.25000   0.00000  Uiso   1.00
C117   C     0.56247   0.04699   0.30227   0.00000  Uiso   1.00
H118   H     0.55876   0.08088   0.31352   0.00000  Uiso   1.00
O119   O     0.59665   0.02867   0.30966   0.00000  Uiso   1.00
C120   C     0.45141   0.28559   0.18361   0.00000  Uiso   1.00
H121   H     0.43499   0.25488   0.18986   0.00000  Uiso   1.00
O122   O     0.45088   0.30004   0.14530   0.00000  Uiso   1.00
C123   C     0.43788   0.04859   0.19728   0.00000  Uiso   1.00
H124   H     0.44261   0.08143   0.18381   0.00000  Uiso   1.00
O125   O     0.40301   0.03207   0.19182   0.00000  Uiso   1.00
C126   C     0.54803   0.28432   0.31686   0.00000  Uiso   1.00
H127   H     0.56509   0.25361   0.31087   0.00000  Uiso   1.00
O128   O     0.54749   0.29836   0.35518   0.00000  Uiso   1.00
O129   O     0.55848   0.20341   0.02222   0.00000  Uiso   1.00
H130   H     0.54949   0.21010   0.49082   0.00000  Uiso   1.00
O131   O     0.52234   0.09641   0.48229   0.00000  Uiso   1.00
H132   H     0.50881   0.09487   0.01149   0.00000  Uiso   1.00
O133   O     0.44375   0.23907   0.46729   0.00000  Uiso   1.00
H134   H     0.44130   0.23555   0.49993   0.00000  Uiso   1.00
O135   O     0.41551   0.14755   0.02578   0.00000  Uiso   1.00
H136   H     0.39171   0.15370   0.04537   0.00000  Uiso   1.00
O137   O     0.56814   0.19704   0.11105   0.00000  Uiso   1.00
H138   H     0.57083   0.18617   0.14234   0.00000  Uiso   1.00
O139   O     0.53469   0.09862   0.39064   0.00000  Uiso   1.00
H140   H     0.54539   0.07623   0.41296   0.00000  Uiso   1.00
O141   O     0.44957   0.23298   0.37477   0.00000  Uiso   1.00
H142   H     0.43167   0.25363   0.39184   0.00000  Uiso   1.00
O143   O     0.42646   0.13856   0.12169   0.00000  Uiso   1.00
H144   H     0.40962   0.11636   0.10427   0.00000  Uiso   1.00
C145   C     0.37158   0.08783   0.29045   0.00000  Uiso   1.00
H146   H     0.40309   0.08916   0.30573   0.00000  Uiso   1.00
O147   O     0.34997   0.05574   0.29988   0.00000  Uiso   1.00
C148   C     0.62883   0.24615   0.21021   0.00000  Uiso   1.00
H149   H     0.59688   0.24608   0.19606   0.00000  Uiso   1.00
O150   O     0.65127   0.27733   0.19997   0.00000  Uiso   1.00
C151   C     0.63074   0.08355   0.21984   0.00000  Uiso   1.00
H152   H     0.60078   0.08419   0.20108   0.00000  Uiso   1.00
O153   O     0.65175   0.04907   0.21847   0.00000  Uiso   1.00
C154   C     0.36892   0.25023   0.28020   0.00000  Uiso   1.00
H155   H     0.39982   0.25092   0.29691   0.00000  Uiso   1.00
O156   O     0.34639   0.28341   0.28392   0.00000  Uiso   1.00
C157   C     0.75363   0.16692   0.25591   0.00000  Uiso   1.00
C158   C     0.91305   0.16646   0.24412   0.00000  Uiso   1.00
C159   C     0.83286   0.16681   0.16415   0.00000  Uiso   1.00
C160   C     0.83234   0.16664   0.33620   0.00000  Uiso   1.00
C161   C     0.86131   0.02349   0.27729   0.00000  Uiso   1.00
C162   C     0.80799   0.30962   0.22005   0.00000  Uiso   1.00
C163   C     0.80541   0.02423   0.22267   0.00000  Uiso   1.00
C164   C     0.85858   0.30893   0.28003   0.00000  Uiso   1.00
C165   C     0.68737   0.12626   0.26289   0.00000  Uiso   1.00
C166   C     0.97937   0.20727   0.23737   0.00000  Uiso   1.00
C167   C     0.98032   0.12501   0.24265   0.00000  Uiso   1.00
C168   C     0.68637   0.20851   0.25758   0.00000  Uiso   1.00
C169   C     0.85820   0.18730   0.04542   0.00000  Uiso   1.00
C170   C     0.83853   0.13157   0.45681   0.00000  Uiso   1.00
C171   C     0.79829   0.20279   0.44938   0.00000  Uiso   1.00
C172   C     0.78614   0.15810   0.04868   0.00000  Uiso   1.00
C173   C     0.86317   0.18416   0.09159   0.00000  Uiso   1.00
C174   C     0.84443   0.13170   0.41074   0.00000  Uiso   1.00
C175   C     0.80237   0.20128   0.40295   0.00000  Uiso   1.00
C176   C     0.79129   0.15448   0.09544   0.00000  Uiso   1.00
C177   C     0.82962   0.16764   0.11624   0.00000  Uiso   1.00
C178   C     0.82677   0.16675   0.38425   0.00000  Uiso   1.00
C179   C     0.82012   0.17281   0.02424   0.00000  Uiso   1.00
C180   C     0.81726   0.16826   0.47601   0.00000  Uiso   1.00
C181   C     0.95805   0.16600   0.23719   0.00000  Uiso   1.00
C182   C     0.70867   0.16753   0.26296   0.00000  Uiso   1.00
N183   N     0.83333   0.28573   0.25000   0.00000  Uiso   1.00
N184   N     0.83333   0.04760   0.25000   0.00000  Uiso   1.00
O185   O     0.77226   0.20487   0.24999   0.00000  Uiso   1.00
O186   O     0.89441   0.12846   0.25001   0.00000  Uiso   1.00
O187   O     0.89441   0.20487   0.25001   0.00000  Uiso   1.00
O188   O     0.77226   0.12846   0.25000   0.00000  Uiso   1.00
O189   O     0.83333   0.20489   0.18453   0.00000  Uiso   1.00
O190   O     0.83334   0.12845   0.31547   0.00000  Uiso   1.00
O191   O     0.83334   0.20489   0.31547   0.00000  Uiso   1.00
O192   O     0.83333   0.12845   0.18453   0.00000  Uiso   1.00
Zn193  Zn    0.83333   0.21771   0.25000   0.00000  Uiso   1.00
Zn194  Zn    0.83333   0.11563   0.25000   0.00000  Uiso   1.00
C195   C     0.89581   0.04699   0.30227   0.00000  Uiso   1.00
H196   H     0.89210   0.08088   0.31352   0.00000  Uiso   1.00
O197   O     0.92999   0.02867   0.30966   0.00000  Uiso   1.00
C198   C     0.78474   0.28559   0.18361   0.00000  Uiso   1.00
H199   H     0.76833   0.25488   0.18986   0.00000  Uiso   1.00
O200   O     0.78421   0.30004   0.14530   0.00000  Uiso   1.00
C201   C     0.77122   0.04859   0.19728   0.00000  Uiso   1.00
H202   H     0.77594   0.08143   0.18381   0.00000  Uiso   1.00
O203   O     0.73634   0.03207   0.19182   0.00000  Uiso   1.00
C204   C     0.88136   0.28432   0.31686   0.00000  Uiso   1.00
H205   H     0.89842   0.25361   0.31087   0.00000  Uiso   1.00
O206   O     0.88082   0.29836   0.35518   0.00000  Uiso   1.00
O207   O     0.89181   0.20341   0.02222   0.00000  Uiso   1.00
H208   H     0.88282   0.21010   0.49082   0.00000  Uiso   1.00
O209   O     0.85567   0.09641   0.48229   0.00000  Uiso   1.00
H210   H     0.84214   0.09487   0.01149   0.00000  Uiso   1.00
O211   O     0.77709   0.23907   0.46729   0.00000  Uiso   1.00
H212   H     0.77464   0.23555   0.49993   0.00000  Uiso   1.00
O213   O     0.74884   0.14755   0.02578   0.00000  Uiso   1.00
H214   H     0.72505   0.15370   0.04537   0.00000  Uiso   1.00
O215   O     0.90147   0.19704   0.11105   0.00000  Uiso   1.00
H216   H     0.90416   0.18617   0.14234   0.00000  Uiso   1.00
O217   O     0.86802   0.09862   0.39064   0.00000  Uiso   1.00
H218   H     0.87873   0.07623   0.41296   0.00000  Uiso   1.00
O219   O     0.78291   0.23298   0.37477   0.00000  Uiso   1.00
H220   H     0.76501   0.25363   0.39184   0.00000  Uiso   1.00
O221   O     0.75979   0.13856   0.12169   0.00000  Uiso   1.00
H222   H     0.74295   0.11636   0.10427   0.00000  Uiso   1.00
C223   C     0.70491   0.08783   0.29045   0.00000  Uiso   1.00
H224   H     0.73642   0.08916   0.30573   0.00000  Uiso   1.00
O225   O     0.68330   0.05574   0.29988   0.00000  Uiso   1.00
C226   C     0.96216   0.24615   0.21021   0.00000  Uiso   1.00
H227   H     0.93022   0.24608   0.19606   0.00000  Uiso   1.00
O228   O     0.98461   0.27733   0.19997   0.00000  Uiso   1.00
C229   C     0.96407   0.08355   0.21984   0.00000  Uiso   1.00
H230   H     0.93412   0.08419   0.20108   0.00000  Uiso   1.00
O231   O     0.98508   0.04907   0.21847   0.00000  Uiso   1.00
C232   C     0.70225   0.25023   0.28020   0.00000  Uiso   1.00
H233   H     0.73315   0.25092   0.29691   0.00000  Uiso   1.00
O234   O     0.67972   0.28341   0.28392   0.00000  Uiso   1.00
C235   C     0.08697   0.50025   0.25591   0.00000  Uiso   1.00
C236   C     0.24638   0.49980   0.24412   0.00000  Uiso   1.00
C237   C     0.16620   0.50014   0.16415   0.00000  Uiso   1.00
C238   C     0.16567   0.49997   0.33620   0.00000  Uiso   1.00
C239   C     0.19464   0.35682   0.27729   0.00000  Uiso   1.00
C240   C     0.14133   0.64295   0.22005   0.00000  Uiso   1.00
C241   C     0.13874   0.35756   0.22267   0.00000  Uiso   1.00
C242   C     0.19191   0.64226   0.28003   0.00000  Uiso   1.00
C243   C     0.02070   0.45960   0.26289   0.00000  Uiso   1.00
C244   C     0.31271   0.54061   0.23737   0.00000  Uiso   1.00
C245   C     0.31365   0.45834   0.24265   0.00000  Uiso   1.00
C246   C     0.01970   0.54184   0.25758   0.00000  Uiso   1.00
C247   C     0.19154   0.52064   0.04542   0.00000  Uiso   1.00
C248   C     0.17186   0.46490   0.45681   0.00000  Uiso   1.00
C249   C     0.13162   0.53612   0.44938   0.00000  Uiso   1.00
C250   C     0.11947   0.49144   0.04868   0.00000  Uiso   1.00
C251   C     0.19650   0.51749   0.09159   0.00000  Uiso   1.00
C252   C     0.17777   0.46504   0.41074   0.00000  Uiso   1.00
C253   C     0.13570   0.53462   0.40295   0.00000  Uiso   1.00
C254   C     0.12462   0.48781   0.09544   0.00000  Uiso   1.00
C255   C     0.16295   0.50097   0.11624   0.00000  Uiso   1.00
C256   C     0.16010   0.50009   0.38425   0.00000  Uiso   1.00
C257   C     0.15346   0.50614   0.02424   0.00000  Uiso   1.00
C258   C     0.15060   0.50159   0.47601   0.00000  Uiso   1.00
C259   C     0.29138   0.49933   0.23719   0.00000  Uiso   1.00
C260   C     0.04200   0.50086   0.26296   0.00000  Uiso   1.00
N261   N     0.16667   0.61907   0.25000   0.00000  Uiso   1.00
N262   N     0.16667   0.38093   0.25000   0.00000  Uiso   1.00
O263   O     0.10559   0.53821   0.24999   0.00000  Uiso   1.00
O264   O     0.22774   0.46179   0.25001   0.00000  Uiso   1.00
O265   O     0.22774   0.53821   0.25001   0.00000  Uiso   1.00
O266   O     0.10559   0.46179   0.25000   0.00000  Uiso   1.00
O267   O     0.16666   0.53822   0.18453   0.00000  Uiso   1.00
O268   O     0.16667   0.46178   0.31547   0.00000  Uiso   1.00
O269   O     0.16667   0.53822   0.31547   0.00000  Uiso   1.00
O270   O     0.16666   0.46178   0.18453   0.00000  Uiso   1.00
Zn271  Zn    0.16667   0.55104   0.25000   0.00000  Uiso   1.00
Zn272  Zn    0.16667   0.44896   0.25000   0.00000  Uiso   1.00
C273   C     0.22914   0.38032   0.30227   0.00000  Uiso   1.00
H274   H     0.22543   0.41422   0.31352   0.00000  Uiso   1.00
O275   O     0.26332   0.36200   0.30966   0.00000  Uiso   1.00
C276   C     0.11808   0.61892   0.18361   0.00000  Uiso   1.00
H277   H     0.10166   0.58821   0.18986   0.00000  Uiso   1.00
O278   O     0.11755   0.63337   0.14530   0.00000  Uiso   1.00
C279   C     0.10455   0.38192   0.19728   0.00000  Uiso   1.00
H280   H     0.10928   0.41476   0.18381   0.00000  Uiso   1.00
O281   O     0.06967   0.36541   0.19182   0.00000  Uiso   1.00
C282   C     0.21470   0.61765   0.31686   0.00000  Uiso   1.00
H283   H     0.23176   0.58695   0.31087   0.00000  Uiso   1.00
O284   O     0.21415   0.63169   0.35518   0.00000  Uiso   1.00
O285   O     0.22515   0.53674   0.02222   0.00000  Uiso   1.00
H286   H     0.21615   0.54343   0.49082   0.00000  Uiso   1.00
O287   O     0.18901   0.42975   0.48229   0.00000  Uiso   1.00
H288   H     0.17547   0.42820   0.01149   0.00000  Uiso   1.00
O289   O     0.11042   0.57240   0.46729   0.00000  Uiso   1.00
H290   H     0.10797   0.56888   0.49993   0.00000  Uiso   1.00
O291   O     0.08218   0.48089   0.02578   0.00000  Uiso   1.00
H292   H     0.05838   0.48703   0.04537   0.00000  Uiso   1.00
O293   O     0.23481   0.53037   0.11105   0.00000  Uiso   1.00
H294   H     0.23749   0.51950   0.14234   0.00000  Uiso   1.00
O295   O     0.20135   0.43195   0.39064   0.00000  Uiso   1.00
H296   H     0.21206   0.40957   0.41296   0.00000  Uiso   1.00
O297   O     0.11624   0.56631   0.37477   0.00000  Uiso   1.00
H298   H     0.09834   0.58696   0.39184   0.00000  Uiso   1.00
O299   O     0.09313   0.47190   0.12169   0.00000  Uiso   1.00
H300   H     0.07628   0.44969   0.10427   0.00000  Uiso   1.00
C301   C     0.03824   0.42116   0.29045   0.00000  Uiso   1.00
H302   H     0.06975   0.42250   0.30573   0.00000  Uiso   1.00
O303   O     0.01663   0.38908   0.29988   0.00000  Uiso   1.00
C304   C     0.29550   0.57948   0.21021   0.00000  Uiso   1.00
H305   H     0.26355   0.57942   0.19606   0.00000  Uiso   1.00
O306   O     0.31794   0.61066   0.19997   0.00000  Uiso   1.00
C307   C     0.29740   0.41689   0.21984   0.00000  Uiso   1.00
H308   H     0.26745   0.41753   0.20108   0.00000  Uiso   1.00
O309   O     0.31842   0.38240   0.21847   0.00000  Uiso   1.00
C310   C     0.03559   0.58357   0.28020   0.00000  Uiso   1.00
H311   H     0.06648   0.58426   0.29691   0.00000  Uiso   1.00
O312   O     0.01306   0.61674   0.28392   0.00000  Uiso   1.00
C313   C     0.42030   0.50025   0.25591   0.00000  Uiso   1.00
C314   C     0.57972   0.49980   0.24412   0.00000  Uiso   1.00
C315   C     0.49953   0.50014   0.16415   0.00000  Uiso   1.00
C316   C     0.49900   0.49997   0.33620   0.00000  Uiso   1.00
C317   C     0.52797   0.35682   0.27729   0.00000  Uiso   1.00
C318   C     0.47466   0.64295   0.22005   0.00000  Uiso   1.00
C319   C     0.47207   0.35756   0.22267   0.00000  Uiso   1.00
C320   C     0.52525   0.64226   0.28003   0.00000  Uiso   1.00
C321   C     0.35403   0.45960   0.26289   0.00000  Uiso   1.00
C322   C     0.64604   0.54061   0.23737   0.00000  Uiso   1.00
C323   C     0.64698   0.45834   0.24265   0.00000  Uiso   1.00
C324   C     0.35303   0.54184   0.25758   0.00000  Uiso   1.00
C325   C     0.52487   0.52064   0.04542   0.00000  Uiso   1.00
C326   C     0.50520   0.46490   0.45681   0.00000  Uiso   1.00
C327   C     0.46496   0.53612   0.44938   0.00000  Uiso   1.00
C328   C     0.45280   0.49144   0.04868   0.00000  Uiso   1.00
C329   C     0.52984   0.51749   0.09159   0.00000  Uiso   1.00
C330   C     0.51110   0.46504   0.41074   0.00000  Uiso   1.00
C331   C     0.46904   0.53462   0.40295   0.00000  Uiso   1.00
C332   C     0.45796   0.48781   0.09544   0.00000  Uiso   1.00
C333   C     0.49629   0.50097   0.11624   0.00000  Uiso   1.00
C334   C     0.49343   0.50009   0.38425   0.00000  Uiso   1.00
C335   C     0.48679   0.50614   0.02424   0.00000  Uiso   1.00
C336   C     0.48393   0.50159   0.47601   0.00000  Uiso   1.00
C337   C     0.62471   0.49933   0.23719   0.00000  Uiso   1.00
C338   C     0.37534   0.50086   0.26296   0.00000  Uiso   1.00
N339   N     0.50000   0.61907   0.25000   0.00000  Uiso   1.00
N340   N     0.50000   0.38093   0.25000   0.00000  Uiso   1.00
O341   O     0.43892   0.53821   0.24999   0.00000  Uiso   1.00
O342   O     0.56108   0.46179   0.25001   0.00000  Uiso   1.00
O343   O     0.56108   0.53821   0.25001   0.00000  Uiso   1.00
O344   O     0.43892   0.46179   0.25000   0.00000  Uiso   1.00
O345   O     0.50000   0.53822   0.18453   0.00000  Uiso   1.00
O346   O     0.50000   0.46178   0.31547   0.00000  Uiso   1.00
O347   O     0.50000   0.53822   0.31547   0.00000  Uiso   1.00
O348   O     0.50000   0.46178   0.18453   0.00000  Uiso   1.00
Zn349  Zn    0.50000   0.55104   0.25000   0.00000  Uiso   1.00
Zn350  Zn    0.50000   0.44896   0.25000   0.00000  Uiso   1.00
C351   C     0.56247   0.38032   0.30227   0.00000  Uiso   1.00
H352   H     0.55876   0.41422   0.31352   0.00000  Uiso   1.00
O353   O     0.59665   0.36200   0.30966   0.00000  Uiso   1.00
C354   C     0.45141   0.61892   0.18361   0.00000  Uiso   1.00
H355   H     0.43499   0.58821   0.18986   0.00000  Uiso   1.00
O356   O     0.45088   0.63337   0.14530   0.00000  Uiso   1.00
C357   C     0.43788   0.38192   0.19728   0.00000  Uiso   1.00
H358   H     0.44261   0.41476   0.18381   0.00000  Uiso   1.00
O359   O     0.40301   0.36541   0.19182   0.00000  Uiso   1.00
C360   C     0.54803   0.61765   0.31686   0.00000  Uiso   1.00
H361   H     0.56509   0.58695   0.31087   0.00000  Uiso   1.00
O362   O     0.54749   0.63169   0.35518   0.00000  Uiso   1.00
O363   O     0.55848   0.53674   0.02222   0.00000  Uiso   1.00
H364   H     0.54949   0.54343   0.49082   0.00000  Uiso   1.00
O365   O     0.52234   0.42975   0.48229   0.00000  Uiso   1.00
H366   H     0.50881   0.42820   0.01149   0.00000  Uiso   1.00
O367   O     0.44375   0.57240   0.46729   0.00000  Uiso   1.00
H368   H     0.44130   0.56888   0.49993   0.00000  Uiso   1.00
O369   O     0.41551   0.48089   0.02578   0.00000  Uiso   1.00
H370   H     0.39171   0.48703   0.04537   0.00000  Uiso   1.00
O371   O     0.56814   0.53037   0.11105   0.00000  Uiso   1.00
H372   H     0.57083   0.51950   0.14234   0.00000  Uiso   1.00
O373   O     0.53469   0.43195   0.39064   0.00000  Uiso   1.00
H374   H     0.54539   0.40957   0.41296   0.00000  Uiso   1.00
O375   O     0.44957   0.56631   0.37477   0.00000  Uiso   1.00
H376   H     0.43167   0.58696   0.39184   0.00000  Uiso   1.00
O377   O     0.42646   0.47190   0.12169   0.00000  Uiso   1.00
H378   H     0.40962   0.44969   0.10427   0.00000  Uiso   1.00
C379   C     0.37158   0.42116   0.29045   0.00000  Uiso   1.00
H380   H     0.40309   0.42250   0.30573   0.00000  Uiso   1.00
O381   O     0.34997   0.38908   0.29988   0.00000  Uiso   1.00
C382   C     0.62883   0.57948   0.21021   0.00000  Uiso   1.00
H383   H     0.59688   0.57942   0.19606   0.00000  Uiso   1.00
O384   O     0.65127   0.61066   0.19997   0.00000  Uiso   1.00
C385   C     0.63074   0.41689   0.21984   0.00000  Uiso   1.00
H386   H     0.60078   0.41753   0.20108   0.00000  Uiso   1.00
O387   O     0.65175   0.38240   0.21847   0.00000  Uiso   1.00
C388   C     0.36892   0.58357   0.28020   0.00000  Uiso   1.00
H389   H     0.39982   0.58426   0.29691   0.00000  Uiso   1.00
O390   O     0.34639   0.61674   0.28392   0.00000  Uiso   1.00
C391   C     0.75363   0.50025   0.25591   0.00000  Uiso   1.00
C392   C     0.91305   0.49980   0.24412   0.00000  Uiso   1.00
C393   C     0.83286   0.50014   0.16415   0.00000  Uiso   1.00
C394   C     0.83234   0.49997   0.33620   0.00000  Uiso   1.00
C395   C     0.86131   0.35682   0.27729   0.00000  Uiso   1.00
C396   C     0.80799   0.64295   0.22005   0.00000  Uiso   1.00
C397   C     0.80541   0.35756   0.22267   0.00000  Uiso   1.00
C398   C     0.85858   0.64226   0.28003   0.00000  Uiso   1.00
C399   C     0.68737   0.45960   0.26289   0.00000  Uiso   1.00
C400   C     0.97937   0.54061   0.23737   0.00000  Uiso   1.00
C401   C     0.98032   0.45834   0.24265   0.00000  Uiso   1.00
C402   C     0.68637   0.54184   0.25758   0.00000  Uiso   1.00
C403   C     0.85820   0.52064   0.04542   0.00000  Uiso   1.00
C404   C     0.83853   0.46490   0.45681   0.00000  Uiso   1.00
C405   C     0.79829   0.53612   0.44938   0.00000  Uiso   1.00
C406   C     0.78614   0.49144   0.04868   0.00000  Uiso   1.00
C407   C     0.86317   0.51749   0.09159   0.00000  Uiso   1.00
C408   C     0.84443   0.46504   0.41074   0.00000  Uiso   1.00
C409   C     0.80237   0.53462   0.40295   0.00000  Uiso   1.00
C410   C     0.79129   0.48781   0.09544   0.00000  Uiso   1.00
C411   C     0.82962   0.50097   0.11624   0.00000  Uiso   1.00
C412   C     0.82677   0.50009   0.38425   0.00000  Uiso   1.00
C413   C     0.82012   0.50614   0.02424   0.00000  Uiso   1.00
C414   C     0.81726   0.50159   0.47601   0.00000  Uiso   1.00
C415   C     0.95805   0.49933   0.23719   0.00000  Uiso   1.00
C416   C     0.70867   0.50086   0.26296   0.00000  Uiso   1.00
N417   N     0.83333   0.61907   0.25000   0.00000  Uiso   1.00
N418   N     0.83333   0.38093   0.25000   0.00000  Uiso   1.00
O419   O     0.77226   0.53821   0.24999   0.00000  Uiso   1.00
O420   O     0.89441   0.46179   0.25001   0.00000  Uiso   1.00
O421   O     0.89441   0.53821   0.25001   0.00000  Uiso   1.00
O422   O     0.77226   0.46179   0.25000   0.00000  Uiso   1.00
O423   O     0.83333   0.53822   0.18453   0.00000  Uiso   1.00
O424   O     0.83334   0.46178   0.31547   0.00000  Uiso   1.00
O425   O     0.83334   0.53822   0.31547   0.00000  Uiso   1.00
O426   O     0.83333   0.46178   0.18453   0.00000  Uiso   1.00
Zn427  Zn    0.83333   0.55104   0.25000   0.00000  Uiso   1.00
Zn428  Zn    0.83333   0.44896   0.25000   0.00000  Uiso   1.00
C429   C     0.89581   0.38032   0.30227   0.00000  Uiso   1.00
H430   H     0.89210   0.41422   0.31352   0.00000  Uiso   1.00
O431   O     0.92999   0.36200   0.30966   0.00000  Uiso   1.00
C432   C     0.78474   0.61892   0.18361   0.00000  Uiso   1.00
H433   H     0.76833   0.58821   0.18986   0.00000  Uiso   1.00
O434   O     0.78421   0.63337   0.14530   0.00000  Uiso   1.00
C435   C     0.77122   0.38192   0.19728   0.00000  Uiso   1.00
H436   H     0.77594   0.41476   0.18381   0.00000  Uiso   1.00
O437   O     0.73634   0.36541   0.19182   0.00000  Uiso   1.00
C438   C     0.88136   0.61765   0.31686   0.00000  Uiso   1.00
H439   H     0.89842   0.58695   0.31087   0.00000  Uiso   1.00
O440   O     0.88082   0.63169   0.35518   0.00000  Uiso   1.00
O441   O     0.89181   0.53674   0.02222   0.00000  Uiso   1.00
H442   H     0.88282   0.54343   0.49082   0.00000  Uiso   1.00
O443   O     0.85567   0.42975   0.48229   0.00000  Uiso   1.00
H444   H     0.84214   0.42820   0.01149   0.00000  Uiso   1.00
O445   O     0.77709   0.57240   0.46729   0.00000  Uiso   1.00
H446   H     0.77464   0.56888   0.49993   0.00000  Uiso   1.00
O447   O     0.74884   0.48089   0.02578   0.00000  Uiso   1.00
H448   H     0.72505   0.48703   0.04537   0.00000  Uiso   1.00
O449   O     0.90147   0.53037   0.11105   0.00000  Uiso   1.00
H450   H     0.90416   0.51950   0.14234   0.00000  Uiso   1.00
O451   O     0.86802   0.43195   0.39064   0.00000  Uiso   1.00
H452   H     0.87873   0.40957   0.41296   0.00000  Uiso   1.00
O453   O     0.78291   0.56631   0.37477   0.00000  Uiso   1.00
H454   H     0.76501   0.58696   0.39184   0.00000  Uiso   1.00
O455   O     0.75979   0.47190   0.12169   0.00000  Uiso   1.00
H456   H     0.74295   0.44969   0.10427   0.00000  Uiso   1.00
C457   C     0.70491   0.42116   0.29045   0.00000  Uiso   1.00
H458   H     0.73642   0.42250   0.30573   0.00000  Uiso   1.00
O459   O     0.68330   0.38908   0.29988   0.00000  Uiso   1.00
C460   C     0.96216   0.57948   0.21021   0.00000  Uiso   1.00
H461   H     0.93022   0.57942   0.19606   0.00000  Uiso   1.00
O462   O     0.98461   0.61066   0.19997   0.00000  Uiso   1.00
C463   C     0.96407   0.41689   0.21984   0.00000  Uiso   1.00
H464   H     0.93412   0.41753   0.20108   0.00000  Uiso   1.00
O465   O     0.98508   0.38240   0.21847   0.00000  Uiso   1.00
C466   C     0.70225   0.58357   0.28020   0.00000  Uiso   1.00
H467   H     0.73315   0.58426   0.29691   0.00000  Uiso   1.00
O468   O     0.67972   0.61674   0.28392   0.00000  Uiso   1.00
C469   C     0.08697   0.83359   0.25591   0.00000  Uiso   1.00
C470   C     0.24638   0.83313   0.24412   0.00000  Uiso   1.00
C471   C     0.16620   0.83348   0.16415   0.00000  Uiso   1.00
C472   C     0.16567   0.83331   0.33620   0.00000  Uiso   1.00
C473   C     0.19464   0.69015   0.27729   0.00000  Uiso   1.00
C474   C     0.14133   0.97628   0.22005   0.00000  Uiso   1.00
C475   C     0.13874   0.69089   0.22267   0.00000  Uiso   1.00
C476   C     0.19191   0.97559   0.28003   0.00000  Uiso   1.00
C477   C     0.02070   0.79293   0.26289   0.00000  Uiso   1.00
C478   C     0.31271   0.87394   0.23737   0.00000  Uiso   1.00
C479   C     0.31365   0.79168   0.24265   0.00000  Uiso   1.00
C480   C     0.01970   0.87517   0.25758   0.00000  Uiso   1.00
C481   C     0.19154   0.85397   0.04542   0.00000  Uiso   1.00
C482   C     0.17186   0.79824   0.45681   0.00000  Uiso   1.00
C483   C     0.13162   0.86946   0.44938   0.00000  Uiso   1.00
C484   C     0.11947   0.82477   0.04868   0.00000  Uiso   1.00
C485   C     0.19650   0.85082   0.09159   0.00000  Uiso   1.00
C486   C     0.17777   0.79837   0.41074   0.00000  Uiso   1.00
C487   C     0.13570   0.86795   0.40295   0.00000  Uiso   1.00
C488   C     0.12462   0.82114   0.09544   0.00000  Uiso   1.00
C489   C     0.16295   0.83431   0.11624   0.00000  Uiso   1.00
C490   C     0.16010   0.83342   0.38425   0.00000  Uiso   1.00
C491   C     0.15346   0.83948   0.02424   0.00000  Uiso   1.00
C492   C     0.15060   0.83492   0.47601   0.00000  Uiso   1.00
C493   C     0.29138   0.83266   0.23719   0.00000  Uiso   1.00
C494   C     0.04200   0.83420   0.26296   0.00000  Uiso   1.00
N495   N     0.16667   0.95240   0.25000   0.00000  Uiso   1.00
N496   N     0.16667   0.71427   0.25000   0.00000  Uiso   1.00
O497   O     0.10559   0.87154   0.24999   0.00000  Uiso   1.00
O498   O     0.22774   0.79513   0.25001   0.00000  Uiso   1.00
O499   O     0.22774   0.87154   0.25001   0.00000  Uiso   1.00
O500   O     0.10559   0.79513   0.25000   0.00000  Uiso   1.00
O501   O     0.16666   0.87155   0.18453   0.00000  Uiso   1.00
O502   O     0.16667   0.79511   0.31547   0.00000  Uiso   1.00
O503   O     0.16667   0.87155   0.31547   0.00000  Uiso   1.00
O504   O     0.16666   0.79511   0.18453   0.00000  Uiso   1.00
Zn505  Zn    0.16667   0.88437   0.25000   0.00000  Uiso   1.00
Zn506  Zn    0.16667   0.78229   0.25000   0.00000  Uiso   1.00
C507   C     0.22914   0.71365   0.30227   0.00000  Uiso   1.00
H508   H     0.22543   0.74755   0.31352   0.00000  Uiso   1.00
O509   O     0.26332   0.69534   0.30966   0.00000  Uiso   1.00
C510   C     0.11808   0.95226   0.18361   0.00000  Uiso   1.00
H511   H     0.10166   0.92155   0.18986   0.00000  Uiso   1.00
O512   O     0.11755   0.96671   0.14530   0.00000  Uiso   1.00
C513   C     0.10455   0.71525   0.19728   0.00000  Uiso   1.00
H514   H     0.10928   0.74810   0.18381   0.00000  Uiso   1.00
O515   O     0.06967   0.69874   0.19182   0.00000  Uiso   1.00
C516   C     0.21470   0.95099   0.31686   0.00000  Uiso   1.00
H517   H     0.23176   0.92028   0.31087   0.00000  Uiso   1.00
O518   O     0.21415   0.96502   0.35518   0.00000  Uiso   1.00
O519   O     0.22515   0.87007   0.02222   0.00000  Uiso   1.00
H520   H     0.21615   0.87677   0.49082   0.00000  Uiso   1.00
O521   O     0.18901   0.76308   0.48229   0.00000  Uiso   1.00
H522   H     0.17547   0.76154   0.01149   0.00000  Uiso   1.00
O523   O     0.11042   0.90573   0.46729   0.00000  Uiso   1.00
H524   H     0.10797   0.90222   0.49993   0.00000  Uiso   1.00
O525   O     0.08218   0.81422   0.02578   0.00000  Uiso   1.00
H526   H     0.05838   0.82036   0.04537   0.00000  Uiso   1.00
O527   O     0.23481   0.86370   0.11105   0.00000  Uiso   1.00
H528   H     0.23749   0.85283   0.14234   0.00000  Uiso   1.00
O529   O     0.20135   0.76529   0.39064   0.00000  Uiso   1.00
H530   H     0.21206   0.74290   0.41296   0.00000  Uiso   1.00
O531   O     0.11624   0.89964   0.37477   0.00000  Uiso   1.00
H532   H     0.09834   0.92029   0.39184   0.00000  Uiso   1.00
O533   O     0.09313   0.80523   0.12169   0.00000  Uiso   1.00
H534   H     0.07628   0.78302   0.10427   0.00000  Uiso   1.00
C535   C     0.03824   0.75450   0.29045   0.00000  Uiso   1.00
H536   H     0.06975   0.75583   0.30573   0.00000  Uiso   1.00
O537   O     0.01663   0.72241   0.29988   0.00000  Uiso   1.00
C538   C     0.29550   0.91281   0.21021   0.00000  Uiso   1.00
H539   H     0.26355   0.91275   0.19606   0.00000  Uiso   1.00
O540   O     0.31794   0.94400   0.19997   0.00000  Uiso   1.00
C541   C     0.29740   0.75022   0.21984   0.00000  Uiso   1.00
H542   H     0.26745   0.75086   0.20108   0.00000  Uiso   1.00
O543   O     0.31842   0.71573   0.21847   0.00000  Uiso   1.00
C544   C     0.03559   0.91690   0.28020   0.00000  Uiso   1.00
H545   H     0.06648   0.91759   0.29691   0.00000  Uiso   1.00
O546   O     0.01306   0.95008   0.28392   0.00000  Uiso   1.00
C547   C     0.42030   0.83359   0.25591   0.00000  Uiso   1.00
C548   C     0.57972   0.83313   0.24412   0.00000  Uiso   1.00
C549   C     0.49953   0.83348   0.16415   0.00000  Uiso   1.00
C550   C     0.49900   0.83331   0.33620   0.00000  Uiso   1.00
C551   C     0.52797   0.69015   0.27729   0.00000  Uiso   1.00
C552   C     0.47466   0.97628   0.22005   0.00000  Uiso   1.00
C553   C     0.47207   0.69089   0.22267   0.00000  Uiso   1.00
C554   C     0.52525   0.97559   0.28003   0.00000  Uiso   1.00
C555   C     0.35403   0.79293   0.26289   0.00000  Uiso   1.00
C556   C     0.64604   0.87394   0.23737   0.00000  Uiso   1.00
C557   C     0.64698   0.79168   0.24265   0.00000  Uiso   1.00
C558   C     0.35303   0.87517   0.25758   0.00000  Uiso   1.00
C559   C     0.52487   0.85397   0.04542   0.00000  Uiso   1.00
C560   C     0.50520   0.79824   0.45681   0.00000  Uiso   1.00
C561   C     0.46496   0.86946   0.44938   0.00000  Uiso   1.00
C562   C     0.45280   0.82477   0.04868   0.00000  Uiso   1.00
C563   C     0.52984   0.85082   0.09159   0.00000  Uiso   1.00
C564   C     0.51110   0.79837   0.41074   0.00000  Uiso   1.00
C565   C     0.46904   0.86795   0.40295   0.00000  Uiso   1.00
C566   C     0.45796   0.82114   0.09544   0.00000  Uiso   1.00
C567   C     0.49629   0.83431   0.11624   0.00000  Uiso   1.00
C568   C     0.49343   0.83342   0.38425   0.00000  Uiso   1.00
C569   C     0.48679   0.83948   0.02424   0.00000  Uiso   1.00
C570   C     0.48393   0.83492   0.47601   0.00000  Uiso   1.00
C571   C     0.62471   0.83266   0.23719   0.00000  Uiso   1.00
C572   C     0.37534   0.83420   0.26296   0.00000  Uiso   1.00
N573   N     0.50000   0.95240   0.25000   0.00000  Uiso   1.00
N574   N     0.50000   0.71427   0.25000   0.00000  Uiso   1.00
O575   O     0.43892   0.87154   0.24999   0.00000  Uiso   1.00
O576   O     0.56108   0.79513   0.25001   0.00000  Uiso   1.00
O577   O     0.56108   0.87154   0.25001   0.00000  Uiso   1.00
O578   O     0.43892   0.79513   0.25000   0.00000  Uiso   1.00
O579   O     0.50000   0.87155   0.18453   0.00000  Uiso   1.00
O580   O     0.50000   0.79511   0.31547   0.00000  Uiso   1.00
O581   O     0.50000   0.87155   0.31547   0.00000  Uiso   1.00
O582   O     0.50000   0.79511   0.18453   0.00000  Uiso   1.00
Zn583  Zn    0.50000   0.88437   0.25000   0.00000  Uiso   1.00
Zn584  Zn    0.50000   0.78229   0.25000   0.00000  Uiso   1.00
C585   C     0.56247   0.71365   0.30227   0.00000  Uiso   1.00
H586   H     0.55876   0.74755   0.31352   0.00000  Uiso   1.00
O587   O     0.59665   0.69534   0.30966   0.00000  Uiso   1.00
C588   C     0.45141   0.95226   0.18361   0.00000  Uiso   1.00
H589   H     0.43499   0.92155   0.18986   0.00000  Uiso   1.00
O590   O     0.45088   0.96671   0.14530   0.00000  Uiso   1.00
C591   C     0.43788   0.71525   0.19728   0.00000  Uiso   1.00
H592   H     0.44261   0.74810   0.18381   0.00000  Uiso   1.00
O593   O     0.40301   0.69874   0.19182   0.00000  Uiso   1.00
C594   C     0.54803   0.95099   0.31686   0.00000  Uiso   1.00
H595   H     0.56509   0.92028   0.31087   0.00000  Uiso   1.00
O596   O     0.54749   0.96502   0.35518   0.00000  Uiso   1.00
O597   O     0.55848   0.87007   0.02222   0.00000  Uiso   1.00
H598   H     0.54949   0.87677   0.49082   0.00000  Uiso   1.00
O599   O     0.52234   0.76308   0.48229   0.00000  Uiso   1.00
H600   H     0.50881   0.76154   0.01149   0.00000  Uiso   1.00
O601   O     0.44375   0.90573   0.46729   0.00000  Uiso   1.00
H602   H     0.44130   0.90222   0.49993   0.00000  Uiso   1.00
O603   O     0.41551   0.81422   0.02578   0.00000  Uiso   1.00
H604   H     0.39171   0.82036   0.04537   0.00000  Uiso   1.00
O605   O     0.56814   0.86370   0.11105   0.00000  Uiso   1.00
H606   H     0.57083   0.85283   0.14234   0.00000  Uiso   1.00
O607   O     0.53469   0.76529   0.39064   0.00000  Uiso   1.00
H608   H     0.54539   0.74290   0.41296   0.00000  Uiso   1.00
O609   O     0.44957   0.89964   0.37477   0.00000  Uiso   1.00
H610   H     0.43167   0.92029   0.39184   0.00000  Uiso   1.00
O611   O     0.42646   0.80523   0.12169   0.00000  Uiso   1.00
H612   H     0.40962   0.78302   0.10427   0.00000  Uiso   1.00
C613   C     0.37158   0.75450   0.29045   0.00000  Uiso   1.00
H614   H     0.40309   0.75583   0.30573   0.00000  Uiso   1.00
O615   O     0.34997   0.72241   0.29988   0.00000  Uiso   1.00
C616   C     0.62883   0.91281   0.21021   0.00000  Uiso   1.00
H617   H     0.59688   0.91275   0.19606   0.00000  Uiso   1.00
O618   O     0.65127   0.94400   0.19997   0.00000  Uiso   1.00
C619   C     0.63074   0.75022   0.21984   0.00000  Uiso   1.00
H620   H     0.60078   0.75086   0.20108   0.00000  Uiso   1.00
O621   O     0.65175   0.71573   0.21847   0.00000  Uiso   1.00
C622   C     0.36892   0.91690   0.28020   0.00000  Uiso   1.00
H623   H     0.39982   0.91759   0.29691   0.00000  Uiso   1.00
O624   O     0.34639   0.95008   0.28392   0.00000  Uiso   1.00
C625   C     0.75363   0.83359   0.25591   0.00000  Uiso   1.00
C626   C     0.91305   0.83313   0.24412   0.00000  Uiso   1.00
C627   C     0.83286   0.83348   0.16415   0.00000  Uiso   1.00
C628   C     0.83234   0.83331   0.33620   0.00000  Uiso   1.00
C629   C     0.86131   0.69015   0.27729   0.00000  Uiso   1.00
C630   C     0.80799   0.97628   0.22005   0.00000  Uiso   1.00
C631   C     0.80541   0.69089   0.22267   0.00000  Uiso   1.00
C632   C     0.85858   0.97559   0.28003   0.00000  Uiso   1.00
C633   C     0.68737   0.79293   0.26289   0.00000  Uiso   1.00
C634   C     0.97937   0.87394   0.23737   0.00000  Uiso   1.00
C635   C     0.98032   0.79168   0.24265   0.00000  Uiso   1.00
C636   C     0.68637   0.87517   0.25758   0.00000  Uiso   1.00
C637   C     0.85820   0.85397   0.04542   0.00000  Uiso   1.00
C638   C     0.83853   0.79824   0.45681   0.00000  Uiso   1.00
C639   C     0.79829   0.86946   0.44938   0.00000  Uiso   1.00
C640   C     0.78614   0.82477   0.04868   0.00000  Uiso   1.00
C641   C     0.86317   0.85082   0.09159   0.00000  Uiso   1.00
C642   C     0.84443   0.79837   0.41074   0.00000  Uiso   1.00
C643   C     0.80237   0.86795   0.40295   0.00000  Uiso   1.00
C644   C     0.79129   0.82114   0.09544   0.00000  Uiso   1.00
C645   C     0.82962   0.83431   0.11624   0.00000  Uiso   1.00
C646   C     0.82677   0.83342   0.38425   0.00000  Uiso   1.00
C647   C     0.82012   0.83948   0.02424   0.00000  Uiso   1.00
C648   C     0.81726   0.83492   0.47601   0.00000  Uiso   1.00
C649   C     0.95805   0.83266   0.23719   0.00000  Uiso   1.00
C650   C     0.70867   0.83420   0.26296   0.00000  Uiso   1.00
N651   N     0.83333   0.95240   0.25000   0.00000  Uiso   1.00
N652   N     0.83333   0.71427   0.25000   0.00000  Uiso   1.00
O653   O     0.77226   0.87154   0.24999   0.00000  Uiso   1.00
O654   O     0.89441   0.79513   0.25001   0.00000  Uiso   1.00
O655   O     0.89441   0.87154   0.25001   0.00000  Uiso   1.00
O656   O     0.77226   0.79513   0.25000   0.00000  Uiso   1.00
O657   O     0.83333   0.87155   0.18453   0.00000  Uiso   1.00
O658   O     0.83334   0.79511   0.31547   0.00000  Uiso   1.00
O659   O     0.83334   0.87155   0.31547   0.00000  Uiso   1.00
O660   O     0.83333   0.79511   0.18453   0.00000  Uiso   1.00
Zn661  Zn    0.83333   0.88437   0.25000   0.00000  Uiso   1.00
Zn662  Zn    0.83333   0.78229   0.25000   0.00000  Uiso   1.00
C663   C     0.89581   0.71365   0.30227   0.00000  Uiso   1.00
H664   H     0.89210   0.74755   0.31352   0.00000  Uiso   1.00
O665   O     0.92999   0.69534   0.30966   0.00000  Uiso   1.00
C666   C     0.78474   0.95226   0.18361   0.00000  Uiso   1.00
H667   H     0.76833   0.92155   0.18986   0.00000  Uiso   1.00
O668   O     0.78421   0.96671   0.14530   0.00000  Uiso   1.00
C669   C     0.77122   0.71525   0.19728   0.00000  Uiso   1.00
H670   H     0.77594   0.74810   0.18381   0.00000  Uiso   1.00
O671   O     0.73634   0.69874   0.19182   0.00000  Uiso   1.00
C672   C     0.88136   0.95099   0.31686   0.00000  Uiso   1.00
H673   H     0.89842   0.92028   0.31087   0.00000  Uiso   1.00
O674   O     0.88082   0.96502   0.35518   0.00000  Uiso   1.00
O675   O     0.89181   0.87007   0.02222   0.00000  Uiso   1.00
H676   H     0.88282   0.87677   0.49082   0.00000  Uiso   1.00
O677   O     0.85567   0.76308   0.48229   0.00000  Uiso   1.00
H678   H     0.84214   0.76154   0.01149   0.00000  Uiso   1.00
O679   O     0.77709   0.90573   0.46729   0.00000  Uiso   1.00
H680   H     0.77464   0.90222   0.49993   0.00000  Uiso   1.00
O681   O     0.74884   0.81422   0.02578   0.00000  Uiso   1.00
H682   H     0.72505   0.82036   0.04537   0.00000  Uiso   1.00
O683   O     0.90147   0.86370   0.11105   0.00000  Uiso   1.00
H684   H     0.90416   0.85283   0.14234   0.00000  Uiso   1.00
O685   O     0.86802   0.76529   0.39064   0.00000  Uiso   1.00
H686   H     0.87873   0.74290   0.41296   0.00000  Uiso   1.00
O687   O     0.78291   0.89964   0.37477   0.00000  Uiso   1.00
H688   H     0.76501   0.92029   0.39184   0.00000  Uiso   1.00
O689   O     0.75979   0.80523   0.12169   0.00000  Uiso   1.00
H690   H     0.74295   0.78302   0.10427   0.00000  Uiso   1.00
C691   C     0.70491   0.75450   0.29045   0.00000  Uiso   1.00
H692   H     0.73642   0.75583   0.30573   0.00000  Uiso   1.00
O693   O     0.68330   0.72241   0.29988   0.00000  Uiso   1.00
C694   C     0.96216   0.91281   0.21021   0.00000  Uiso   1.00
H695   H     0.93022   0.91275   0.19606   0.00000  Uiso   1.00
O696   O     0.98461   0.94400   0.19997   0.00000  Uiso   1.00
C697   C     0.96407   0.75022   0.21984   0.00000  Uiso   1.00
H698   H     0.93412   0.75086   0.20108   0.00000  Uiso   1.00
O699   O     0.98508   0.71573   0.21847   0.00000  Uiso   1.00
C700   C     0.70225   0.91690   0.28020   0.00000  Uiso   1.00
H701   H     0.73315   0.91759   0.29691   0.00000  Uiso   1.00
O702   O     0.67972   0.95008   0.28392   0.00000  Uiso   1.00
C703   C     0.08697   0.16692   0.75591   0.00000  Uiso   1.00
C704   C     0.24638   0.16646   0.74412   0.00000  Uiso   1.00
C705   C     0.16620   0.16681   0.66415   0.00000  Uiso   1.00
C706   C     0.16567   0.16664   0.83620   0.00000  Uiso   1.00
C707   C     0.19464   0.02349   0.77729   0.00000  Uiso   1.00
C708   C     0.14133   0.30962   0.72005   0.00000  Uiso   1.00
C709   C     0.13874   0.02423   0.72267   0.00000  Uiso   1.00
C710   C     0.19191   0.30893   0.78003   0.00000  Uiso   1.00
C711   C     0.02070   0.12626   0.76289   0.00000  Uiso   1.00
C712   C     0.31271   0.20727   0.73737   0.00000  Uiso   1.00
C713   C     0.31365   0.12501   0.74265   0.00000  Uiso   1.00
C714   C     0.01970   0.20851   0.75758   0.00000  Uiso   1.00
C715   C     0.19154   0.18730   0.54542   0.00000  Uiso   1.00
C716   C     0.17186   0.13157   0.95681   0.00000  Uiso   1.00
C717   C     0.13162   0.20279   0.94938   0.00000  Uiso   1.00
C718   C     0.11947   0.15810   0.54868   0.00000  Uiso   1.00
C719   C     0.19650   0.18416   0.59159   0.00000  Uiso   1.00
C720   C     0.17777   0.13170   0.91074   0.00000  Uiso   1.00
C721   C     0.13570   0.20128   0.90295   0.00000  Uiso   1.00
C722   C     0.12462   0.15448   0.59544   0.00000  Uiso   1.00
C723   C     0.16295   0.16764   0.61624   0.00000  Uiso   1.00
C724   C     0.16010   0.16675   0.88425   0.00000  Uiso   1.00
C725   C     0.15346   0.17281   0.52424   0.00000  Uiso   1.00
C726   C     0.15060   0.16826   0.97601   0.00000  Uiso   1.00
C727   C     0.29138   0.16600   0.73719   0.00000  Uiso   1.00
C728   C     0.04200   0.16753   0.76296   0.00000  Uiso   1.00
N729   N     0.16667   0.28573   0.75000   0.00000  Uiso   1.00
N730   N     0.16667   0.04760   0.75000   0.00000  Uiso   1.00
O731   O     0.10559   0.20487   0.74999   0.00000  Uiso   1.00
O732   O     0.22774   0.12846   0.75001   0.00000  Uiso   1.00
O733   O     0.22774   0.20487   0.75001   0.00000  Uiso   1.00
O734   O     0.10559   0.12846   0.75000   0.00000  Uiso   1.00
O735   O     0.16666   0.20489   0.68453   0.00000  Uiso   1.00
O736   O     0.16667   0.12845   0.81547   0.00000  Uiso   1.00
O737   O     0.16667   0.20489   0.81547   0.00000  Uiso   1.00
O738   O     0.16666   0.12845   0.68453   0.00000  Uiso   1.00
Zn739  Zn    0.16667   0.21771   0.75000   0.00000  Uiso   1.00
Zn740  Zn    0.16667   0.11563   0.75000   0.00000  Uiso   1.00
C741   C     0.22914   0.04699   0.80227   0.00000  Uiso   1.00
H742   H     0.22543   0.08088   0.81352   0.00000  Uiso   1.00
O743   O     0.26332   0.02867   0.80966   0.00000  Uiso   1.00
C744   C     0.11808   0.28559   0.68361   0.00000  Uiso   1.00
H745   H     0.10166   0.25488   0.68986   0.00000  Uiso   1.00
O746   O     0.11755   0.30004   0.64530   0.00000  Uiso   1.00
C747   C     0.10455   0.04859   0.69728   0.00000  Uiso   1.00
H748   H     0.10928   0.08143   0.68381   0.00000  Uiso   1.00
O749   O     0.06967   0.03207   0.69182   0.00000  Uiso   1.00
C750   C     0.21470   0.28432   0.81686   0.00000  Uiso   1.00
H751   H     0.23176   0.25361   0.81087   0.00000  Uiso   1.00
O752   O     0.21415   0.29836   0.85518   0.00000  Uiso   1.00
O753   O     0.22515   0.20341   0.52222   0.00000  Uiso   1.00
H754   H     0.21615   0.21010   0.99082   0.00000  Uiso   1.00
O755   O     0.18901   0.09641   0.98229   0.00000  Uiso   1.00
H756   H     0.17547   0.09487   0.51149   0.00000  Uiso   1.00
O757   O     0.11042   0.23907   0.96729   0.00000  Uiso   1.00
H758   H     0.10797   0.23555   0.99993   0.00000  Uiso   1.00
O759   O     0.08218   0.14755   0.52578   0.00000  Uiso   1.00
H760   H     0.05838   0.15370   0.54537   0.00000  Uiso   1.00
O761   O     0.23481   0.19704   0.61105   0.00000  Uiso   1.00
H762   H     0.23749   0.18617   0.64234   0.00000  Uiso   1.00
O763   O     0.20135   0.09862   0.89064   0.00000  Uiso   1.00
H764   H     0.21206   0.07623   0.91296   0.00000  Uiso   1.00
O765   O     0.11624   0.23298   0.87477   0.00000  Uiso   1.00
H766   H     0.09834   0.25363   0.89184   0.00000  Uiso   1.00
O767   O     0.09313   0.13856   0.62169   0.00000  Uiso   1.00
H768   H     0.07628   0.11636   0.60427   0.00000  Uiso   1.00
C769   C     0.03824   0.08783   0.79045   0.00000  Uiso   1.00
H770   H     0.06975   0.08916   0.80573   0.00000  Uiso   1.00
O771   O     0.01663   0.05574   0.79988   0.00000  Uiso   1.00
C772   C     0.29550   0.24615   0.71021   0.00000  Uiso   1.00
H773   H     0.26355   0.24608   0.69606   0.00000  Uiso   1.00
O774   O     0.31794   0.27733   0.69997   0.00000  Uiso   1.00
C775   C     0.29740   0.08355   0.71984   0.00000  Uiso   1.00
H776   H     0.26745   0.08419   0.70108   0.00000  Uiso   1.00
O777   O     0.31842   0.04907   0.71847   0.00000  Uiso   1.00
C778   C     0.03559   0.25023   0.78020   0.00000  Uiso   1.00
H779   H     0.06648   0.25092   0.79691   0.00000  Uiso   1.00
O780   O     0.01306   0.28341   0.78392   0.00000  Uiso   1.00
C781   C     0.42030   0.16692   0.75591   0.00000  Uiso   1.00
C782   C     0.57972   0.16646   0.74412   0.00000  Uiso   1.00
C783   C     0.49953   0.16681   0.66415   0.00000  Uiso   1.00
C784   C     0.49900   0.16664   0.83620   0.00000  Uiso   1.00
C785   C     0.52797   0.02349   0.77729   0.00000  Uiso   1.00
C786   C     0.47466   0.30962   0.72005   0.00000  Uiso   1.00
C787   C     0.47207   0.02423   0.72267   0.00000  Uiso   1.00
C788   C     0.52525   0.30893   0.78003   0.00000  Uiso   1.00
C789   C     0.35403   0.12626   0.76289   0.00000  Uiso   1.00
C790   C     0.64604   0.20727   0.73737   0.00000  Uiso   1.00
C791   C     0.64698   0.12501   0.74265   0.00000  Uiso   1.00
C792   C     0.35303   0.20851   0.75758   0.00000  Uiso   1.00
C793   C     0.52487   0.18730   0.54542   0.00000  Uiso   1.00
C794   C     0.50520   0.13157   0.95681   0.00000  Uiso   1.00
C795   C     0.46496   0.20279   0.94938   0.00000  Uiso   1.00
C796   C     0.45280   0.15810   0.54868   0.00000  Uiso   1.00
C797   C     0.52984   0.18416   0.59159   0.00000  Uiso   1.00
C798   C     0.51110   0.13170   0.91074   0.00000  Uiso   1.00
C799   C     0.46904   0.20128   0.90295   0.00000  Uiso   1.00
C800   C     0.45796   0.15448   0.59544   0.00000  Uiso   1.00
C801   C     0.49629   0.16764   0.61624   0.00000  Uiso   1.00
C802   C     0.49343   0.16675   0.88425   0.00000  Uiso   1.00
C803   C     0.48679   0.17281   0.52424   0.00000  Uiso   1.00
C804   C     0.48393   0.16826   0.97601   0.00000  Uiso   1.00
C805   C     0.62471   0.16600   0.73719   0.00000  Uiso   1.00
C806   C     0.37534   0.16753   0.76296   0.00000  Uiso   1.00
N807   N     0.50000   0.28573   0.75000   0.00000  Uiso   1.00
N808   N     0.50000   0.04760   0.75000   0.00000  Uiso   1.00
O809   O     0.43892   0.20487   0.74999   0.00000  Uiso   1.00
O810   O     0.56108   0.12846   0.75001   0.00000  Uiso   1.00
O811   O     0.56108   0.20487   0.75001   0.00000  Uiso   1.00
O812   O     0.43892   0.12846   0.75000   0.00000  Uiso   1.00
O813   O     0.50000   0.20489   0.68453   0.00000  Uiso   1.00
O814   O     0.50000   0.12845   0.81547   0.00000  Uiso   1.00
O815   O     0.50000   0.20489   0.81547   0.00000  Uiso   1.00
O816   O     0.50000   0.12845   0.68453   0.00000  Uiso   1.00
Zn817  Zn    0.50000   0.21771   0.75000   0.00000  Uiso   1.00
Zn818  Zn    0.50000   0.11563   0.75000   0.00000  Uiso   1.00
C819   C     0.56247   0.04699   0.80227   0.00000  Uiso   1.00
H820   H     0.55876   0.08088   0.81352   0.00000  Uiso   1.00
O821   O     0.59665   0.02867   0.80966   0.00000  Uiso   1.00
C822   C     0.45141   0.28559   0.68361   0.00000  Uiso   1.00
H823   H     0.43499   0.25488   0.68986   0.00000  Uiso   1.00
O824   O     0.45088   0.30004   0.64530   0.00000  Uiso   1.00
C825   C     0.43788   0.04859   0.69728   0.00000  Uiso   1.00
H826   H     0.44261   0.08143   0.68381   0.00000  Uiso   1.00
O827   O     0.40301   0.03207   0.69182   0.00000  Uiso   1.00
C828   C     0.54803   0.28432   0.81686   0.00000  Uiso   1.00
H829   H     0.56509   0.25361   0.81087   0.00000  Uiso   1.00
O830   O     0.54749   0.29836   0.85518   0.00000  Uiso   1.00
O831   O     0.55848   0.20341   0.52222   0.00000  Uiso   1.00
H832   H     0.54949   0.21010   0.99082   0.00000  Uiso   1.00
O833   O     0.52234   0.09641   0.98229   0.00000  Uiso   1.00
H834   H     0.50881   0.09487   0.51149   0.00000  Uiso   1.00
O835   O     0.44375   0.23907   0.96729   0.00000  Uiso   1.00
H836   H     0.44130   0.23555   0.99993   0.00000  Uiso   1.00
O837   O     0.41551   0.14755   0.52578   0.00000  Uiso   1.00
H838   H     0.39171   0.15370   0.54537   0.00000  Uiso   1.00
O839   O     0.56814   0.19704   0.61105   0.00000  Uiso   1.00
H840   H     0.57083   0.18617   0.64234   0.00000  Uiso   1.00
O841   O     0.53469   0.09862   0.89064   0.00000  Uiso   1.00
H842   H     0.54539   0.07623   0.91296   0.00000  Uiso   1.00
O843   O     0.44957   0.23298   0.87477   0.00000  Uiso   1.00
H844   H     0.43167   0.25363   0.89184   0.00000  Uiso   1.00
O845   O     0.42646   0.13856   0.62169   0.00000  Uiso   1.00
H846   H     0.40962   0.11636   0.60427   0.00000  Uiso   1.00
C847   C     0.37158   0.08783   0.79045   0.00000  Uiso   1.00
H848   H     0.40309   0.08916   0.80573   0.00000  Uiso   1.00
O849   O     0.34997   0.05574   0.79988   0.00000  Uiso   1.00
C850   C     0.62883   0.24615   0.71021   0.00000  Uiso   1.00
H851   H     0.59688   0.24608   0.69606   0.00000  Uiso   1.00
O852   O     0.65127   0.27733   0.69997   0.00000  Uiso   1.00
C853   C     0.63074   0.08355   0.71984   0.00000  Uiso   1.00
H854   H     0.60078   0.08419   0.70108   0.00000  Uiso   1.00
O855   O     0.65175   0.04907   0.71847   0.00000  Uiso   1.00
C856   C     0.36892   0.25023   0.78020   0.00000  Uiso   1.00
H857   H     0.39982   0.25092   0.79691   0.00000  Uiso   1.00
O858   O     0.34639   0.28341   0.78392   0.00000  Uiso   1.00
C859   C     0.75363   0.16692   0.75591   0.00000  Uiso   1.00
C860   C     0.91305   0.16646   0.74412   0.00000  Uiso   1.00
C861   C     0.83286   0.16681   0.66415   0.00000  Uiso   1.00
C862   C     0.83234   0.16664   0.83620   0.00000  Uiso   1.00
C863   C     0.86131   0.02349   0.77729   0.00000  Uiso   1.00
C864   C     0.80799   0.30962   0.72005   0.00000  Uiso   1.00
C865   C     0.80541   0.02423   0.72267   0.00000  Uiso   1.00
C866   C     0.85858   0.30893   0.78003   0.00000  Uiso   1.00
C867   C     0.68737   0.12626   0.76289   0.00000  Uiso   1.00
C868   C     0.97937   0.20727   0.73737   0.00000  Uiso   1.00
C869   C     0.98032   0.12501   0.74265   0.00000  Uiso   1.00
C870   C     0.68637   0.20851   0.75758   0.00000  Uiso   1.00
C871   C     0.85820   0.18730   0.54542   0.00000  Uiso   1.00
C872   C     0.83853   0.13157   0.95681   0.00000  Uiso   1.00
C873   C     0.79829   0.20279   0.94938   0.00000  Uiso   1.00
C874   C     0.78614   0.15810   0.54868   0.00000  Uiso   1.00
C875   C     0.86317   0.18416   0.59159   0.00000  Uiso   1.00
C876   C     0.84443   0.13170   0.91074   0.00000  Uiso   1.00
C877   C     0.80237   0.20128   0.90295   0.00000  Uiso   1.00
C878   C     0.79129   0.15448   0.59544   0.00000  Uiso   1.00
C879   C     0.82962   0.16764   0.61624   0.00000  Uiso   1.00
C880   C     0.82677   0.16675   0.88425   0.00000  Uiso   1.00
C881   C     0.82012   0.17281   0.52424   0.00000  Uiso   1.00
C882   C     0.81726   0.16826   0.97601   0.00000  Uiso   1.00
C883   C     0.95805   0.16600   0.73719   0.00000  Uiso   1.00
C884   C     0.70867   0.16753   0.76296   0.00000  Uiso   1.00
N885   N     0.83333   0.28573   0.75000   0.00000  Uiso   1.00
N886   N     0.83333   0.04760   0.75000   0.00000  Uiso   1.00
O887   O     0.77226   0.20487   0.74999   0.00000  Uiso   1.00
O888   O     0.89441   0.12846   0.75001   0.00000  Uiso   1.00
O889   O     0.89441   0.20487   0.75001   0.00000  Uiso   1.00
O890   O     0.77226   0.12846   0.75000   0.00000  Uiso   1.00
O891   O     0.83333   0.20489   0.68453   0.00000  Uiso   1.00
O892   O     0.83334   0.12845   0.81547   0.00000  Uiso   1.00
O893   O     0.83334   0.20489   0.81547   0.00000  Uiso   1.00
O894   O     0.83333   0.12845   0.68453   0.00000  Uiso   1.00
Zn895  Zn    0.83333   0.21771   0.75000   0.00000  Uiso   1.00
Zn896  Zn    0.83333   0.11563   0.75000   0.00000  Uiso   1.00
C897   C     0.89581   0.04699   0.80227   0.00000  Uiso   1.00
H898   H     0.89210   0.08088   0.81352   0.00000  Uiso   1.00
O899   O     0.92999   0.02867   0.80966   0.00000  Uiso   1.00
C900   C     0.78474   0.28559   0.68361   0.00000  Uiso   1.00
H901   H     0.76833   0.25488   0.68986   0.00000  Uiso   1.00
O902   O     0.78421   0.30004   0.64530   0.00000  Uiso   1.00
C903   C     0.77122   0.04859   0.69728   0.00000  Uiso   1.00
H904   H     0.77594   0.08143   0.68381   0.00000  Uiso   1.00
O905   O     0.73634   0.03207   0.69182   0.00000  Uiso   1.00
C906   C     0.88136   0.28432   0.81686   0.00000  Uiso   1.00
H907   H     0.89842   0.25361   0.81087   0.00000  Uiso   1.00
O908   O     0.88082   0.29836   0.85518   0.00000  Uiso   1.00
O909   O     0.89181   0.20341   0.52222   0.00000  Uiso   1.00
H910   H     0.88282   0.21010   0.99082   0.00000  Uiso   1.00
O911   O     0.85567   0.09641   0.98229   0.00000  Uiso   1.00
H912   H     0.84214   0.09487   0.51149   0.00000  Uiso   1.00
O913   O     0.77709   0.23907   0.96729   0.00000  Uiso   1.00
H914   H     0.77464   0.23555   0.99993   0.00000  Uiso   1.00
O915   O     0.74884   0.14755   0.52578   0.00000  Uiso   1.00
H916   H     0.72505   0.15370   0.54537   0.00000  Uiso   1.00
O917   O     0.90147   0.19704   0.61105   0.00000  Uiso   1.00
H918   H     0.90416   0.18617   0.64234   0.00000  Uiso   1.00
O919   O     0.86802   0.09862   0.89064   0.00000  Uiso   1.00
H920   H     0.87873   0.07623   0.91296   0.00000  Uiso   1.00
O921   O     0.78291   0.23298   0.87477   0.00000  Uiso   1.00
H922   H     0.76501   0.25363   0.89184   0.00000  Uiso   1.00
O923   O     0.75979   0.13856   0.62169   0.00000  Uiso   1.00
H924   H     0.74295   0.11636   0.60427   0.00000  Uiso   1.00
C925   C     0.70491   0.08783   0.79045   0.00000  Uiso   1.00
H926   H     0.73642   0.08916   0.80573   0.00000  Uiso   1.00
O927   O     0.68330   0.05574   0.79988   0.00000  Uiso   1.00
C928   C     0.96216   0.24615   0.71021   0.00000  Uiso   1.00
H929   H     0.93022   0.24608   0.69606   0.00000  Uiso   1.00
O930   O     0.98461   0.27733   0.69997   0.00000  Uiso   1.00
C931   C     0.96407   0.08355   0.71984   0.00000  Uiso   1.00
H932   H     0.93412   0.08419   0.70108   0.00000  Uiso   1.00
O933   O     0.98508   0.04907   0.71847   0.00000  Uiso   1.00
C934   C     0.70225   0.25023   0.78020   0.00000  Uiso   1.00
H935   H     0.73315   0.25092   0.79691   0.00000  Uiso   1.00
O936   O     0.67972   0.28341   0.78392   0.00000  Uiso   1.00
C937   C     0.08697   0.50025   0.75591   0.00000  Uiso   1.00
C938   C     0.24638   0.49980   0.74412   0.00000  Uiso   1.00
C939   C     0.16620   0.50014   0.66415   0.00000  Uiso   1.00
C940   C     0.16567   0.49997   0.83620   0.00000  Uiso   1.00
C941   C     0.19464   0.35682   0.77729   0.00000  Uiso   1.00
C942   C     0.14133   0.64295   0.72005   0.00000  Uiso   1.00
C943   C     0.13874   0.35756   0.72267   0.00000  Uiso   1.00
C944   C     0.19191   0.64226   0.78003   0.00000  Uiso   1.00
C945   C     0.02070   0.45960   0.76289   0.00000  Uiso   1.00
C946   C     0.31271   0.54061   0.73737   0.00000  Uiso   1.00
C947   C     0.31365   0.45834   0.74265   0.00000  Uiso   1.00
C948   C     0.01970   0.54184   0.75758   0.00000  Uiso   1.00
C949   C     0.19154   0.52064   0.54542   0.00000  Uiso   1.00
C950   C     0.17186   0.46490   0.95681   0.00000  Uiso   1.00
C951   C     0.13162   0.53612   0.94938   0.00000  Uiso   1.00
C952   C     0.11947   0.49144   0.54868   0.00000  Uiso   1.00
C953   C     0.19650   0.51749   0.59159   0.00000  Uiso   1.00
C954   C     0.17777   0.46504   0.91074   0.00000  Uiso   1.00
C955   C     0.13570   0.53462   0.90295   0.00000  Uiso   1.00
C956   C     0.12462   0.48781   0.59544   0.00000  Uiso   1.00
C957   C     0.16295   0.50097   0.61624   0.00000  Uiso   1.00
C958   C     0.16010   0.50009   0.88425   0.00000  Uiso   1.00
C959   C     0.15346   0.50614   0.52424   0.00000  Uiso   1.00
C960   C     0.15060   0.50159   0.97601   0.00000  Uiso   1.00
C961   C     0.29138   0.49933   0.73719   0.00000  Uiso   1.00
C962   C     0.04200   0.50086   0.76296   0.00000  Uiso   1.00
N963   N     0.16667   0.61907   0.75000   0.00000  Uiso   1.00
N964   N     0.16667   0.38093   0.75000   0.00000  Uiso   1.00
O965   O     0.10559   0.53821   0.74999   0.00000  Uiso   1.00
O966   O     0.22774   0.46179   0.75001   0.00000  Uiso   1.00
O967   O     0.22774   0.53821   0.75001   0.00000  Uiso   1.00
O968   O     0.10559   0.46179   0.75000   0.00000  Uiso   1.00
O969   O     0.16666   0.53822   0.68453   0.00000  Uiso   1.00
O970   O     0.16667   0.46178   0.81547   0.00000  Uiso   1.00
O971   O     0.16667   0.53822   0.81547   0.00000  Uiso   1.00
O972   O     0.16666   0.46178   0.68453   0.00000  Uiso   1.00
Zn973  Zn    0.16667   0.55104   0.75000   0.00000  Uiso   1.00
Zn974  Zn    0.16667   0.44896   0.75000   0.00000  Uiso   1.00
C975   C     0.22914   0.38032   0.80227   0.00000  Uiso   1.00
H976   H     0.22543   0.41422   0.81352   0.00000  Uiso   1.00
O977   O     0.26332   0.36200   0.80966   0.00000  Uiso   1.00
C978   C     0.11808   0.61892   0.68361   0.00000  Uiso   1.00
H979   H     0.10166   0.58821   0.68986   0.00000  Uiso   1.00
O980   O     0.11755   0.63337   0.64530   0.00000  Uiso   1.00
C981   C     0.10455   0.38192   0.69728   0.00000  Uiso   1.00
H982   H     0.10928   0.41476   0.68381   0.00000  Uiso   1.00
O983   O     0.06967   0.36541   0.69182   0.00000  Uiso   1.00
C984   C     0.21470   0.61765   0.81686   0.00000  Uiso   1.00
H985   H     0.23176   0.58695   0.81087   0.00000  Uiso   1.00
O986   O     0.21415   0.63169   0.85518   0.00000  Uiso   1.00
O987   O     0.22515   0.53674   0.52222   0.00000  Uiso   1.00
H988   H     0.21615   0.54343   0.99082   0.00000  Uiso   1.00
O989   O     0.18901   0.42975   0.98229   0.00000  Uiso   1.00
H990   H     0.17547   0.42820   0.51149   0.00000  Uiso   1.00
O991   O     0.11042   0.57240   0.96729   0.00000  Uiso   1.00
H992   H     0.10797   0.56888   0.99993   0.00000  Uiso   1.00
O993   O     0.08218   0.48089   0.52578   0.00000  Uiso   1.00
H994   H     0.05838   0.48703   0.54537   0.00000  Uiso   1.00
O995   O     0.23481   0.53037   0.61105   0.00000  Uiso   1.00
H996   H     0.23749   0.51950   0.64234   0.00000  Uiso   1.00
O997   O     0.20135   0.43195   0.89064   0.00000  Uiso   1.00
H998   H     0.21206   0.40957   0.91296   0.00000  Uiso   1.00
O999   O     0.11624   0.56631   0.87477   0.00000  Uiso   1.00
H1000  H     0.09834   0.58696   0.89184   0.00000  Uiso   1.00
O1001  O     0.09313   0.47190   0.62169   0.00000  Uiso   1.00
H1002  H     0.07628   0.44969   0.60427   0.00000  Uiso   1.00
C1003  C     0.03824   0.42116   0.79045   0.00000  Uiso   1.00
H1004  H     0.06975   0.42250   0.80573   0.00000  Uiso   1.00
O1005  O     0.01663   0.38908   0.79988   0.00000  Uiso   1.00
C1006  C     0.29550   0.57948   0.71021   0.00000  Uiso   1.00
H1007  H     0.26355   0.57942   0.69606   0.00000  Uiso   1.00
O1008  O     0.31794   0.61066   0.69997   0.00000  Uiso   1.00
C1009  C     0.29740   0.41689   0.71984   0.00000  Uiso   1.00
H1010  H     0.26745   0.41753   0.70108   0.00000  Uiso   1.00
O1011  O     0.31842   0.38240   0.71847   0.00000  Uiso   1.00
C1012  C     0.03559   0.58357   0.78020   0.00000  Uiso   1.00
H1013  H     0.06648   0.58426   0.79691   0.00000  Uiso   1.00
O1014  O     0.01306   0.61674   0.78392   0.00000  Uiso   1.00
C1015  C     0.42030   0.50025   0.75591   0.00000  Uiso   1.00
C1016  C     0.57972   0.49980   0.74412   0.00000  Uiso   1.00
C1017  C     0.49953   0.50014   0.66415   0.00000  Uiso   1.00
C1018  C     0.49900   0.49997   0.83620   0.00000  Uiso   1.00
C1019  C     0.52797   0.35682   0.77729   0.00000  Uiso   1.00
C1020  C     0.47466   0.64295   0.72005   0.00000  Uiso   1.00
C1021  C     0.47207   0.35756   0.72267   0.00000  Uiso   1.00
C1022  C     0.52525   0.64226   0.78003   0.00000  Uiso   1.00
C1023  C     0.35403   0.45960   0.76289   0.00000  Uiso   1.00
C1024  C     0.64604   0.54061   0.73737   0.00000  Uiso   1.00
C1025  C     0.64698   0.45834   0.74265   0.00000  Uiso   1.00
C1026  C     0.35303   0.54184   0.75758   0.00000  Uiso   1.00
C1027  C     0.52487   0.52064   0.54542   0.00000  Uiso   1.00
C1028  C     0.50520   0.46490   0.95681   0.00000  Uiso   1.00
C1029  C     0.46496   0.53612   0.94938   0.00000  Uiso   1.00
C1030  C     0.45280   0.49144   0.54868   0.00000  Uiso   1.00
C1031  C     0.52984   0.51749   0.59159   0.00000  Uiso   1.00
C1032  C     0.51110   0.46504   0.91074   0.00000  Uiso   1.00
C1033  C     0.46904   0.53462   0.90295   0.00000  Uiso   1.00
C1034  C     0.45796   0.48781   0.59544   0.00000  Uiso   1.00
C1035  C     0.49629   0.50097   0.61624   0.00000  Uiso   1.00
C1036  C     0.49343   0.50009   0.88425   0.00000  Uiso   1.00
C1037  C     0.48679   0.50614   0.52424   0.00000  Uiso   1.00
C1038  C     0.48393   0.50159   0.97601   0.00000  Uiso   1.00
C1039  C     0.62471   0.49933   0.73719   0.00000  Uiso   1.00
C1040  C     0.37534   0.50086   0.76296   0.00000  Uiso   1.00
N1041  N     0.50000   0.61907   0.75000   0.00000  Uiso   1.00
N1042  N     0.50000   0.38093   0.75000   0.00000  Uiso   1.00
O1043  O     0.43892   0.53821   0.74999   0.00000  Uiso   1.00
O1044  O     0.56108   0.46179   0.75001   0.00000  Uiso   1.00
O1045  O     0.56108   0.53821   0.75001   0.00000  Uiso   1.00
O1046  O     0.43892   0.46179   0.75000   0.00000  Uiso   1.00
O1047  O     0.50000   0.53822   0.68453   0.00000  Uiso   1.00
O1048  O     0.50000   0.46178   0.81547   0.00000  Uiso   1.00
O1049  O     0.50000   0.53822   0.81547   0.00000  Uiso   1.00
O1050  O     0.50000   0.46178   0.68453   0.00000  Uiso   1.00
Zn1051 Zn    0.50000   0.55104   0.75000   0.00000  Uiso   1.00
Zn1052 Zn    0.50000   0.44896   0.75000   0.00000  Uiso   1.00
C1053  C     0.56247   0.38032   0.80227   0.00000  Uiso   1.00
H1054  H     0.55876   0.41422   0.81352   0.00000  Uiso   1.00
O1055  O     0.59665   0.36200   0.80966   0.00000  Uiso   1.00
C1056  C     0.45141   0.61892   0.68361   0.00000  Uiso   1.00
H1057  H     0.43499   0.58821   0.68986   0.00000  Uiso   1.00
O1058  O     0.45088   0.63337   0.64530   0.00000  Uiso   1.00
C1059  C     0.43788   0.38192   0.69728   0.00000  Uiso   1.00
H1060  H     0.44261   0.41476   0.68381   0.00000  Uiso   1.00
O1061  O     0.40301   0.36541   0.69182   0.00000  Uiso   1.00
C1062  C     0.54803   0.61765   0.81686   0.00000  Uiso   1.00
H1063  H     0.56509   0.58695   0.81087   0.00000  Uiso   1.00
O1064  O     0.54749   0.63169   0.85518   0.00000  Uiso   1.00
O1065  O     0.55848   0.53674   0.52222   0.00000  Uiso   1.00
H1066  H     0.54949   0.54343   0.99082   0.00000  Uiso   1.00
O1067  O     0.52234   0.42975   0.98229   0.00000  Uiso   1.00
H1068  H     0.50881   0.42820   0.51149   0.00000  Uiso   1.00
O1069  O     0.44375   0.57240   0.96729   0.00000  Uiso   1.00
H1070  H     0.44130   0.56888   0.99993   0.00000  Uiso   1.00
O1071  O     0.41551   0.48089   0.52578   0.00000  Uiso   1.00
H1072  H     0.39171   0.48703   0.54537   0.00000  Uiso   1.00
O1073  O     0.56814   0.53037   0.61105   0.00000  Uiso   1.00
H1074  H     0.57083   0.51950   0.64234   0.00000  Uiso   1.00
O1075  O     0.53469   0.43195   0.89064   0.00000  Uiso   1.00
H1076  H     0.54539   0.40957   0.91296   0.00000  Uiso   1.00
O1077  O     0.44957   0.56631   0.87477   0.00000  Uiso   1.00
H1078  H     0.43167   0.58696   0.89184   0.00000  Uiso   1.00
O1079  O     0.42646   0.47190   0.62169   0.00000  Uiso   1.00
H1080  H     0.40962   0.44969   0.60427   0.00000  Uiso   1.00
C1081  C     0.37158   0.42116   0.79045   0.00000  Uiso   1.00
H1082  H     0.40309   0.42250   0.80573   0.00000  Uiso   1.00
O1083  O     0.34997   0.38908   0.79988   0.00000  Uiso   1.00
C1084  C     0.62883   0.57948   0.71021   0.00000  Uiso   1.00
H1085  H     0.59688   0.57942   0.69606   0.00000  Uiso   1.00
O1086  O     0.65127   0.61066   0.69997   0.00000  Uiso   1.00
C1087  C     0.63074   0.41689   0.71984   0.00000  Uiso   1.00
H1088  H     0.60078   0.41753   0.70108   0.00000  Uiso   1.00
O1089  O     0.65175   0.38240   0.71847   0.00000  Uiso   1.00
C1090  C     0.36892   0.58357   0.78020   0.00000  Uiso   1.00
H1091  H     0.39982   0.58426   0.79691   0.00000  Uiso   1.00
O1092  O     0.34639   0.61674   0.78392   0.00000  Uiso   1.00
C1093  C     0.75363   0.50025   0.75591   0.00000  Uiso   1.00
C1094  C     0.91305   0.49980   0.74412   0.00000  Uiso   1.00
C1095  C     0.83286   0.50014   0.66415   0.00000  Uiso   1.00
C1096  C     0.83234   0.49997   0.83620   0.00000  Uiso   1.00
C1097  C     0.86131   0.35682   0.77729   0.00000  Uiso   1.00
C1098  C     0.80799   0.64295   0.72005   0.00000  Uiso   1.00
C1099  C     0.80541   0.35756   0.72267   0.00000  Uiso   1.00
C1100  C     0.85858   0.64226   0.78003   0.00000  Uiso   1.00
C1101  C     0.68737   0.45960   0.76289   0.00000  Uiso   1.00
C1102  C     0.97937   0.54061   0.73737   0.00000  Uiso   1.00
C1103  C     0.98032   0.45834   0.74265   0.00000  Uiso   1.00
C1104  C     0.68637   0.54184   0.75758   0.00000  Uiso   1.00
C1105  C     0.85820   0.52064   0.54542   0.00000  Uiso   1.00
C1106  C     0.83853   0.46490   0.95681   0.00000  Uiso   1.00
C1107  C     0.79829   0.53612   0.94938   0.00000  Uiso   1.00
C1108  C     0.78614   0.49144   0.54868   0.00000  Uiso   1.00
C1109  C     0.86317   0.51749   0.59159   0.00000  Uiso   1.00
C1110  C     0.84443   0.46504   0.91074   0.00000  Uiso   1.00
C1111  C     0.80237   0.53462   0.90295   0.00000  Uiso   1.00
C1112  C     0.79129   0.48781   0.59544   0.00000  Uiso   1.00
C1113  C     0.82962   0.50097   0.61624   0.00000  Uiso   1.00
C1114  C     0.82677   0.50009   0.88425   0.00000  Uiso   1.00
C1115  C     0.82012   0.50614   0.52424   0.00000  Uiso   1.00
C1116  C     0.81726   0.50159   0.97601   0.00000  Uiso   1.00
C1117  C     0.95805   0.49933   0.73719   0.00000  Uiso   1.00
C1118  C     0.70867   0.50086   0.76296   0.00000  Uiso   1.00
N1119  N     0.83333   0.61907   0.75000   0.00000  Uiso   1.00
N1120  N     0.83333   0.38093   0.75000   0.00000  Uiso   1.00
O1121  O     0.77226   0.53821   0.74999   0.00000  Uiso   1.00
O1122  O     0.89441   0.46179   0.75001   0.00000  Uiso   1.00
O1123  O     0.89441   0.53821   0.75001   0.00000  Uiso   1.00
O1124  O     0.77226   0.46179   0.75000   0.00000  Uiso   1.00
O1125  O     0.83333   0.53822   0.68453   0.00000  Uiso   1.00
O1126  O     0.83334   0.46178   0.81547   0.00000  Uiso   1.00
O1127  O     0.83334   0.53822   0.81547   0.00000  Uiso   1.00
O1128  O     0.83333   0.46178   0.68453   0.00000  Uiso   1.00
Zn1129 Zn    0.83333   0.55104   0.75000   0.00000  Uiso   1.00
Zn1130 Zn    0.83333   0.44896   0.75000   0.00000  Uiso   1.00
C1131  C     0.89581   0.38032   0.80227   0.00000  Uiso   1.00
H1132  H     0.89210   0.41422   0.81352   0.00000  Uiso   1.00
O1133  O     0.92999   0.36200   0.80966   0.00000  Uiso   1.00
C1134  C     0.78474   0.61892   0.68361   0.00000  Uiso   1.00
H1135  H     0.76833   0.58821   0.68986   0.00000  Uiso   1.00
O1136  O     0.78421   0.63337   0.64530   0.00000  Uiso   1.00
C1137  C     0.77122   0.38192   0.69728   0.00000  Uiso   1.00
H1138  H     0.77594   0.41476   0.68381   0.00000  Uiso   1.00
O1139  O     0.73634   0.36541   0.69182   0.00000  Uiso   1.00
C1140  C     0.88136   0.61765   0.81686   0.00000  Uiso   1.00
H1141  H     0.89842   0.58695   0.81087   0.00000  Uiso   1.00
O1142  O     0.88082   0.63169   0.85518   0.00000  Uiso   1.00
O1143  O     0.89181   0.53674   0.52222   0.00000  Uiso   1.00
H1144  H     0.88282   0.54343   0.99082   0.00000  Uiso   1.00
O1145  O     0.85567   0.42975   0.98229   0.00000  Uiso   1.00
H1146  H     0.84214   0.42820   0.51149   0.00000  Uiso   1.00
O1147  O     0.77709   0.57240   0.96729   0.00000  Uiso   1.00
H1148  H     0.77464   0.56888   0.99993   0.00000  Uiso   1.00
O1149  O     0.74884   0.48089   0.52578   0.00000  Uiso   1.00
H1150  H     0.72505   0.48703   0.54537   0.00000  Uiso   1.00
O1151  O     0.90147   0.53037   0.61105   0.00000  Uiso   1.00
H1152  H     0.90416   0.51950   0.64234   0.00000  Uiso   1.00
O1153  O     0.86802   0.43195   0.89064   0.00000  Uiso   1.00
H1154  H     0.87873   0.40957   0.91296   0.00000  Uiso   1.00
O1155  O     0.78291   0.56631   0.87477   0.00000  Uiso   1.00
H1156  H     0.76501   0.58696   0.89184   0.00000  Uiso   1.00
O1157  O     0.75979   0.47190   0.62169   0.00000  Uiso   1.00
H1158  H     0.74295   0.44969   0.60427   0.00000  Uiso   1.00
C1159  C     0.70491   0.42116   0.79045   0.00000  Uiso   1.00
H1160  H     0.73642   0.42250   0.80573   0.00000  Uiso   1.00
O1161  O     0.68330   0.38908   0.79988   0.00000  Uiso   1.00
C1162  C     0.96216   0.57948   0.71021   0.00000  Uiso   1.00
H1163  H     0.93022   0.57942   0.69606   0.00000  Uiso   1.00
O1164  O     0.98461   0.61066   0.69997   0.00000  Uiso   1.00
C1165  C     0.96407   0.41689   0.71984   0.00000  Uiso   1.00
H1166  H     0.93412   0.41753   0.70108   0.00000  Uiso   1.00
O1167  O     0.98508   0.38240   0.71847   0.00000  Uiso   1.00
C1168  C     0.70225   0.58357   0.78020   0.00000  Uiso   1.00
H1169  H     0.73315   0.58426   0.79691   0.00000  Uiso   1.00
O1170  O     0.67972   0.61674   0.78392   0.00000  Uiso   1.00
C1171  C     0.08697   0.83359   0.75591   0.00000  Uiso   1.00
C1172  C     0.24638   0.83313   0.74412   0.00000  Uiso   1.00
C1173  C     0.16620   0.83348   0.66415   0.00000  Uiso   1.00
C1174  C     0.16567   0.83331   0.83620   0.00000  Uiso   1.00
C1175  C     0.19464   0.69015   0.77729   0.00000  Uiso   1.00
C1176  C     0.14133   0.97628   0.72005   0.00000  Uiso   1.00
C1177  C     0.13874   0.69089   0.72267   0.00000  Uiso   1.00
C1178  C     0.19191   0.97559   0.78003   0.00000  Uiso   1.00
C1179  C     0.02070   0.79293   0.76289   0.00000  Uiso   1.00
C1180  C     0.31271   0.87394   0.73737   0.00000  Uiso   1.00
C1181  C     0.31365   0.79168   0.74265   0.00000  Uiso   1.00
C1182  C     0.01970   0.87517   0.75758   0.00000  Uiso   1.00
C1183  C     0.19154   0.85397   0.54542   0.00000  Uiso   1.00
C1184  C     0.17186   0.79824   0.95681   0.00000  Uiso   1.00
C1185  C     0.13162   0.86946   0.94938   0.00000  Uiso   1.00
C1186  C     0.11947   0.82477   0.54868   0.00000  Uiso   1.00
C1187  C     0.19650   0.85082   0.59159   0.00000  Uiso   1.00
C1188  C     0.17777   0.79837   0.91074   0.00000  Uiso   1.00
C1189  C     0.13570   0.86795   0.90295   0.00000  Uiso   1.00
C1190  C     0.12462   0.82114   0.59544   0.00000  Uiso   1.00
C1191  C     0.16295   0.83431   0.61624   0.00000  Uiso   1.00
C1192  C     0.16010   0.83342   0.88425   0.00000  Uiso   1.00
C1193  C     0.15346   0.83948   0.52424   0.00000  Uiso   1.00
C1194  C     0.15060   0.83492   0.97601   0.00000  Uiso   1.00
C1195  C     0.29138   0.83266   0.73719   0.00000  Uiso   1.00
C1196  C     0.04200   0.83420   0.76296   0.00000  Uiso   1.00
N1197  N     0.16667   0.95240   0.75000   0.00000  Uiso   1.00
N1198  N     0.16667   0.71427   0.75000   0.00000  Uiso   1.00
O1199  O     0.10559   0.87154   0.74999   0.00000  Uiso   1.00
O1200  O     0.22774   0.79513   0.75001   0.00000  Uiso   1.00
O1201  O     0.22774   0.87154   0.75001   0.00000  Uiso   1.00
O1202  O     0.10559   0.79513   0.75000   0.00000  Uiso   1.00
O1203  O     0.16666   0.87155   0.68453   0.00000  Uiso   1.00
O1204  O     0.16667   0.79511   0.81547   0.00000  Uiso   1.00
O1205  O     0.16667   0.87155   0.81547   0.00000  Uiso   1.00
O1206  O     0.16666   0.79511   0.68453   0.00000  Uiso   1.00
Zn1207 Zn    0.16667   0.88437   0.75000   0.00000  Uiso   1.00
Zn1208 Zn    0.16667   0.78229   0.75000   0.00000  Uiso   1.00
C1209  C     0.22914   0.71365   0.80227   0.00000  Uiso   1.00
H1210  H     0.22543   0.74755   0.81352   0.00000  Uiso   1.00
O1211  O     0.26332   0.69534   0.80966   0.00000  Uiso   1.00
C1212  C     0.11808   0.95226   0.68361   0.00000  Uiso   1.00
H1213  H     0.10166   0.92155   0.68986   0.00000  Uiso   1.00
O1214  O     0.11755   0.96671   0.64530   0.00000  Uiso   1.00
C1215  C     0.10455   0.71525   0.69728   0.00000  Uiso   1.00
H1216  H     0.10928   0.74810   0.68381   0.00000  Uiso   1.00
O1217  O     0.06967   0.69874   0.69182   0.00000  Uiso   1.00
C1218  C     0.21470   0.95099   0.81686   0.00000  Uiso   1.00
H1219  H     0.23176   0.92028   0.81087   0.00000  Uiso   1.00
O1220  O     0.21415   0.96502   0.85518   0.00000  Uiso   1.00
O1221  O     0.22515   0.87007   0.52222   0.00000  Uiso   1.00
H1222  H     0.21615   0.87677   0.99082   0.00000  Uiso   1.00
O1223  O     0.18901   0.76308   0.98229   0.00000  Uiso   1.00
H1224  H     0.17547   0.76154   0.51149   0.00000  Uiso   1.00
O1225  O     0.11042   0.90573   0.96729   0.00000  Uiso   1.00
H1226  H     0.10797   0.90222   0.99993   0.00000  Uiso   1.00
O1227  O     0.08218   0.81422   0.52578   0.00000  Uiso   1.00
H1228  H     0.05838   0.82036   0.54537   0.00000  Uiso   1.00
O1229  O     0.23481   0.86370   0.61105   0.00000  Uiso   1.00
H1230  H     0.23749   0.85283   0.64234   0.00000  Uiso   1.00
O1231  O     0.20135   0.76529   0.89064   0.00000  Uiso   1.00
H1232  H     0.21206   0.74290   0.91296   0.00000  Uiso   1.00
O1233  O     0.11624   0.89964   0.87477   0.00000  Uiso   1.00
H1234  H     0.09834   0.92029   0.89184   0.00000  Uiso   1.00
O1235  O     0.09313   0.80523   0.62169   0.00000  Uiso   1.00
H1236  H     0.07628   0.78302   0.60427   0.00000  Uiso   1.00
C1237  C     0.03824   0.75450   0.79045   0.00000  Uiso   1.00
H1238  H     0.06975   0.75583   0.80573   0.00000  Uiso   1.00
O1239  O     0.01663   0.72241   0.79988   0.00000  Uiso   1.00
C1240  C     0.29550   0.91281   0.71021   0.00000  Uiso   1.00
H1241  H     0.26355   0.91275   0.69606   0.00000  Uiso   1.00
O1242  O     0.31794   0.94400   0.69997   0.00000  Uiso   1.00
C1243  C     0.29740   0.75022   0.71984   0.00000  Uiso   1.00
H1244  H     0.26745   0.75086   0.70108   0.00000  Uiso   1.00
O1245  O     0.31842   0.71573   0.71847   0.00000  Uiso   1.00
C1246  C     0.03559   0.91690   0.78020   0.00000  Uiso   1.00
H1247  H     0.06648   0.91759   0.79691   0.00000  Uiso   1.00
O1248  O     0.01306   0.95008   0.78392   0.00000  Uiso   1.00
C1249  C     0.42030   0.83359   0.75591   0.00000  Uiso   1.00
C1250  C     0.57972   0.83313   0.74412   0.00000  Uiso   1.00
C1251  C     0.49953   0.83348   0.66415   0.00000  Uiso   1.00
C1252  C     0.49900   0.83331   0.83620   0.00000  Uiso   1.00
C1253  C     0.52797   0.69015   0.77729   0.00000  Uiso   1.00
C1254  C     0.47466   0.97628   0.72005   0.00000  Uiso   1.00
C1255  C     0.47207   0.69089   0.72267   0.00000  Uiso   1.00
C1256  C     0.52525   0.97559   0.78003   0.00000  Uiso   1.00
C1257  C     0.35403   0.79293   0.76289   0.00000  Uiso   1.00
C1258  C     0.64604   0.87394   0.73737   0.00000  Uiso   1.00
C1259  C     0.64698   0.79168   0.74265   0.00000  Uiso   1.00
C1260  C     0.35303   0.87517   0.75758   0.00000  Uiso   1.00
C1261  C     0.52487   0.85397   0.54542   0.00000  Uiso   1.00
C1262  C     0.50520   0.79824   0.95681   0.00000  Uiso   1.00
C1263  C     0.46496   0.86946   0.94938   0.00000  Uiso   1.00
C1264  C     0.45280   0.82477   0.54868   0.00000  Uiso   1.00
C1265  C     0.52984   0.85082   0.59159   0.00000  Uiso   1.00
C1266  C     0.51110   0.79837   0.91074   0.00000  Uiso   1.00
C1267  C     0.46904   0.86795   0.90295   0.00000  Uiso   1.00
C1268  C     0.45796   0.82114   0.59544   0.00000  Uiso   1.00
C1269  C     0.49629   0.83431   0.61624   0.00000  Uiso   1.00
C1270  C     0.49343   0.83342   0.88425   0.00000  Uiso   1.00
C1271  C     0.48679   0.83948   0.52424   0.00000  Uiso   1.00
C1272  C     0.48393   0.83492   0.97601   0.00000  Uiso   1.00
C1273  C     0.62471   0.83266   0.73719   0.00000  Uiso   1.00
C1274  C     0.37534   0.83420   0.76296   0.00000  Uiso   1.00
N1275  N     0.50000   0.95240   0.75000   0.00000  Uiso   1.00
N1276  N     0.50000   0.71427   0.75000   0.00000  Uiso   1.00
O1277  O     0.43892   0.87154   0.74999   0.00000  Uiso   1.00
O1278  O     0.56108   0.79513   0.75001   0.00000  Uiso   1.00
O1279  O     0.56108   0.87154   0.75001   0.00000  Uiso   1.00
O1280  O     0.43892   0.79513   0.75000   0.00000  Uiso   1.00
O1281  O     0.50000   0.87155   0.68453   0.00000  Uiso   1.00
O1282  O     0.50000   0.79511   0.81547   0.00000  Uiso   1.00
O1283  O     0.50000   0.87155   0.81547   0.00000  Uiso   1.00
O1284  O     0.50000   0.79511   0.68453   0.00000  Uiso   1.00
Zn1285 Zn    0.50000   0.88437   0.75000   0.00000  Uiso   1.00
Zn1286 Zn    0.50000   0.78229   0.75000   0.00000  Uiso   1.00
C1287  C     0.56247   0.71365   0.80227   0.00000  Uiso   1.00
H1288  H     0.55876   0.74755   0.81352   0.00000  Uiso   1.00
O1289  O     0.59665   0.69534   0.80966   0.00000  Uiso   1.00
C1290  C     0.45141   0.95226   0.68361   0.00000  Uiso   1.00
H1291  H     0.43499   0.92155   0.68986   0.00000  Uiso   1.00
O1292  O     0.45088   0.96671   0.64530   0.00000  Uiso   1.00
C1293  C     0.43788   0.71525   0.69728   0.00000  Uiso   1.00
H1294  H     0.44261   0.74810   0.68381   0.00000  Uiso   1.00
O1295  O     0.40301   0.69874   0.69182   0.00000  Uiso   1.00
C1296  C     0.54803   0.95099   0.81686   0.00000  Uiso   1.00
H1297  H     0.56509   0.92028   0.81087   0.00000  Uiso   1.00
O1298  O     0.54749   0.96502   0.85518   0.00000  Uiso   1.00
O1299  O     0.55848   0.87007   0.52222   0.00000  Uiso   1.00
H1300  H     0.54949   0.87677   0.99082   0.00000  Uiso   1.00
O1301  O     0.52234   0.76308   0.98229   0.00000  Uiso   1.00
H1302  H     0.50881   0.76154   0.51149   0.00000  Uiso   1.00
O1303  O     0.44375   0.90573   0.96729   0.00000  Uiso   1.00
H1304  H     0.44130   0.90222   0.99993   0.00000  Uiso   1.00
O1305  O     0.41551   0.81422   0.52578   0.00000  Uiso   1.00
H1306  H     0.39171   0.82036   0.54537   0.00000  Uiso   1.00
O1307  O     0.56814   0.86370   0.61105   0.00000  Uiso   1.00
H1308  H     0.57083   0.85283   0.64234   0.00000  Uiso   1.00
O1309  O     0.53469   0.76529   0.89064   0.00000  Uiso   1.00
H1310  H     0.54539   0.74290   0.91296   0.00000  Uiso   1.00
O1311  O     0.44957   0.89964   0.87477   0.00000  Uiso   1.00
H1312  H     0.43167   0.92029   0.89184   0.00000  Uiso   1.00
O1313  O     0.42646   0.80523   0.62169   0.00000  Uiso   1.00
H1314  H     0.40962   0.78302   0.60427   0.00000  Uiso   1.00
C1315  C     0.37158   0.75450   0.79045   0.00000  Uiso   1.00
H1316  H     0.40309   0.75583   0.80573   0.00000  Uiso   1.00
O1317  O     0.34997   0.72241   0.79988   0.00000  Uiso   1.00
C1318  C     0.62883   0.91281   0.71021   0.00000  Uiso   1.00
H1319  H     0.59688   0.91275   0.69606   0.00000  Uiso   1.00
O1320  O     0.65127   0.94400   0.69997   0.00000  Uiso   1.00
C1321  C     0.63074   0.75022   0.71984   0.00000  Uiso   1.00
H1322  H     0.60078   0.75086   0.70108   0.00000  Uiso   1.00
O1323  O     0.65175   0.71573   0.71847   0.00000  Uiso   1.00
C1324  C     0.36892   0.91690   0.78020   0.00000  Uiso   1.00
H1325  H     0.39982   0.91759   0.79691   0.00000  Uiso   1.00
O1326  O     0.34639   0.95008   0.78392   0.00000  Uiso   1.00
C1327  C     0.75363   0.83359   0.75591   0.00000  Uiso   1.00
C1328  C     0.91305   0.83313   0.74412   0.00000  Uiso   1.00
C1329  C     0.83286   0.83348   0.66415   0.00000  Uiso   1.00
C1330  C     0.83234   0.83331   0.83620   0.00000  Uiso   1.00
C1331  C     0.86131   0.69015   0.77729   0.00000  Uiso   1.00
C1332  C     0.80799   0.97628   0.72005   0.00000  Uiso   1.00
C1333  C     0.80541   0.69089   0.72267   0.00000  Uiso   1.00
C1334  C     0.85858   0.97559   0.78003   0.00000  Uiso   1.00
C1335  C     0.68737   0.79293   0.76289   0.00000  Uiso   1.00
C1336  C     0.97937   0.87394   0.73737   0.00000  Uiso   1.00
C1337  C     0.98032   0.79168   0.74265   0.00000  Uiso   1.00
C1338  C     0.68637   0.87517   0.75758   0.00000  Uiso   1.00
C1339  C     0.85820   0.85397   0.54542   0.00000  Uiso   1.00
C1340  C     0.83853   0.79824   0.95681   0.00000  Uiso   1.00
C1341  C     0.79829   0.86946   0.94938   0.00000  Uiso   1.00
C1342  C     0.78614   0.82477   0.54868   0.00000  Uiso   1.00
C1343  C     0.86317   0.85082   0.59159   0.00000  Uiso   1.00
C1344  C     0.84443   0.79837   0.91074   0.00000  Uiso   1.00
C1345  C     0.80237   0.86795   0.90295   0.00000  Uiso   1.00
C1346  C     0.79129   0.82114   0.59544   0.00000  Uiso   1.00
C1347  C     0.82962   0.83431   0.61624   0.00000  Uiso   1.00
C1348  C     0.82677   0.83342   0.88425   0.00000  Uiso   1.00
C1349  C     0.82012   0.83948   0.52424   0.00000  Uiso   1.00
C1350  C     0.81726   0.83492   0.97601   0.00000  Uiso   1.00
C1351  C     0.95805   0.83266   0.73719   0.00000  Uiso   1.00
C1352  C     0.70867   0.83420   0.76296   0.00000  Uiso   1.00
N1353  N     0.83333   0.95240   0.75000   0.00000  Uiso   1.00
N1354  N     0.83333   0.71427   0.75000   0.00000  Uiso   1.00
O1355  O     0.77226   0.87154   0.74999   0.00000  Uiso   1.00
O1356  O     0.89441   0.79513   0.75001   0.00000  Uiso   1.00
O1357  O     0.89441   0.87154   0.75001   0.00000  Uiso   1.00
O1358  O     0.77226   0.79513   0.75000   0.00000  Uiso   1.00
O1359  O     0.83333   0.87155   0.68453   0.00000  Uiso   1.00
O1360  O     0.83334   0.79511   0.81547   0.00000  Uiso   1.00
O1361  O     0.83334   0.87155   0.81547   0.00000  Uiso   1.00
O1362  O     0.83333   0.79511   0.68453   0.00000  Uiso   1.00
Zn1363 Zn    0.83333   0.88437   0.75000   0.00000  Uiso   1.00
Zn1364 Zn    0.83333   0.78229   0.75000   0.00000  Uiso   1.00
C1365  C     0.89581   0.71365   0.80227   0.00000  Uiso   1.00
H1366  H     0.89210   0.74755   0.81352   0.00000  Uiso   1.00
O1367  O     0.92999   0.69534   0.80966   0.00000  Uiso   1.00
C1368  C     0.78474   0.95226   0.68361   0.00000  Uiso   1.00
H1369  H     0.76833   0.92155   0.68986   0.00000  Uiso   1.00
O1370  O     0.78421   0.96671   0.64530   0.00000  Uiso   1.00
C1371  C     0.77122   0.71525   0.69728   0.00000  Uiso   1.00
H1372  H     0.77594   0.74810   0.68381   0.00000  Uiso   1.00
O1373  O     0.73634   0.69874   0.69182   0.00000  Uiso   1.00
C1374  C     0.88136   0.95099   0.81686   0.00000  Uiso   1.00
H1375  H     0.89842   0.92028   0.81087   0.00000  Uiso   1.00
O1376  O     0.88082   0.96502   0.85518   0.00000  Uiso   1.00
O1377  O     0.89181   0.87007   0.52222   0.00000  Uiso   1.00
H1378  H     0.88282   0.87677   0.99082   0.00000  Uiso   1.00
O1379  O     0.85567   0.76308   0.98229   0.00000  Uiso   1.00
H1380  H     0.84214   0.76154   0.51149   0.00000  Uiso   1.00
O1381  O     0.77709   0.90573   0.96729   0.00000  Uiso   1.00
H1382  H     0.77464   0.90222   0.99993   0.00000  Uiso   1.00
O1383  O     0.74884   0.81422   0.52578   0.00000  Uiso   1.00
H1384  H     0.72505   0.82036   0.54537   0.00000  Uiso   1.00
O1385  O     0.90147   0.86370   0.61105   0.00000  Uiso   1.00
H1386  H     0.90416   0.85283   0.64234   0.00000  Uiso   1.00
O1387  O     0.86802   0.76529   0.89064   0.00000  Uiso   1.00
H1388  H     0.87873   0.74290   0.91296   0.00000  Uiso   1.00
O1389  O     0.78291   0.89964   0.87477   0.00000  Uiso   1.00
H1390  H     0.76501   0.92029   0.89184   0.00000  Uiso   1.00
O1391  O     0.75979   0.80523   0.62169   0.00000  Uiso   1.00
H1392  H     0.74295   0.78302   0.60427   0.00000  Uiso   1.00
C1393  C     0.70491   0.75450   0.79045   0.00000  Uiso   1.00
H1394  H     0.73642   0.75583   0.80573   0.00000  Uiso   1.00
O1395  O     0.68330   0.72241   0.79988   0.00000  Uiso   1.00
C1396  C     0.96216   0.91281   0.71021   0.00000  Uiso   1.00
H1397  H     0.93022   0.91275   0.69606   0.00000  Uiso   1.00
O1398  O     0.98461   0.94400   0.69997   0.00000  Uiso   1.00
C1399  C     0.96407   0.75022   0.71984   0.00000  Uiso   1.00
H1400  H     0.93412   0.75086   0.70108   0.00000  Uiso   1.00
O1401  O     0.98508   0.71573   0.71847   0.00000  Uiso   1.00
C1402  C     0.70225   0.91690   0.78020   0.00000  Uiso   1.00
H1403  H     0.73315   0.91759   0.79691   0.00000  Uiso   1.00
O1404  O     0.67972   0.95008   0.78392   0.00000  Uiso   1.00
loop_
_geom_bond_atom_site_label_1
_geom_bond_atom_site_label_2
_geom_bond_distance
_geom_bond_site_symmetry_2
_ccdc_geom_bond_type
C1     O32     1.298   .     A
C1     O29     1.295   .     A
C1     C26     1.451   .     S
C2     O31     1.297   .     A
C2     O30     1.296   .     A
C2     C25     1.451   .     S
C3     O33     1.288   .     A
C3     C21     1.432   .     S
C3     O36     1.292   .     A
C4     O35     1.295   .     A
C4     O34     1.297   .     A
C4     C22     1.454   .     S
C5     N28     1.376   .     A
C5     C39     1.483   .     S
C5     C476    1.431   1_545 S
C6     N27     1.371   .     A
C6     C42     1.481   .     S
C6     C241    1.430   .     S
C7     C45     1.481   .     S
C7     N28     1.376   .     A
C7     C474    1.430   1_545 S
C8     C48     1.480   .     S
C8     N27     1.371   .     A
C8     C239    1.431   .     S
C9     C67     1.497   .     S
C9     C26     1.408   .     A
C9     C167    1.396   1_455 S
C10    C70     1.497   .     S
C10    C25     1.408   .     A
C10    C90     1.394   .     S
C11    C73     1.497   .     S
C11    C25     1.409   .     A
C11    C87     1.396   .     S
C12    C26     1.409   .     A
C12    C76     1.498   .     S
C12    C166    1.394   1_455 S
C13    C23     1.413   .     A
C13    O51     1.384   .     S
C13    C17     1.385   .     A
C14    C18     1.397   .     A
C14    C24     1.413   .     A
C14    O53     1.386   .     S
C15    C19     1.400   .     A
C15    O55     1.386   .     S
C15    C24     1.412   .     A
C16    C20     1.404   .     A
C16    C23     1.400   .     A
C16    O57     1.382   .     S
C17    C21     1.411   .     A
C17    O59     1.384   .     S
C18    C22     1.406   .     A
C18    O61     1.384   .     S
C19    O63     1.386   .     S
C19    C22     1.410   .     A
C20    O65     1.382   .     S
C20    C21     1.403   .     A
C23    C726    1.448   1_554 S
C24    C725    1.448   .     S
N27    Zn37    2.024   .     S
N28    Zn38    2.024   .     S
O29    Zn37    1.979   .     S
O30    Zn38    1.979   .     S
O31    Zn37    1.972   .     S
O32    Zn38    1.972   .     S
O33    Zn37    1.995   .     S
O34    Zn38    1.995   .     S
O35    Zn37    1.992   .     S
O36    Zn38    1.992   .     S
C39    O41     1.221   .     D
C39    H40     1.071   .     S
C42    O44     1.221   .     D
C42    H43     1.076   .     S
C45    O47     1.221   .     D
C45    H46     1.070   .     S
C48    O50     1.221   .     D
C48    H49     1.076   .     S
O51    H754    0.989   1_554 S
H52    O753    0.989   .     S
O53    H756    0.989   .     S
H54    O755    0.989   1_554 S
O55    H56     0.987   .     S
O57    H58     0.990   .     S
O59    H60     0.989   .     S
O61    H62     0.989   .     S
O63    H64     0.989   .     S
O65    H66     0.990   .     S
C67    H68     1.084   .     S
C67    O69     1.220   .     D
C70    H71     1.083   .     S
C70    O72     1.221   .     D
C73    H74     1.084   .     S
C73    O75     1.220   .     D
C76    O78     1.221   .     D
C76    H77     1.083   .     S
C79    O110    1.298   .     A
C79    O107    1.295   .     A
C79    C104    1.451   .     S
C80    O109    1.297   .     A
C80    O108    1.296   .     A
C80    C103    1.451   .     S
C81    O111    1.288   .     A
C81    C99     1.432   .     S
C81    O114    1.292   .     A
C82    O113    1.295   .     A
C82    O112    1.297   .     A
C82    C100    1.454   .     S
C83    N106    1.376   .     A
C83    C117    1.483   .     S
C83    C554    1.431   1_545 S
C84    N105    1.371   .     A
C84    C120    1.481   .     S
C84    C319    1.430   .     S
C85    C123    1.481   .     S
C85    N106    1.376   .     A
C85    C552    1.430   1_545 S
C86    C126    1.480   .     S
C86    N105    1.371   .     A
C86    C317    1.431   .     S
C87    C145    1.497   .     S
C87    C104    1.408   .     A
C88    C148    1.497   .     S
C88    C103    1.408   .     A
C88    C168    1.394   .     S
C89    C151    1.497   .     S
C89    C103    1.409   .     A
C89    C165    1.396   .     S
C90    C104    1.409   .     A
C90    C154    1.498   .     S
C91    C101    1.413   .     A
C91    O129    1.384   .     S
C91    C95     1.385   .     A
C92    C96     1.397   .     A
C92    C102    1.413   .     A
C92    O131    1.386   .     S
C93    C97     1.400   .     A
C93    O133    1.386   .     S
C93    C102    1.412   .     A
C94    C98     1.404   .     A
C94    C101    1.400   .     A
C94    O135    1.382   .     S
C95    C99     1.411   .     A
C95    O137    1.384   .     S
C96    C100    1.406   .     A
C96    O139    1.384   .     S
C97    O141    1.386   .     S
C97    C100    1.410   .     A
C98    O143    1.382   .     S
C98    C99     1.403   .     A
C101   C804    1.448   1_554 S
C102   C803    1.448   .     S
N105   Zn115   2.024   .     S
N106   Zn116   2.024   .     S
O107   Zn115   1.979   .     S
O108   Zn116   1.979   .     S
O109   Zn115   1.972   .     S
O110   Zn116   1.972   .     S
O111   Zn115   1.995   .     S
O112   Zn116   1.995   .     S
O113   Zn115   1.992   .     S
O114   Zn116   1.992   .     S
C117   O119    1.221   .     D
C117   H118    1.071   .     S
C120   O122    1.221   .     D
C120   H121    1.076   .     S
C123   O125    1.221   .     D
C123   H124    1.070   .     S
C126   O128    1.221   .     D
C126   H127    1.076   .     S
O129   H832    0.989   1_554 S
H130   O831    0.989   .     S
O131   H834    0.989   .     S
H132   O833    0.989   1_554 S
O133   H134    0.987   .     S
O135   H136    0.990   .     S
O137   H138    0.989   .     S
O139   H140    0.989   .     S
O141   H142    0.989   .     S
O143   H144    0.990   .     S
C145   H146    1.084   .     S
C145   O147    1.220   .     D
C148   H149    1.083   .     S
C148   O150    1.221   .     D
C151   H152    1.084   .     S
C151   O153    1.220   .     D
C154   O156    1.221   .     D
C154   H155    1.083   .     S
C157   O188    1.298   .     A
C157   O185    1.295   .     A
C157   C182    1.451   .     S
C158   O187    1.297   .     A
C158   O186    1.296   .     A
C158   C181    1.451   .     S
C159   O189    1.288   .     A
C159   C177    1.432   .     S
C159   O192    1.292   .     A
C160   O191    1.295   .     A
C160   O190    1.297   .     A
C160   C178    1.454   .     S
C161   N184    1.376   .     A
C161   C195    1.483   .     S
C161   C632    1.431   1_545 S
C162   N183    1.371   .     A
C162   C198    1.481   .     S
C162   C397    1.430   .     S
C163   C201    1.481   .     S
C163   N184    1.376   .     A
C163   C630    1.430   1_545 S
C164   C204    1.480   .     S
C164   N183    1.371   .     A
C164   C395    1.431   .     S
C165   C223    1.497   .     S
C165   C182    1.408   .     A
C166   C226    1.497   .     S
C166   C181    1.408   .     A
C166   C12     1.394   1_655 S
C167   C229    1.497   .     S
C167   C181    1.409   .     A
C167   C9      1.396   1_655 S
C168   C182    1.409   .     A
C168   C232    1.498   .     S
C169   C179    1.413   .     A
C169   O207    1.384   .     S
C169   C173    1.385   .     A
C170   C174    1.397   .     A
C170   C180    1.413   .     A
C170   O209    1.386   .     S
C171   C175    1.400   .     A
C171   O211    1.386   .     S
C171   C180    1.412   .     A
C172   C176    1.404   .     A
C172   C179    1.400   .     A
C172   O213    1.382   .     S
C173   C177    1.411   .     A
C173   O215    1.384   .     S
C174   C178    1.406   .     A
C174   O217    1.384   .     S
C175   O219    1.386   .     S
C175   C178    1.410   .     A
C176   O221    1.382   .     S
C176   C177    1.403   .     A
C179   C882    1.448   1_554 S
C180   C881    1.448   .     S
N183   Zn193   2.024   .     S
N184   Zn194   2.024   .     S
O185   Zn193   1.979   .     S
O186   Zn194   1.979   .     S
O187   Zn193   1.972   .     S
O188   Zn194   1.972   .     S
O189   Zn193   1.995   .     S
O190   Zn194   1.995   .     S
O191   Zn193   1.992   .     S
O192   Zn194   1.992   .     S
C195   O197    1.221   .     D
C195   H196    1.071   .     S
C198   O200    1.221   .     D
C198   H199    1.076   .     S
C201   O203    1.221   .     D
C201   H202    1.070   .     S
C204   O206    1.221   .     D
C204   H205    1.076   .     S
O207   H910    0.989   1_554 S
H208   O909    0.989   .     S
O209   H912    0.989   .     S
H210   O911    0.989   1_554 S
O211   H212    0.987   .     S
O213   H214    0.990   .     S
O215   H216    0.989   .     S
O217   H218    0.989   .     S
O219   H220    0.989   .     S
O221   H222    0.990   .     S
C223   H224    1.084   .     S
C223   O225    1.220   .     D
C226   H227    1.083   .     S
C226   O228    1.221   .     D
C229   H230    1.084   .     S
C229   O231    1.220   .     D
C232   O234    1.221   .     D
C232   H233    1.083   .     S
C235   O266    1.298   .     A
C235   O263    1.295   .     A
C235   C260    1.451   .     S
C236   O265    1.297   .     A
C236   O264    1.296   .     A
C236   C259    1.451   .     S
C237   O267    1.288   .     A
C237   C255    1.432   .     S
C237   O270    1.292   .     A
C238   O269    1.295   .     A
C238   O268    1.297   .     A
C238   C256    1.454   .     S
C239   N262    1.376   .     A
C239   C273    1.483   .     S
C240   N261    1.371   .     A
C240   C276    1.481   .     S
C240   C475    1.430   .     S
C241   C279    1.481   .     S
C241   N262    1.376   .     A
C242   C282    1.480   .     S
C242   N261    1.371   .     A
C242   C473    1.431   .     S
C243   C301    1.497   .     S
C243   C260    1.408   .     A
C243   C401    1.396   1_455 S
C244   C304    1.497   .     S
C244   C259    1.408   .     A
C244   C324    1.394   .     S
C245   C307    1.497   .     S
C245   C259    1.409   .     A
C245   C321    1.396   .     S
C246   C260    1.409   .     A
C246   C310    1.498   .     S
C246   C400    1.394   1_455 S
C247   C257    1.413   .     A
C247   O285    1.384   .     S
C247   C251    1.385   .     A
C248   C252    1.397   .     A
C248   C258    1.413   .     A
C248   O287    1.386   .     S
C249   C253    1.400   .     A
C249   O289    1.386   .     S
C249   C258    1.412   .     A
C250   C254    1.404   .     A
C250   C257    1.400   .     A
C250   O291    1.382   .     S
C251   C255    1.411   .     A
C251   O293    1.384   .     S
C252   C256    1.406   .     A
C252   O295    1.384   .     S
C253   O297    1.386   .     S
C253   C256    1.410   .     A
C254   O299    1.382   .     S
C254   C255    1.403   .     A
C257   C960    1.448   1_554 S
C258   C959    1.448   .     S
N261   Zn271   2.024   .     S
N262   Zn272   2.024   .     S
O263   Zn271   1.979   .     S
O264   Zn272   1.979   .     S
O265   Zn271   1.972   .     S
O266   Zn272   1.972   .     S
O267   Zn271   1.995   .     S
O268   Zn272   1.995   .     S
O269   Zn271   1.992   .     S
O270   Zn272   1.992   .     S
C273   O275    1.221   .     D
C273   H274    1.071   .     S
C276   O278    1.221   .     D
C276   H277    1.076   .     S
C279   O281    1.221   .     D
C279   H280    1.070   .     S
C282   O284    1.221   .     D
C282   H283    1.076   .     S
O285   H988    0.989   1_554 S
H286   O987    0.989   .     S
O287   H990    0.989   .     S
H288   O989    0.989   1_554 S
O289   H290    0.987   .     S
O291   H292    0.990   .     S
O293   H294    0.989   .     S
O295   H296    0.989   .     S
O297   H298    0.989   .     S
O299   H300    0.990   .     S
C301   H302    1.084   .     S
C301   O303    1.220   .     D
C304   H305    1.083   .     S
C304   O306    1.221   .     D
C307   H308    1.084   .     S
C307   O309    1.220   .     D
C310   O312    1.221   .     D
C310   H311    1.083   .     S
C313   O344    1.298   .     A
C313   O341    1.295   .     A
C313   C338    1.451   .     S
C314   O343    1.297   .     A
C314   O342    1.296   .     A
C314   C337    1.451   .     S
C315   O345    1.288   .     A
C315   C333    1.432   .     S
C315   O348    1.292   .     A
C316   O347    1.295   .     A
C316   O346    1.297   .     A
C316   C334    1.454   .     S
C317   N340    1.376   .     A
C317   C351    1.483   .     S
C318   N339    1.371   .     A
C318   C354    1.481   .     S
C318   C553    1.430   .     S
C319   C357    1.481   .     S
C319   N340    1.376   .     A
C320   C360    1.480   .     S
C320   N339    1.371   .     A
C320   C551    1.431   .     S
C321   C379    1.497   .     S
C321   C338    1.408   .     A
C322   C382    1.497   .     S
C322   C337    1.408   .     A
C322   C402    1.394   .     S
C323   C385    1.497   .     S
C323   C337    1.409   .     A
C323   C399    1.396   .     S
C324   C338    1.409   .     A
C324   C388    1.498   .     S
C325   C335    1.413   .     A
C325   O363    1.384   .     S
C325   C329    1.385   .     A
C326   C330    1.397   .     A
C326   C336    1.413   .     A
C326   O365    1.386   .     S
C327   C331    1.400   .     A
C327   O367    1.386   .     S
C327   C336    1.412   .     A
C328   C332    1.404   .     A
C328   C335    1.400   .     A
C328   O369    1.382   .     S
C329   C333    1.411   .     A
C329   O371    1.384   .     S
C330   C334    1.406   .     A
C330   O373    1.384   .     S
C331   O375    1.386   .     S
C331   C334    1.410   .     A
C332   O377    1.382   .     S
C332   C333    1.403   .     A
C335   C1038   1.448   1_554 S
C336   C1037   1.448   .     S
N339   Zn349   2.024   .     S
N340   Zn350   2.024   .     S
O341   Zn349   1.979   .     S
O342   Zn350   1.979   .     S
O343   Zn349   1.972   .     S
O344   Zn350   1.972   .     S
O345   Zn349   1.995   .     S
O346   Zn350   1.995   .     S
O347   Zn349   1.992   .     S
O348   Zn350   1.992   .     S
C351   O353    1.221   .     D
C351   H352    1.071   .     S
C354   O356    1.221   .     D
C354   H355    1.076   .     S
C357   O359    1.221   .     D
C357   H358    1.070   .     S
C360   O362    1.221   .     D
C360   H361    1.076   .     S
O363   H1066   0.989   1_554 S
H364   O1065   0.989   .     S
O365   H1068   0.989   .     S
H366   O1067   0.989   1_554 S
O367   H368    0.987   .     S
O369   H370    0.990   .     S
O371   H372    0.989   .     S
O373   H374    0.989   .     S
O375   H376    0.989   .     S
O377   H378    0.990   .     S
C379   H380    1.084   .     S
C379   O381    1.220   .     D
C382   H383    1.083   .     S
C382   O384    1.221   .     D
C385   H386    1.084   .     S
C385   O387    1.220   .     D
C388   O390    1.221   .     D
C388   H389    1.083   .     S
C391   O422    1.298   .     A
C391   O419    1.295   .     A
C391   C416    1.451   .     S
C392   O421    1.297   .     A
C392   O420    1.296   .     A
C392   C415    1.451   .     S
C393   O423    1.288   .     A
C393   C411    1.432   .     S
C393   O426    1.292   .     A
C394   O425    1.295   .     A
C394   O424    1.297   .     A
C394   C412    1.454   .     S
C395   N418    1.376   .     A
C395   C429    1.483   .     S
C396   N417    1.371   .     A
C396   C432    1.481   .     S
C396   C631    1.430   .     S
C397   C435    1.481   .     S
C397   N418    1.376   .     A
C398   C438    1.480   .     S
C398   N417    1.371   .     A
C398   C629    1.431   .     S
C399   C457    1.497   .     S
C399   C416    1.408   .     A
C400   C460    1.497   .     S
C400   C415    1.408   .     A
C400   C246    1.394   1_655 S
C401   C463    1.497   .     S
C401   C415    1.409   .     A
C401   C243    1.396   1_655 S
C402   C416    1.409   .     A
C402   C466    1.498   .     S
C403   C413    1.413   .     A
C403   O441    1.384   .     S
C403   C407    1.385   .     A
C404   C408    1.397   .     A
C404   C414    1.413   .     A
C404   O443    1.386   .     S
C405   C409    1.400   .     A
C405   O445    1.386   .     S
C405   C414    1.412   .     A
C406   C410    1.404   .     A
C406   C413    1.400   .     A
C406   O447    1.382   .     S
C407   C411    1.411   .     A
C407   O449    1.384   .     S
C408   C412    1.406   .     A
C408   O451    1.384   .     S
C409   O453    1.386   .     S
C409   C412    1.410   .     A
C410   O455    1.382   .     S
C410   C411    1.403   .     A
C413   C1116   1.448   1_554 S
C414   C1115   1.448   .     S
N417   Zn427   2.024   .     S
N418   Zn428   2.024   .     S
O419   Zn427   1.979   .     S
O420   Zn428   1.979   .     S
O421   Zn427   1.972   .     S
O422   Zn428   1.972   .     S
O423   Zn427   1.995   .     S
O424   Zn428   1.995   .     S
O425   Zn427   1.992   .     S
O426   Zn428   1.992   .     S
C429   O431    1.221   .     D
C429   H430    1.071   .     S
C432   O434    1.221   .     D
C432   H433    1.076   .     S
C435   O437    1.221   .     D
C435   H436    1.070   .     S
C438   O440    1.221   .     D
C438   H439    1.076   .     S
O441   H1144   0.989   1_554 S
H442   O1143   0.989   .     S
O443   H1146   0.989   .     S
H444   O1145   0.989   1_554 S
O445   H446    0.987   .     S
O447   H448    0.990   .     S
O449   H450    0.989   .     S
O451   H452    0.989   .     S
O453   H454    0.989   .     S
O455   H456    0.990   .     S
C457   H458    1.084   .     S
C457   O459    1.220   .     D
C460   H461    1.083   .     S
C460   O462    1.221   .     D
C463   H464    1.084   .     S
C463   O465    1.220   .     D
C466   O468    1.221   .     D
C466   H467    1.083   .     S
C469   O500    1.298   .     A
C469   O497    1.295   .     A
C469   C494    1.451   .     S
C470   O499    1.297   .     A
C470   O498    1.296   .     A
C470   C493    1.451   .     S
C471   O501    1.288   .     A
C471   C489    1.432   .     S
C471   O504    1.292   .     A
C472   O503    1.295   .     A
C472   O502    1.297   .     A
C472   C490    1.454   .     S
C473   N496    1.376   .     A
C473   C507    1.483   .     S
C474   N495    1.371   .     A
C474   C510    1.481   .     S
C474   C7      1.430   1_565 S
C475   C513    1.481   .     S
C475   N496    1.376   .     A
C476   C516    1.480   .     S
C476   N495    1.371   .     A
C476   C5      1.431   1_565 S
C477   C535    1.497   .     S
C477   C494    1.408   .     A
C477   C635    1.396   1_455 S
C478   C538    1.497   .     S
C478   C493    1.408   .     A
C478   C558    1.394   .     S
C479   C541    1.497   .     S
C479   C493    1.409   .     A
C479   C555    1.396   .     S
C480   C494    1.409   .     A
C480   C544    1.498   .     S
C480   C634    1.394   1_455 S
C481   C491    1.413   .     A
C481   O519    1.384   .     S
C481   C485    1.385   .     A
C482   C486    1.397   .     A
C482   C492    1.413   .     A
C482   O521    1.386   .     S
C483   C487    1.400   .     A
C483   O523    1.386   .     S
C483   C492    1.412   .     A
C484   C488    1.404   .     A
C484   C491    1.400   .     A
C484   O525    1.382   .     S
C485   C489    1.411   .     A
C485   O527    1.384   .     S
C486   C490    1.406   .     A
C486   O529    1.384   .     S
C487   O531    1.386   .     S
C487   C490    1.410   .     A
C488   O533    1.382   .     S
C488   C489    1.403   .     A
C491   C1194   1.448   1_554 S
C492   C1193   1.448   .     S
N495   Zn505   2.024   .     S
N496   Zn506   2.024   .     S
O497   Zn505   1.979   .     S
O498   Zn506   1.979   .     S
O499   Zn505   1.972   .     S
O500   Zn506   1.972   .     S
O501   Zn505   1.995   .     S
O502   Zn506   1.995   .     S
O503   Zn505   1.992   .     S
O504   Zn506   1.992   .     S
C507   O509    1.221   .     D
C507   H508    1.071   .     S
C510   O512    1.221   .     D
C510   H511    1.076   .     S
C513   O515    1.221   .     D
C513   H514    1.070   .     S
C516   O518    1.221   .     D
C516   H517    1.076   .     S
O519   H1222   0.989   1_554 S
H520   O1221   0.989   .     S
O521   H1224   0.989   .     S
H522   O1223   0.989   1_554 S
O523   H524    0.987   .     S
O525   H526    0.990   .     S
O527   H528    0.989   .     S
O529   H530    0.989   .     S
O531   H532    0.989   .     S
O533   H534    0.990   .     S
C535   H536    1.084   .     S
C535   O537    1.220   .     D
C538   H539    1.083   .     S
C538   O540    1.221   .     D
C541   H542    1.084   .     S
C541   O543    1.220   .     D
C544   O546    1.221   .     D
C544   H545    1.083   .     S
C547   O578    1.298   .     A
C547   O575    1.295   .     A
C547   C572    1.451   .     S
C548   O577    1.297   .     A
C548   O576    1.296   .     A
C548   C571    1.451   .     S
C549   O579    1.288   .     A
C549   C567    1.432   .     S
C549   O582    1.292   .     A
C550   O581    1.295   .     A
C550   O580    1.297   .     A
C550   C568    1.454   .     S
C551   N574    1.376   .     A
C551   C585    1.483   .     S
C552   N573    1.371   .     A
C552   C588    1.481   .     S
C552   C85     1.430   1_565 S
C553   C591    1.481   .     S
C553   N574    1.376   .     A
C554   C594    1.480   .     S
C554   N573    1.371   .     A
C554   C83     1.431   1_565 S
C555   C613    1.497   .     S
C555   C572    1.408   .     A
C556   C616    1.497   .     S
C556   C571    1.408   .     A
C556   C636    1.394   .     S
C557   C619    1.497   .     S
C557   C571    1.409   .     A
C557   C633    1.396   .     S
C558   C572    1.409   .     A
C558   C622    1.498   .     S
C559   C569    1.413   .     A
C559   O597    1.384   .     S
C559   C563    1.385   .     A
C560   C564    1.397   .     A
C560   C570    1.413   .     A
C560   O599    1.386   .     S
C561   C565    1.400   .     A
C561   O601    1.386   .     S
C561   C570    1.412   .     A
C562   C566    1.404   .     A
C562   C569    1.400   .     A
C562   O603    1.382   .     S
C563   C567    1.411   .     A
C563   O605    1.384   .     S
C564   C568    1.406   .     A
C564   O607    1.384   .     S
C565   O609    1.386   .     S
C565   C568    1.410   .     A
C566   O611    1.382   .     S
C566   C567    1.403   .     A
C569   C1272   1.448   1_554 S
C570   C1271   1.448   .     S
N573   Zn583   2.024   .     S
N574   Zn584   2.024   .     S
O575   Zn583   1.979   .     S
O576   Zn584   1.979   .     S
O577   Zn583   1.972   .     S
O578   Zn584   1.972   .     S
O579   Zn583   1.995   .     S
O580   Zn584   1.995   .     S
O581   Zn583   1.992   .     S
O582   Zn584   1.992   .     S
C585   O587    1.221   .     D
C585   H586    1.071   .     S
C588   O590    1.221   .     D
C588   H589    1.076   .     S
C591   O593    1.221   .     D
C591   H592    1.070   .     S
C594   O596    1.221   .     D
C594   H595    1.076   .     S
O597   H1300   0.989   1_554 S
H598   O1299   0.989   .     S
O599   H1302   0.989   .     S
H600   O1301   0.989   1_554 S
O601   H602    0.987   .     S
O603   H604    0.990   .     S
O605   H606    0.989   .     S
O607   H608    0.989   .     S
O609   H610    0.989   .     S
O611   H612    0.990   .     S
C613   H614    1.084   .     S
C613   O615    1.220   .     D
C616   H617    1.083   .     S
C616   O618    1.221   .     D
C619   H620    1.084   .     S
C619   O621    1.220   .     D
C622   O624    1.221   .     D
C622   H623    1.083   .     S
C625   O656    1.298   .     A
C625   O653    1.295   .     A
C625   C650    1.451   .     S
C626   O655    1.297   .     A
C626   O654    1.296   .     A
C626   C649    1.451   .     S
C627   O657    1.288   .     A
C627   C645    1.432   .     S
C627   O660    1.292   .     A
C628   O659    1.295   .     A
C628   O658    1.297   .     A
C628   C646    1.454   .     S
C629   N652    1.376   .     A
C629   C663    1.483   .     S
C630   N651    1.371   .     A
C630   C666    1.481   .     S
C630   C163    1.430   1_565 S
C631   C669    1.481   .     S
C631   N652    1.376   .     A
C632   C672    1.480   .     S
C632   N651    1.371   .     A
C632   C161    1.431   1_565 S
C633   C691    1.497   .     S
C633   C650    1.408   .     A
C634   C694    1.497   .     S
C634   C649    1.408   .     A
C634   C480    1.394   1_655 S
C635   C697    1.497   .     S
C635   C649    1.409   .     A
C635   C477    1.396   1_655 S
C636   C650    1.409   .     A
C636   C700    1.498   .     S
C637   C647    1.413   .     A
C637   O675    1.384   .     S
C637   C641    1.385   .     A
C638   C642    1.397   .     A
C638   C648    1.413   .     A
C638   O677    1.386   .     S
C639   C643    1.400   .     A
C639   O679    1.386   .     S
C639   C648    1.412   .     A
C640   C644    1.404   .     A
C640   C647    1.400   .     A
C640   O681    1.382   .     S
C641   C645    1.411   .     A
C641   O683    1.384   .     S
C642   C646    1.406   .     A
C642   O685    1.384   .     S
C643   O687    1.386   .     S
C643   C646    1.410   .     A
C644   O689    1.382   .     S
C644   C645    1.403   .     A
C647   C1350   1.448   1_554 S
C648   C1349   1.448   .     S
N651   Zn661   2.024   .     S
N652   Zn662   2.024   .     S
O653   Zn661   1.979   .     S
O654   Zn662   1.979   .     S
O655   Zn661   1.972   .     S
O656   Zn662   1.972   .     S
O657   Zn661   1.995   .     S
O658   Zn662   1.995   .     S
O659   Zn661   1.992   .     S
O660   Zn662   1.992   .     S
C663   O665    1.221   .     D
C663   H664    1.071   .     S
C666   O668    1.221   .     D
C666   H667    1.076   .     S
C669   O671    1.221   .     D
C669   H670    1.070   .     S
C672   O674    1.221   .     D
C672   H673    1.076   .     S
O675   H1378   0.989   1_554 S
H676   O1377   0.989   .     S
O677   H1380   0.989   .     S
H678   O1379   0.989   1_554 S
O679   H680    0.987   .     S
O681   H682    0.990   .     S
O683   H684    0.989   .     S
O685   H686    0.989   .     S
O687   H688    0.989   .     S
O689   H690    0.990   .     S
C691   H692    1.084   .     S
C691   O693    1.220   .     D
C694   H695    1.083   .     S
C694   O696    1.221   .     D
C697   H698    1.084   .     S
C697   O699    1.220   .     D
C700   O702    1.221   .     D
C700   H701    1.083   .     S
C703   O734    1.298   .     A
C703   O731    1.295   .     A
C703   C728    1.451   .     S
C704   O733    1.297   .     A
C704   O732    1.296   .     A
C704   C727    1.451   .     S
C705   O735    1.288   .     A
C705   C723    1.432   .     S
C705   O738    1.292   .     A
C706   O737    1.295   .     A
C706   O736    1.297   .     A
C706   C724    1.454   .     S
C707   N730    1.376   .     A
C707   C741    1.483   .     S
C707   C1178   1.431   1_545 S
C708   N729    1.371   .     A
C708   C744    1.481   .     S
C708   C943    1.430   .     S
C709   C747    1.481   .     S
C709   N730    1.376   .     A
C709   C1176   1.430   1_545 S
C710   C750    1.480   .     S
C710   N729    1.371   .     A
C710   C941    1.431   .     S
C711   C769    1.497   .     S
C711   C728    1.408   .     A
C711   C869    1.396   1_455 S
C712   C772    1.497   .     S
C712   C727    1.408   .     A
C712   C792    1.394   .     S
C713   C775    1.497   .     S
C713   C727    1.409   .     A
C713   C789    1.396   .     S
C714   C728    1.409   .     A
C714   C778    1.498   .     S
C714   C868    1.394   1_455 S
C715   C725    1.413   .     A
C715   O753    1.384   .     S
C715   C719    1.385   .     A
C716   C720    1.397   .     A
C716   C726    1.413   .     A
C716   O755    1.386   .     S
C717   C721    1.400   .     A
C717   O757    1.386   .     S
C717   C726    1.412   .     A
C718   C722    1.404   .     A
C718   C725    1.400   .     A
C718   O759    1.382   .     S
C719   C723    1.411   .     A
C719   O761    1.384   .     S
C720   C724    1.406   .     A
C720   O763    1.384   .     S
C721   O765    1.386   .     S
C721   C724    1.410   .     A
C722   O767    1.382   .     S
C722   C723    1.403   .     A
C726   C23     1.448   1_556 S
N729   Zn739   2.024   .     S
N730   Zn740   2.024   .     S
O731   Zn739   1.979   .     S
O732   Zn740   1.979   .     S
O733   Zn739   1.972   .     S
O734   Zn740   1.972   .     S
O735   Zn739   1.995   .     S
O736   Zn740   1.995   .     S
O737   Zn739   1.992   .     S
O738   Zn740   1.992   .     S
C741   O743    1.221   .     D
C741   H742    1.071   .     S
C744   O746    1.221   .     D
C744   H745    1.076   .     S
C747   O749    1.221   .     D
C747   H748    1.070   .     S
C750   O752    1.221   .     D
C750   H751    1.076   .     S
H754   O51     0.989   1_556 S
O755   H54     0.989   1_556 S
O757   H758    0.987   .     S
O759   H760    0.990   .     S
O761   H762    0.989   .     S
O763   H764    0.989   .     S
O765   H766    0.989   .     S
O767   H768    0.990   .     S
C769   H770    1.084   .     S
C769   O771    1.220   .     D
C772   H773    1.083   .     S
C772   O774    1.221   .     D
C775   H776    1.084   .     S
C775   O777    1.220   .     D
C778   O780    1.221   .     D
C778   H779    1.083   .     S
C781   O812    1.298   .     A
C781   O809    1.295   .     A
C781   C806    1.451   .     S
C782   O811    1.297   .     A
C782   O810    1.296   .     A
C782   C805    1.451   .     S
C783   O813    1.288   .     A
C783   C801    1.432   .     S
C783   O816    1.292   .     A
C784   O815    1.295   .     A
C784   O814    1.297   .     A
C784   C802    1.454   .     S
C785   N808    1.376   .     A
C785   C819    1.483   .     S
C785   C1256   1.431   1_545 S
C786   N807    1.371   .     A
C786   C822    1.481   .     S
C786   C1021   1.430   .     S
C787   C825    1.481   .     S
C787   N808    1.376   .     A
C787   C1254   1.430   1_545 S
C788   C828    1.480   .     S
C788   N807    1.371   .     A
C788   C1019   1.431   .     S
C789   C847    1.497   .     S
C789   C806    1.408   .     A
C790   C850    1.497   .     S
C790   C805    1.408   .     A
C790   C870    1.394   .     S
C791   C853    1.497   .     S
C791   C805    1.409   .     A
C791   C867    1.396   .     S
C792   C806    1.409   .     A
C792   C856    1.498   .     S
C793   C803    1.413   .     A
C793   O831    1.384   .     S
C793   C797    1.385   .     A
C794   C798    1.397   .     A
C794   C804    1.413   .     A
C794   O833    1.386   .     S
C795   C799    1.400   .     A
C795   O835    1.386   .     S
C795   C804    1.412   .     A
C796   C800    1.404   .     A
C796   C803    1.400   .     A
C796   O837    1.382   .     S
C797   C801    1.411   .     A
C797   O839    1.384   .     S
C798   C802    1.406   .     A
C798   O841    1.384   .     S
C799   O843    1.386   .     S
C799   C802    1.410   .     A
C800   O845    1.382   .     S
C800   C801    1.403   .     A
C804   C101    1.448   1_556 S
N807   Zn817   2.024   .     S
N808   Zn818   2.024   .     S
O809   Zn817   1.979   .     S
O810   Zn818   1.979   .     S
O811   Zn817   1.972   .     S
O812   Zn818   1.972   .     S
O813   Zn817   1.995   .     S
O814   Zn818   1.995   .     S
O815   Zn817   1.992   .     S
O816   Zn818   1.992   .     S
C819   O821    1.221   .     D
C819   H820    1.071   .     S
C822   O824    1.221   .     D
C822   H823    1.076   .     S
C825   O827    1.221   .     D
C825   H826    1.070   .     S
C828   O830    1.221   .     D
C828   H829    1.076   .     S
H832   O129    0.989   1_556 S
O833   H132    0.989   1_556 S
O835   H836    0.987   .     S
O837   H838    0.990   .     S
O839   H840    0.989   .     S
O841   H842    0.989   .     S
O843   H844    0.989   .     S
O845   H846    0.990   .     S
C847   H848    1.084   .     S
C847   O849    1.220   .     D
C850   H851    1.083   .     S
C850   O852    1.221   .     D
C853   H854    1.084   .     S
C853   O855    1.220   .     D
C856   O858    1.221   .     D
C856   H857    1.083   .     S
C859   O890    1.298   .     A
C859   O887    1.295   .     A
C859   C884    1.451   .     S
C860   O889    1.297   .     A
C860   O888    1.296   .     A
C860   C883    1.451   .     S
C861   O891    1.288   .     A
C861   C879    1.432   .     S
C861   O894    1.292   .     A
C862   O893    1.295   .     A
C862   O892    1.297   .     A
C862   C880    1.454   .     S
C863   N886    1.376   .     A
C863   C897    1.483   .     S
C863   C1334   1.431   1_545 S
C864   N885    1.371   .     A
C864   C900    1.481   .     S
C864   C1099   1.430   .     S
C865   C903    1.481   .     S
C865   N886    1.376   .     A
C865   C1332   1.430   1_545 S
C866   C906    1.480   .     S
C866   N885    1.371   .     A
C866   C1097   1.431   .     S
C867   C925    1.497   .     S
C867   C884    1.408   .     A
C868   C928    1.497   .     S
C868   C883    1.408   .     A
C868   C714    1.394   1_655 S
C869   C931    1.497   .     S
C869   C883    1.409   .     A
C869   C711    1.396   1_655 S
C870   C884    1.409   .     A
C870   C934    1.498   .     S
C871   C881    1.413   .     A
C871   O909    1.384   .     S
C871   C875    1.385   .     A
C872   C876    1.397   .     A
C872   C882    1.413   .     A
C872   O911    1.386   .     S
C873   C877    1.400   .     A
C873   O913    1.386   .     S
C873   C882    1.412   .     A
C874   C878    1.404   .     A
C874   C881    1.400   .     A
C874   O915    1.382   .     S
C875   C879    1.411   .     A
C875   O917    1.384   .     S
C876   C880    1.406   .     A
C876   O919    1.384   .     S
C877   O921    1.386   .     S
C877   C880    1.410   .     A
C878   O923    1.382   .     S
C878   C879    1.403   .     A
C882   C179    1.448   1_556 S
N885   Zn895   2.024   .     S
N886   Zn896   2.024   .     S
O887   Zn895   1.979   .     S
O888   Zn896   1.979   .     S
O889   Zn895   1.972   .     S
O890   Zn896   1.972   .     S
O891   Zn895   1.995   .     S
O892   Zn896   1.995   .     S
O893   Zn895   1.992   .     S
O894   Zn896   1.992   .     S
C897   O899    1.221   .     D
C897   H898    1.071   .     S
C900   O902    1.221   .     D
C900   H901    1.076   .     S
C903   O905    1.221   .     D
C903   H904    1.070   .     S
C906   O908    1.221   .     D
C906   H907    1.076   .     S
H910   O207    0.989   1_556 S
O911   H210    0.989   1_556 S
O913   H914    0.987   .     S
O915   H916    0.990   .     S
O917   H918    0.989   .     S
O919   H920    0.989   .     S
O921   H922    0.989   .     S
O923   H924    0.990   .     S
C925   H926    1.084   .     S
C925   O927    1.220   .     D
C928   H929    1.083   .     S
C928   O930    1.221   .     D
C931   H932    1.084   .     S
C931   O933    1.220   .     D
C934   O936    1.221   .     D
C934   H935    1.083   .     S
C937   O968    1.298   .     A
C937   O965    1.295   .     A
C937   C962    1.451   .     S
C938   O967    1.297   .     A
C938   O966    1.296   .     A
C938   C961    1.451   .     S
C939   O969    1.288   .     A
C939   C957    1.432   .     S
C939   O972    1.292   .     A
C940   O971    1.295   .     A
C940   O970    1.297   .     A
C940   C958    1.454   .     S
C941   N964    1.376   .     A
C941   C975    1.483   .     S
C942   N963    1.371   .     A
C942   C978    1.481   .     S
C942   C1177   1.430   .     S
C943   C981    1.481   .     S
C943   N964    1.376   .     A
C944   C984    1.480   .     S
C944   N963    1.371   .     A
C944   C1175   1.431   .     S
C945   C1003   1.497   .     S
C945   C962    1.408   .     A
C945   C1103   1.396   1_455 S
C946   C1006   1.497   .     S
C946   C961    1.408   .     A
C946   C1026   1.394   .     S
C947   C1009   1.497   .     S
C947   C961    1.409   .     A
C947   C1023   1.396   .     S
C948   C962    1.409   .     A
C948   C1012   1.498   .     S
C948   C1102   1.394   1_455 S
C949   C959    1.413   .     A
C949   O987    1.384   .     S
C949   C953    1.385   .     A
C950   C954    1.397   .     A
C950   C960    1.413   .     A
C950   O989    1.386   .     S
C951   C955    1.400   .     A
C951   O991    1.386   .     S
C951   C960    1.412   .     A
C952   C956    1.404   .     A
C952   C959    1.400   .     A
C952   O993    1.382   .     S
C953   C957    1.411   .     A
C953   O995    1.384   .     S
C954   C958    1.406   .     A
C954   O997    1.384   .     S
C955   O999    1.386   .     S
C955   C958    1.410   .     A
C956   O1001   1.382   .     S
C956   C957    1.403   .     A
C960   C257    1.448   1_556 S
N963   Zn973   2.024   .     S
N964   Zn974   2.024   .     S
O965   Zn973   1.979   .     S
O966   Zn974   1.979   .     S
O967   Zn973   1.972   .     S
O968   Zn974   1.972   .     S
O969   Zn973   1.995   .     S
O970   Zn974   1.995   .     S
O971   Zn973   1.992   .     S
O972   Zn974   1.992   .     S
C975   O977    1.221   .     D
C975   H976    1.071   .     S
C978   O980    1.221   .     D
C978   H979    1.076   .     S
C981   O983    1.221   .     D
C981   H982    1.070   .     S
C984   O986    1.221   .     D
C984   H985    1.076   .     S
H988   O285    0.989   1_556 S
O989   H288    0.989   1_556 S
O991   H992    0.987   .     S
O993   H994    0.990   .     S
O995   H996    0.989   .     S
O997   H998    0.989   .     S
O999   H1000   0.989   .     S
O1001  H1002   0.990   .     S
C1003  H1004   1.084   .     S
C1003  O1005   1.220   .     D
C1006  H1007   1.083   .     S
C1006  O1008   1.221   .     D
C1009  H1010   1.084   .     S
C1009  O1011   1.220   .     D
C1012  O1014   1.221   .     D
C1012  H1013   1.083   .     S
C1015  O1046   1.298   .     A
C1015  O1043   1.295   .     A
C1015  C1040   1.451   .     S
C1016  O1045   1.297   .     A
C1016  O1044   1.296   .     A
C1016  C1039   1.451   .     S
C1017  O1047   1.288   .     A
C1017  C1035   1.432   .     S
C1017  O1050   1.292   .     A
C1018  O1049   1.295   .     A
C1018  O1048   1.297   .     A
C1018  C1036   1.454   .     S
C1019  N1042   1.376   .     A
C1019  C1053   1.483   .     S
C1020  N1041   1.371   .     A
C1020  C1056   1.481   .     S
C1020  C1255   1.430   .     S
C1021  C1059   1.481   .     S
C1021  N1042   1.376   .     A
C1022  C1062   1.480   .     S
C1022  N1041   1.371   .     A
C1022  C1253   1.431   .     S
C1023  C1081   1.497   .     S
C1023  C1040   1.408   .     A
C1024  C1084   1.497   .     S
C1024  C1039   1.408   .     A
C1024  C1104   1.394   .     S
C1025  C1087   1.497   .     S
C1025  C1039   1.409   .     A
C1025  C1101   1.396   .     S
C1026  C1040   1.409   .     A
C1026  C1090   1.498   .     S
C1027  C1037   1.413   .     A
C1027  O1065   1.384   .     S
C1027  C1031   1.385   .     A
C1028  C1032   1.397   .     A
C1028  C1038   1.413   .     A
C1028  O1067   1.386   .     S
C1029  C1033   1.400   .     A
C1029  O1069   1.386   .     S
C1029  C1038   1.412   .     A
C1030  C1034   1.404   .     A
C1030  C1037   1.400   .     A
C1030  O1071   1.382   .     S
C1031  C1035   1.411   .     A
C1031  O1073   1.384   .     S
C1032  C1036   1.406   .     A
C1032  O1075   1.384   .     S
C1033  O1077   1.386   .     S
C1033  C1036   1.410   .     A
C1034  O1079   1.382   .     S
C1034  C1035   1.403   .     A
C1038  C335    1.448   1_556 S
N1041  Zn1051  2.024   .     S
N1042  Zn1052  2.024   .     S
O1043  Zn1051  1.979   .     S
O1044  Zn1052  1.979   .     S
O1045  Zn1051  1.972   .     S
O1046  Zn1052  1.972   .     S
O1047  Zn1051  1.995   .     S
O1048  Zn1052  1.995   .     S
O1049  Zn1051  1.992   .     S
O1050  Zn1052  1.992   .     S
C1053  O1055   1.221   .     D
C1053  H1054   1.071   .     S
C1056  O1058   1.221   .     D
C1056  H1057   1.076   .     S
C1059  O1061   1.221   .     D
C1059  H1060   1.070   .     S
C1062  O1064   1.221   .     D
C1062  H1063   1.076   .     S
H1066  O363    0.989   1_556 S
O1067  H366    0.989   1_556 S
O1069  H1070   0.987   .     S
O1071  H1072   0.990   .     S
O1073  H1074   0.989   .     S
O1075  H1076   0.989   .     S
O1077  H1078   0.989   .     S
O1079  H1080   0.990   .     S
C1081  H1082   1.084   .     S
C1081  O1083   1.220   .     D
C1084  H1085   1.083   .     S
C1084  O1086   1.221   .     D
C1087  H1088   1.084   .     S
C1087  O1089   1.220   .     D
C1090  O1092   1.221   .     D
C1090  H1091   1.083   .     S
C1093  O1124   1.298   .     A
C1093  O1121   1.295   .     A
C1093  C1118   1.451   .     S
C1094  O1123   1.297   .     A
C1094  O1122   1.296   .     A
C1094  C1117   1.451   .     S
C1095  O1125   1.288   .     A
C1095  C1113   1.432   .     S
C1095  O1128   1.292   .     A
C1096  O1127   1.295   .     A
C1096  O1126   1.297   .     A
C1096  C1114   1.454   .     S
C1097  N1120   1.376   .     A
C1097  C1131   1.483   .     S
C1098  N1119   1.371   .     A
C1098  C1134   1.481   .     S
C1098  C1333   1.430   .     S
C1099  C1137   1.481   .     S
C1099  N1120   1.376   .     A
C1100  C1140   1.480   .     S
C1100  N1119   1.371   .     A
C1100  C1331   1.431   .     S
C1101  C1159   1.497   .     S
C1101  C1118   1.408   .     A
C1102  C1162   1.497   .     S
C1102  C1117   1.408   .     A
C1102  C948    1.394   1_655 S
C1103  C1165   1.497   .     S
C1103  C1117   1.409   .     A
C1103  C945    1.396   1_655 S
C1104  C1118   1.409   .     A
C1104  C1168   1.498   .     S
C1105  C1115   1.413   .     A
C1105  O1143   1.384   .     S
C1105  C1109   1.385   .     A
C1106  C1110   1.397   .     A
C1106  C1116   1.413   .     A
C1106  O1145   1.386   .     S
C1107  C1111   1.400   .     A
C1107  O1147   1.386   .     S
C1107  C1116   1.412   .     A
C1108  C1112   1.404   .     A
C1108  C1115   1.400   .     A
C1108  O1149   1.382   .     S
C1109  C1113   1.411   .     A
C1109  O1151   1.384   .     S
C1110  C1114   1.406   .     A
C1110  O1153   1.384   .     S
C1111  O1155   1.386   .     S
C1111  C1114   1.410   .     A
C1112  O1157   1.382   .     S
C1112  C1113   1.403   .     A
C1116  C413    1.448   1_556 S
N1119  Zn1129  2.024   .     S
N1120  Zn1130  2.024   .     S
O1121  Zn1129  1.979   .     S
O1122  Zn1130  1.979   .     S
O1123  Zn1129  1.972   .     S
O1124  Zn1130  1.972   .     S
O1125  Zn1129  1.995   .     S
O1126  Zn1130  1.995   .     S
O1127  Zn1129  1.992   .     S
O1128  Zn1130  1.992   .     S
C1131  O1133   1.221   .     D
C1131  H1132   1.071   .     S
C1134  O1136   1.221   .     D
C1134  H1135   1.076   .     S
C1137  O1139   1.221   .     D
C1137  H1138   1.070   .     S
C1140  O1142   1.221   .     D
C1140  H1141   1.076   .     S
H1144  O441    0.989   1_556 S
O1145  H444    0.989   1_556 S
O1147  H1148   0.987   .     S
O1149  H1150   0.990   .     S
O1151  H1152   0.989   .     S
O1153  H1154   0.989   .     S
O1155  H1156   0.989   .     S
O1157  H1158   0.990   .     S
C1159  H1160   1.084   .     S
C1159  O1161   1.220   .     D
C1162  H1163   1.083   .     S
C1162  O1164   1.221   .     D
C1165  H1166   1.084   .     S
C1165  O1167   1.220   .     D
C1168  O1170   1.221   .     D
C1168  H1169   1.083   .     S
C1171  O1202   1.298   .     A
C1171  O1199   1.295   .     A
C1171  C1196   1.451   .     S
C1172  O1201   1.297   .     A
C1172  O1200   1.296   .     A
C1172  C1195   1.451   .     S
C1173  O1203   1.288   .     A
C1173  C1191   1.432   .     S
C1173  O1206   1.292   .     A
C1174  O1205   1.295   .     A
C1174  O1204   1.297   .     A
C1174  C1192   1.454   .     S
C1175  N1198   1.376   .     A
C1175  C1209   1.483   .     S
C1176  N1197   1.371   .     A
C1176  C1212   1.481   .     S
C1176  C709    1.430   1_565 S
C1177  C1215   1.481   .     S
C1177  N1198   1.376   .     A
C1178  C1218   1.480   .     S
C1178  N1197   1.371   .     A
C1178  C707    1.431   1_565 S
C1179  C1237   1.497   .     S
C1179  C1196   1.408   .     A
C1179  C1337   1.396   1_455 S
C1180  C1240   1.497   .     S
C1180  C1195   1.408   .     A
C1180  C1260   1.394   .     S
C1181  C1243   1.497   .     S
C1181  C1195   1.409   .     A
C1181  C1257   1.396   .     S
C1182  C1196   1.409   .     A
C1182  C1246   1.498   .     S
C1182  C1336   1.394   1_455 S
C1183  C1193   1.413   .     A
C1183  O1221   1.384   .     S
C1183  C1187   1.385   .     A
C1184  C1188   1.397   .     A
C1184  C1194   1.413   .     A
C1184  O1223   1.386   .     S
C1185  C1189   1.400   .     A
C1185  O1225   1.386   .     S
C1185  C1194   1.412   .     A
C1186  C1190   1.404   .     A
C1186  C1193   1.400   .     A
C1186  O1227   1.382   .     S
C1187  C1191   1.411   .     A
C1187  O1229   1.384   .     S
C1188  C1192   1.406   .     A
C1188  O1231   1.384   .     S
C1189  O1233   1.386   .     S
C1189  C1192   1.410   .     A
C1190  O1235   1.382   .     S
C1190  C1191   1.403   .     A
C1194  C491    1.448   1_556 S
N1197  Zn1207  2.024   .     S
N1198  Zn1208  2.024   .     S
O1199  Zn1207  1.979   .     S
O1200  Zn1208  1.979   .     S
O1201  Zn1207  1.972   .     S
O1202  Zn1208  1.972   .     S
O1203  Zn1207  1.995   .     S
O1204  Zn1208  1.995   .     S
O1205  Zn1207  1.992   .     S
O1206  Zn1208  1.992   .     S
C1209  O1211   1.221   .     D
C1209  H1210   1.071   .     S
C1212  O1214   1.221   .     D
C1212  H1213   1.076   .     S
C1215  O1217   1.221   .     D
C1215  H1216   1.070   .     S
C1218  O1220   1.221   .     D
C1218  H1219   1.076   .     S
H1222  O519    0.989   1_556 S
O1223  H522    0.989   1_556 S
O1225  H1226   0.987   .     S
O1227  H1228   0.990   .     S
O1229  H1230   0.989   .     S
O1231  H1232   0.989   .     S
O1233  H1234   0.989   .     S
O1235  H1236   0.990   .     S
C1237  H1238   1.084   .     S
C1237  O1239   1.220   .     D
C1240  H1241   1.083   .     S
C1240  O1242   1.221   .     D
C1243  H1244   1.084   .     S
C1243  O1245   1.220   .     D
C1246  O1248   1.221   .     D
C1246  H1247   1.083   .     S
C1249  O1280   1.298   .     A
C1249  O1277   1.295   .     A
C1249  C1274   1.451   .     S
C1250  O1279   1.297   .     A
C1250  O1278   1.296   .     A
C1250  C1273   1.451   .     S
C1251  O1281   1.288   .     A
C1251  C1269   1.432   .     S
C1251  O1284   1.292   .     A
C1252  O1283   1.295   .     A
C1252  O1282   1.297   .     A
C1252  C1270   1.454   .     S
C1253  N1276   1.376   .     A
C1253  C1287   1.483   .     S
C1254  N1275   1.371   .     A
C1254  C1290   1.481   .     S
C1254  C787    1.430   1_565 S
C1255  C1293   1.481   .     S
C1255  N1276   1.376   .     A
C1256  C1296   1.480   .     S
C1256  N1275   1.371   .     A
C1256  C785    1.431   1_565 S
C1257  C1315   1.497   .     S
C1257  C1274   1.408   .     A
C1258  C1318   1.497   .     S
C1258  C1273   1.408   .     A
C1258  C1338   1.394   .     S
C1259  C1321   1.497   .     S
C1259  C1273   1.409   .     A
C1259  C1335   1.396   .     S
C1260  C1274   1.409   .     A
C1260  C1324   1.498   .     S
C1261  C1271   1.413   .     A
C1261  O1299   1.384   .     S
C1261  C1265   1.385   .     A
C1262  C1266   1.397   .     A
C1262  C1272   1.413   .     A
C1262  O1301   1.386   .     S
C1263  C1267   1.400   .     A
C1263  O1303   1.386   .     S
C1263  C1272   1.412   .     A
C1264  C1268   1.404   .     A
C1264  C1271   1.400   .     A
C1264  O1305   1.382   .     S
C1265  C1269   1.411   .     A
C1265  O1307   1.384   .     S
C1266  C1270   1.406   .     A
C1266  O1309   1.384   .     S
C1267  O1311   1.386   .     S
C1267  C1270   1.410   .     A
C1268  O1313   1.382   .     S
C1268  C1269   1.403   .     A
C1272  C569    1.448   1_556 S
N1275  Zn1285  2.024   .     S
N1276  Zn1286  2.024   .     S
O1277  Zn1285  1.979   .     S
O1278  Zn1286  1.979   .     S
O1279  Zn1285  1.972   .     S
O1280  Zn1286  1.972   .     S
O1281  Zn1285  1.995   .     S
O1282  Zn1286  1.995   .     S
O1283  Zn1285  1.992   .     S
O1284  Zn1286  1.992   .     S
C1287  O1289   1.221   .     D
C1287  H1288   1.071   .     S
C1290  O1292   1.221   .     D
C1290  H1291   1.076   .     S
C1293  O1295   1.221   .     D
C1293  H1294   1.070   .     S
C1296  O1298   1.221   .     D
C1296  H1297   1.076   .     S
H1300  O597    0.989   1_556 S
O1301  H600    0.989   1_556 S
O1303  H1304   0.987   .     S
O1305  H1306   0.990   .     S
O1307  H1308   0.989   .     S
O1309  H1310   0.989   .     S
O1311  H1312   0.989   .     S
O1313  H1314   0.990   .     S
C1315  H1316   1.084   .     S
C1315  O1317   1.220   .     D
C1318  H1319   1.083   .     S
C1318  O1320   1.221   .     D
C1321  H1322   1.084   .     S
C1321  O1323   1.220   .     D
C1324  O1326   1.221   .     D
C1324  H1325   1.083   .     S
C1327  O1358   1.298   .     A
C1327  O1355   1.295   .     A
C1327  C1352   1.451   .     S
C1328  O1357   1.297   .     A
C1328  O1356   1.296   .     A
C1328  C1351   1.451   .     S
C1329  O1359   1.288   .     A
C1329  C1347   1.432   .     S
C1329  O1362   1.292   .     A
C1330  O1361   1.295   .     A
C1330  O1360   1.297   .     A
C1330  C1348   1.454   .     S
C1331  N1354   1.376   .     A
C1331  C1365   1.483   .     S
C1332  N1353   1.371   .     A
C1332  C1368   1.481   .     S
C1332  C865    1.430   1_565 S
C1333  C1371   1.481   .     S
C1333  N1354   1.376   .     A
C1334  C1374   1.480   .     S
C1334  N1353   1.371   .     A
C1334  C863    1.431   1_565 S
C1335  C1393   1.497   .     S
C1335  C1352   1.408   .     A
C1336  C1396   1.497   .     S
C1336  C1351   1.408   .     A
C1336  C1182   1.394   1_655 S
C1337  C1399   1.497   .     S
C1337  C1351   1.409   .     A
C1337  C1179   1.396   1_655 S
C1338  C1352   1.409   .     A
C1338  C1402   1.498   .     S
C1339  C1349   1.413   .     A
C1339  O1377   1.384   .     S
C1339  C1343   1.385   .     A
C1340  C1344   1.397   .     A
C1340  C1350   1.413   .     A
C1340  O1379   1.386   .     S
C1341  C1345   1.400   .     A
C1341  O1381   1.386   .     S
C1341  C1350   1.412   .     A
C1342  C1346   1.404   .     A
C1342  C1349   1.400   .     A
C1342  O1383   1.382   .     S
C1343  C1347   1.411   .     A
C1343  O1385   1.384   .     S
C1344  C1348   1.406   .     A
C1344  O1387   1.384   .     S
C1345  O1389   1.386   .     S
C1345  C1348   1.410   .     A
C1346  O1391   1.382   .     S
C1346  C1347   1.403   .     A
C1350  C647    1.448   1_556 S
N1353  Zn1363  2.024   .     S
N1354  Zn1364  2.024   .     S
O1355  Zn1363  1.979   .     S
O1356  Zn1364  1.979   .     S
O1357  Zn1363  1.972   .     S
O1358  Zn1364  1.972   .     S
O1359  Zn1363  1.995   .     S
O1360  Zn1364  1.995   .     S
O1361  Zn1363  1.992   .     S
O1362  Zn1364  1.992   .     S
C1365  O1367   1.221   .     D
C1365  H1366   1.071   .     S
C1368  O1370   1.221   .     D
C1368  H1369   1.076   .     S
C1371  O1373   1.221   .     D
C1371  H1372   1.070   .     S
C1374  O1376   1.221   .     D
C1374  H1375   1.076   .     S
H1378  O675    0.989   1_556 S
O1379  H678    0.989   1_556 S
O1381  H1382   0.987   .     S
O1383  H1384   0.990   .     S
O1385  H1386   0.989   .     S
O1387  H1388   0.989   .     S
O1389  H1390   0.989   .     S
O1391  H1392   0.990   .     S
C1393  H1394   1.084   .     S
C1393  O1395   1.220   .     D
C1396  H1397   1.083   .     S
C1396  O1398   1.221   .     D
C1399  H1400   1.084   .     S
C1399  O1401   1.220   .     D
C1402  O1404   1.221   .     D
C1402  H1403   1.083   .     S
