data_str_m2_o10_o16_pcu_sym.67
_audit_creation_date              2020-01-03
_audit_creation_method            'Materials Studio'
_symmetry_space_group_name_H-M    'P1'
_symmetry_Int_Tables_number       1
_symmetry_cell_setting            triclinic
loop_
_symmetry_equiv_pos_as_xyz
  x,y,z
_cell_length_a                    22.3735
_cell_length_b                    26.0685
_cell_length_c                    26.7775
_cell_angle_alpha                 94.5229
_cell_angle_beta                  77.3195
_cell_angle_gamma                 103.3541
loop_
_atom_site_label
_atom_site_type_symbol
_atom_site_fract_x
_atom_site_fract_y
_atom_site_fract_z
_atom_site_U_iso_or_equiv
_atom_site_adp_type
_atom_site_occupancy
C1     C     0.18164   0.26672   0.25192   0.00000  Uiso   1.00
C2     C     0.11248   0.16457   0.40348   0.00000  Uiso   1.00
C3     C     0.18952   0.32272   0.25376   0.00000  Uiso   1.00
C4     C     0.13321   0.16589   0.34726   0.00000  Uiso   1.00
C5     C     0.14316   0.01054   0.24728   0.00000  Uiso   1.00
C6     C     0.15151   0.06660   0.24845   0.00000  Uiso   1.00
C7     C     0.20051   0.17036   0.15298   0.00000  Uiso   1.00
C8     C     0.29212   0.22763   0.02739   0.00000  Uiso   1.00
C9     C     0.22076   0.17925   0.09796   0.00000  Uiso   1.00
C10    C     0.05131   0.13731   0.42421   0.00000  Uiso   1.00
C11    C     0.03319   0.12601   0.47597   0.00000  Uiso   1.00
C12    C     0.13915   0.16899   0.48799   0.00000  Uiso   1.00
C13    C     0.07666   0.14196   0.00772   0.00000  Uiso   1.00
C14    C     0.01102   0.08198   0.18293   0.00000  Uiso   1.00
C15    C     0.30310   0.05018   0.01062   0.00000  Uiso   1.00
C16    C     0.15510   0.18452   0.43632   0.00000  Uiso   1.00
C17    C     0.18612   0.18185   0.01807   0.00000  Uiso   1.00
C18    C     0.24561   0.21438   0.49796   0.00000  Uiso   1.00
C19    C     0.25756   0.23431   0.44919   0.00000  Uiso   1.00
C20    C     0.21281   0.22021   0.41908   0.00000  Uiso   1.00
C21    C     0.17601   0.16300   0.06751   0.00000  Uiso   1.00
C22    C     0.27960   0.21044   0.07737   0.00000  Uiso   1.00
Cu23   Cu    0.10710   0.16105   0.24435   0.00000  Uiso   1.00
Cu24   Cu    0.22623   0.17228   0.25564   0.00000  Uiso   1.00
H25    H     0.31468   0.22343   0.10053   0.00000  Uiso   1.00
H26    H     0.23368   0.01330   0.26077   0.00000  Uiso   1.00
H27    H     0.33322   0.05857   0.21804   0.00000  Uiso   1.00
H28    H     0.06048   0.08511   0.16284   0.00000  Uiso   1.00
H29    H     0.31462   0.05988   0.15673   0.00000  Uiso   1.00
H30    H     0.32236   0.05184   0.04575   0.00000  Uiso   1.00
H31    H     0.32831   0.02739   0.47934   0.00000  Uiso   1.00
H32    H     0.25337   0.02841   0.01992   0.00000  Uiso   1.00
H33    H     0.09867   0.31993   0.24078   0.00000  Uiso   1.00
H34    H     0.00021   0.20039   0.29441   0.00000  Uiso   1.00
H35    H     0.30181   0.26092   0.43414   0.00000  Uiso   1.00
H36    H     0.00422   0.25250   0.01219   0.00000  Uiso   1.00
H37    H     0.13296   0.13621   0.08390   0.00000  Uiso   1.00
H38    H     0.01780   0.12295   0.39985   0.00000  Uiso   1.00
H39    H     0.05943   0.13431   0.04786   0.00000  Uiso   1.00
H40    H     0.22367   0.23887   0.38257   0.00000  Uiso   1.00
N41    N     0.31574   0.18074   0.26416   0.00000  Uiso   1.00
N42    N     0.01759   0.15259   0.23584   0.00000  Uiso   1.00
O43    O     0.12797   0.23807   0.24633   0.00000  Uiso   1.00
O44    O     0.30492   0.10121   0.49538   0.00000  Uiso   1.00
O45    O     0.22858   0.24755   0.25586   0.00000  Uiso   1.00
O46    O     0.09181   0.15960   0.31839   0.00000  Uiso   1.00
O47    O     0.19242   0.16908   0.32793   0.00000  Uiso   1.00
O48    O     0.10476   0.08578   0.24413   0.00000  Uiso   1.00
O49    O     0.20536   0.09526   0.25367   0.00000  Uiso   1.00
O50    O     0.14092   0.16425   0.17207   0.00000  Uiso   1.00
O51    O     0.24152   0.17373   0.18160   0.00000  Uiso   1.00
O52    O     0.33027   0.13199   0.19340   0.00000  Uiso   1.00
C53    C     0.51497   0.26672   0.25192   0.00000  Uiso   1.00
C54    C     0.44581   0.16457   0.40348   0.00000  Uiso   1.00
C55    C     0.52286   0.32272   0.25376   0.00000  Uiso   1.00
C56    C     0.46654   0.16589   0.34726   0.00000  Uiso   1.00
C57    C     0.47650   0.01054   0.24728   0.00000  Uiso   1.00
C58    C     0.48484   0.06660   0.24845   0.00000  Uiso   1.00
C59    C     0.53384   0.17036   0.15298   0.00000  Uiso   1.00
C60    C     0.62545   0.22763   0.02739   0.00000  Uiso   1.00
C61    C     0.55410   0.17925   0.09796   0.00000  Uiso   1.00
C62    C     0.38465   0.13731   0.42421   0.00000  Uiso   1.00
C63    C     0.36652   0.12601   0.47597   0.00000  Uiso   1.00
C64    C     0.47248   0.16899   0.48799   0.00000  Uiso   1.00
C65    C     0.41000   0.14196   0.00772   0.00000  Uiso   1.00
C66    C     0.34436   0.08198   0.18293   0.00000  Uiso   1.00
C67    C     0.63643   0.05018   0.01062   0.00000  Uiso   1.00
C68    C     0.48843   0.18452   0.43632   0.00000  Uiso   1.00
C69    C     0.51946   0.18185   0.01807   0.00000  Uiso   1.00
C70    C     0.57894   0.21438   0.49796   0.00000  Uiso   1.00
C71    C     0.59089   0.23431   0.44919   0.00000  Uiso   1.00
C72    C     0.54615   0.22021   0.41908   0.00000  Uiso   1.00
C73    C     0.50934   0.16300   0.06751   0.00000  Uiso   1.00
C74    C     0.61293   0.21044   0.07737   0.00000  Uiso   1.00
Cu75   Cu    0.44043   0.16105   0.24435   0.00000  Uiso   1.00
Cu76   Cu    0.55957   0.17228   0.25564   0.00000  Uiso   1.00
H77    H     0.64802   0.22343   0.10053   0.00000  Uiso   1.00
H78    H     0.56701   0.01330   0.26077   0.00000  Uiso   1.00
H79    H     0.66655   0.05857   0.21804   0.00000  Uiso   1.00
H80    H     0.39382   0.08511   0.16284   0.00000  Uiso   1.00
H81    H     0.64796   0.05988   0.15673   0.00000  Uiso   1.00
H82    H     0.65570   0.05184   0.04575   0.00000  Uiso   1.00
H83    H     0.66164   0.02739   0.47934   0.00000  Uiso   1.00
H84    H     0.58671   0.02841   0.01992   0.00000  Uiso   1.00
H85    H     0.43200   0.31993   0.24078   0.00000  Uiso   1.00
H86    H     0.33354   0.20039   0.29441   0.00000  Uiso   1.00
H87    H     0.63514   0.26092   0.43414   0.00000  Uiso   1.00
H88    H     0.33756   0.25250   0.01219   0.00000  Uiso   1.00
H89    H     0.46630   0.13621   0.08390   0.00000  Uiso   1.00
H90    H     0.35113   0.12295   0.39985   0.00000  Uiso   1.00
H91    H     0.39276   0.13431   0.04786   0.00000  Uiso   1.00
H92    H     0.55700   0.23887   0.38257   0.00000  Uiso   1.00
N93    N     0.64908   0.18074   0.26416   0.00000  Uiso   1.00
N94    N     0.35092   0.15259   0.23584   0.00000  Uiso   1.00
O95    O     0.46131   0.23807   0.24633   0.00000  Uiso   1.00
O96    O     0.63825   0.10121   0.49538   0.00000  Uiso   1.00
O97    O     0.56191   0.24755   0.25586   0.00000  Uiso   1.00
O98    O     0.42515   0.15960   0.31839   0.00000  Uiso   1.00
O99    O     0.52575   0.16908   0.32793   0.00000  Uiso   1.00
O100   O     0.43809   0.08578   0.24413   0.00000  Uiso   1.00
O101   O     0.53869   0.09526   0.25367   0.00000  Uiso   1.00
O102   O     0.47425   0.16425   0.17207   0.00000  Uiso   1.00
O103   O     0.57485   0.17373   0.18160   0.00000  Uiso   1.00
O104   O     0.66360   0.13199   0.19340   0.00000  Uiso   1.00
C105   C     0.84831   0.26672   0.25192   0.00000  Uiso   1.00
C106   C     0.77915   0.16457   0.40348   0.00000  Uiso   1.00
C107   C     0.85619   0.32272   0.25376   0.00000  Uiso   1.00
C108   C     0.79988   0.16589   0.34726   0.00000  Uiso   1.00
C109   C     0.80983   0.01054   0.24728   0.00000  Uiso   1.00
C110   C     0.81818   0.06660   0.24845   0.00000  Uiso   1.00
C111   C     0.86717   0.17036   0.15298   0.00000  Uiso   1.00
C112   C     0.95878   0.22763   0.02739   0.00000  Uiso   1.00
C113   C     0.88743   0.17925   0.09796   0.00000  Uiso   1.00
C114   C     0.71798   0.13731   0.42421   0.00000  Uiso   1.00
C115   C     0.69986   0.12601   0.47597   0.00000  Uiso   1.00
C116   C     0.80581   0.16899   0.48799   0.00000  Uiso   1.00
C117   C     0.74333   0.14196   0.00772   0.00000  Uiso   1.00
C118   C     0.67769   0.08198   0.18293   0.00000  Uiso   1.00
C119   C     0.96977   0.05018   0.01062   0.00000  Uiso   1.00
C120   C     0.82176   0.18452   0.43632   0.00000  Uiso   1.00
C121   C     0.85279   0.18185   0.01807   0.00000  Uiso   1.00
C122   C     0.91228   0.21438   0.49796   0.00000  Uiso   1.00
C123   C     0.92423   0.23431   0.44919   0.00000  Uiso   1.00
C124   C     0.87948   0.22021   0.41908   0.00000  Uiso   1.00
C125   C     0.84268   0.16300   0.06751   0.00000  Uiso   1.00
C126   C     0.94626   0.21044   0.07737   0.00000  Uiso   1.00
Cu127  Cu    0.77377   0.16105   0.24435   0.00000  Uiso   1.00
Cu128  Cu    0.89290   0.17228   0.25564   0.00000  Uiso   1.00
H129   H     0.98135   0.22343   0.10053   0.00000  Uiso   1.00
H130   H     0.90034   0.01330   0.26077   0.00000  Uiso   1.00
H131   H     0.99989   0.05857   0.21804   0.00000  Uiso   1.00
H132   H     0.72715   0.08511   0.16284   0.00000  Uiso   1.00
H133   H     0.98129   0.05988   0.15673   0.00000  Uiso   1.00
H134   H     0.98903   0.05184   0.04575   0.00000  Uiso   1.00
H135   H     0.99498   0.02739   0.47934   0.00000  Uiso   1.00
H136   H     0.92004   0.02841   0.01992   0.00000  Uiso   1.00
H137   H     0.76533   0.31993   0.24078   0.00000  Uiso   1.00
H138   H     0.66688   0.20039   0.29441   0.00000  Uiso   1.00
H139   H     0.96848   0.26092   0.43414   0.00000  Uiso   1.00
H140   H     0.67089   0.25250   0.01219   0.00000  Uiso   1.00
H141   H     0.79963   0.13621   0.08390   0.00000  Uiso   1.00
H142   H     0.68446   0.12295   0.39985   0.00000  Uiso   1.00
H143   H     0.72609   0.13431   0.04786   0.00000  Uiso   1.00
H144   H     0.89033   0.23887   0.38257   0.00000  Uiso   1.00
N145   N     0.98241   0.18074   0.26416   0.00000  Uiso   1.00
N146   N     0.68426   0.15259   0.23584   0.00000  Uiso   1.00
O147   O     0.79464   0.23807   0.24633   0.00000  Uiso   1.00
O148   O     0.97158   0.10121   0.49538   0.00000  Uiso   1.00
O149   O     0.89524   0.24755   0.25586   0.00000  Uiso   1.00
O150   O     0.75848   0.15960   0.31839   0.00000  Uiso   1.00
O151   O     0.85908   0.16908   0.32793   0.00000  Uiso   1.00
O152   O     0.77142   0.08578   0.24413   0.00000  Uiso   1.00
O153   O     0.87203   0.09526   0.25367   0.00000  Uiso   1.00
O154   O     0.80758   0.16425   0.17207   0.00000  Uiso   1.00
O155   O     0.90819   0.17373   0.18160   0.00000  Uiso   1.00
O156   O     0.99693   0.13199   0.19340   0.00000  Uiso   1.00
C157   C     0.18164   0.60005   0.25192   0.00000  Uiso   1.00
C158   C     0.11248   0.49791   0.40348   0.00000  Uiso   1.00
C159   C     0.18952   0.65605   0.25376   0.00000  Uiso   1.00
C160   C     0.13321   0.49923   0.34726   0.00000  Uiso   1.00
C161   C     0.14316   0.34388   0.24728   0.00000  Uiso   1.00
C162   C     0.15151   0.39993   0.24845   0.00000  Uiso   1.00
C163   C     0.20051   0.50370   0.15298   0.00000  Uiso   1.00
C164   C     0.29212   0.56096   0.02739   0.00000  Uiso   1.00
C165   C     0.22076   0.51258   0.09796   0.00000  Uiso   1.00
C166   C     0.05131   0.47064   0.42421   0.00000  Uiso   1.00
C167   C     0.03319   0.45935   0.47597   0.00000  Uiso   1.00
C168   C     0.13915   0.50233   0.48799   0.00000  Uiso   1.00
C169   C     0.07666   0.47530   0.00772   0.00000  Uiso   1.00
C170   C     0.01102   0.41531   0.18293   0.00000  Uiso   1.00
C171   C     0.30310   0.38351   0.01062   0.00000  Uiso   1.00
C172   C     0.15510   0.51785   0.43632   0.00000  Uiso   1.00
C173   C     0.18612   0.51519   0.01807   0.00000  Uiso   1.00
C174   C     0.24561   0.54771   0.49796   0.00000  Uiso   1.00
C175   C     0.25756   0.56764   0.44919   0.00000  Uiso   1.00
C176   C     0.21281   0.55355   0.41908   0.00000  Uiso   1.00
C177   C     0.17601   0.49634   0.06751   0.00000  Uiso   1.00
C178   C     0.27960   0.54377   0.07737   0.00000  Uiso   1.00
Cu179  Cu    0.10710   0.49439   0.24435   0.00000  Uiso   1.00
Cu180  Cu    0.22623   0.50561   0.25564   0.00000  Uiso   1.00
H181   H     0.31468   0.55676   0.10053   0.00000  Uiso   1.00
H182   H     0.23368   0.34664   0.26077   0.00000  Uiso   1.00
H183   H     0.33322   0.39190   0.21804   0.00000  Uiso   1.00
H184   H     0.06048   0.41845   0.16284   0.00000  Uiso   1.00
H185   H     0.31462   0.39321   0.15673   0.00000  Uiso   1.00
H186   H     0.32236   0.38518   0.04575   0.00000  Uiso   1.00
H187   H     0.32831   0.36072   0.47934   0.00000  Uiso   1.00
H188   H     0.25337   0.36175   0.01992   0.00000  Uiso   1.00
H189   H     0.09867   0.65326   0.24078   0.00000  Uiso   1.00
H190   H     0.00021   0.53373   0.29441   0.00000  Uiso   1.00
H191   H     0.30181   0.59425   0.43414   0.00000  Uiso   1.00
H192   H     0.00422   0.58583   0.01219   0.00000  Uiso   1.00
H193   H     0.13296   0.46955   0.08390   0.00000  Uiso   1.00
H194   H     0.01780   0.45629   0.39985   0.00000  Uiso   1.00
H195   H     0.05943   0.46764   0.04786   0.00000  Uiso   1.00
H196   H     0.22367   0.57221   0.38257   0.00000  Uiso   1.00
N197   N     0.31574   0.51407   0.26416   0.00000  Uiso   1.00
N198   N     0.01759   0.48593   0.23584   0.00000  Uiso   1.00
O199   O     0.12797   0.57141   0.24633   0.00000  Uiso   1.00
O200   O     0.30492   0.43454   0.49538   0.00000  Uiso   1.00
O201   O     0.22858   0.58089   0.25586   0.00000  Uiso   1.00
O202   O     0.09181   0.49293   0.31839   0.00000  Uiso   1.00
O203   O     0.19242   0.50241   0.32793   0.00000  Uiso   1.00
O204   O     0.10476   0.41911   0.24413   0.00000  Uiso   1.00
O205   O     0.20536   0.42859   0.25367   0.00000  Uiso   1.00
O206   O     0.14092   0.49759   0.17207   0.00000  Uiso   1.00
O207   O     0.24152   0.50707   0.18160   0.00000  Uiso   1.00
O208   O     0.33027   0.46532   0.19340   0.00000  Uiso   1.00
C209   C     0.51497   0.60005   0.25192   0.00000  Uiso   1.00
C210   C     0.44581   0.49791   0.40348   0.00000  Uiso   1.00
C211   C     0.52286   0.65605   0.25376   0.00000  Uiso   1.00
C212   C     0.46654   0.49923   0.34726   0.00000  Uiso   1.00
C213   C     0.47650   0.34388   0.24728   0.00000  Uiso   1.00
C214   C     0.48484   0.39993   0.24845   0.00000  Uiso   1.00
C215   C     0.53384   0.50370   0.15298   0.00000  Uiso   1.00
C216   C     0.62545   0.56096   0.02739   0.00000  Uiso   1.00
C217   C     0.55410   0.51258   0.09796   0.00000  Uiso   1.00
C218   C     0.38465   0.47064   0.42421   0.00000  Uiso   1.00
C219   C     0.36652   0.45935   0.47597   0.00000  Uiso   1.00
C220   C     0.47248   0.50233   0.48799   0.00000  Uiso   1.00
C221   C     0.41000   0.47530   0.00772   0.00000  Uiso   1.00
C222   C     0.34436   0.41531   0.18293   0.00000  Uiso   1.00
C223   C     0.63643   0.38351   0.01062   0.00000  Uiso   1.00
C224   C     0.48843   0.51785   0.43632   0.00000  Uiso   1.00
C225   C     0.51946   0.51519   0.01807   0.00000  Uiso   1.00
C226   C     0.57894   0.54771   0.49796   0.00000  Uiso   1.00
C227   C     0.59089   0.56764   0.44919   0.00000  Uiso   1.00
C228   C     0.54615   0.55355   0.41908   0.00000  Uiso   1.00
C229   C     0.50934   0.49634   0.06751   0.00000  Uiso   1.00
C230   C     0.61293   0.54377   0.07737   0.00000  Uiso   1.00
Cu231  Cu    0.44043   0.49439   0.24435   0.00000  Uiso   1.00
Cu232  Cu    0.55957   0.50561   0.25564   0.00000  Uiso   1.00
H233   H     0.64802   0.55676   0.10053   0.00000  Uiso   1.00
H234   H     0.56701   0.34664   0.26077   0.00000  Uiso   1.00
H235   H     0.66655   0.39190   0.21804   0.00000  Uiso   1.00
H236   H     0.39382   0.41845   0.16284   0.00000  Uiso   1.00
H237   H     0.64796   0.39321   0.15673   0.00000  Uiso   1.00
H238   H     0.65570   0.38518   0.04575   0.00000  Uiso   1.00
H239   H     0.66164   0.36072   0.47934   0.00000  Uiso   1.00
H240   H     0.58671   0.36175   0.01992   0.00000  Uiso   1.00
H241   H     0.43200   0.65326   0.24078   0.00000  Uiso   1.00
H242   H     0.33354   0.53373   0.29441   0.00000  Uiso   1.00
H243   H     0.63514   0.59425   0.43414   0.00000  Uiso   1.00
H244   H     0.33756   0.58583   0.01219   0.00000  Uiso   1.00
H245   H     0.46630   0.46955   0.08390   0.00000  Uiso   1.00
H246   H     0.35113   0.45629   0.39985   0.00000  Uiso   1.00
H247   H     0.39276   0.46764   0.04786   0.00000  Uiso   1.00
H248   H     0.55700   0.57221   0.38257   0.00000  Uiso   1.00
N249   N     0.64908   0.51407   0.26416   0.00000  Uiso   1.00
N250   N     0.35092   0.48593   0.23584   0.00000  Uiso   1.00
O251   O     0.46131   0.57141   0.24633   0.00000  Uiso   1.00
O252   O     0.63825   0.43454   0.49538   0.00000  Uiso   1.00
O253   O     0.56191   0.58089   0.25586   0.00000  Uiso   1.00
O254   O     0.42515   0.49293   0.31839   0.00000  Uiso   1.00
O255   O     0.52575   0.50241   0.32793   0.00000  Uiso   1.00
O256   O     0.43809   0.41911   0.24413   0.00000  Uiso   1.00
O257   O     0.53869   0.42859   0.25367   0.00000  Uiso   1.00
O258   O     0.47425   0.49759   0.17207   0.00000  Uiso   1.00
O259   O     0.57485   0.50707   0.18160   0.00000  Uiso   1.00
O260   O     0.66360   0.46532   0.19340   0.00000  Uiso   1.00
C261   C     0.84831   0.60005   0.25192   0.00000  Uiso   1.00
C262   C     0.77915   0.49791   0.40348   0.00000  Uiso   1.00
C263   C     0.85619   0.65605   0.25376   0.00000  Uiso   1.00
C264   C     0.79988   0.49923   0.34726   0.00000  Uiso   1.00
C265   C     0.80983   0.34388   0.24728   0.00000  Uiso   1.00
C266   C     0.81818   0.39993   0.24845   0.00000  Uiso   1.00
C267   C     0.86717   0.50370   0.15298   0.00000  Uiso   1.00
C268   C     0.95878   0.56096   0.02739   0.00000  Uiso   1.00
C269   C     0.88743   0.51258   0.09796   0.00000  Uiso   1.00
C270   C     0.71798   0.47064   0.42421   0.00000  Uiso   1.00
C271   C     0.69986   0.45935   0.47597   0.00000  Uiso   1.00
C272   C     0.80581   0.50233   0.48799   0.00000  Uiso   1.00
C273   C     0.74333   0.47530   0.00772   0.00000  Uiso   1.00
C274   C     0.67769   0.41531   0.18293   0.00000  Uiso   1.00
C275   C     0.96977   0.38351   0.01062   0.00000  Uiso   1.00
C276   C     0.82176   0.51785   0.43632   0.00000  Uiso   1.00
C277   C     0.85279   0.51519   0.01807   0.00000  Uiso   1.00
C278   C     0.91228   0.54771   0.49796   0.00000  Uiso   1.00
C279   C     0.92423   0.56764   0.44919   0.00000  Uiso   1.00
C280   C     0.87948   0.55355   0.41908   0.00000  Uiso   1.00
C281   C     0.84268   0.49634   0.06751   0.00000  Uiso   1.00
C282   C     0.94626   0.54377   0.07737   0.00000  Uiso   1.00
Cu283  Cu    0.77377   0.49439   0.24435   0.00000  Uiso   1.00
Cu284  Cu    0.89290   0.50561   0.25564   0.00000  Uiso   1.00
H285   H     0.98135   0.55676   0.10053   0.00000  Uiso   1.00
H286   H     0.90034   0.34664   0.26077   0.00000  Uiso   1.00
H287   H     0.99989   0.39190   0.21804   0.00000  Uiso   1.00
H288   H     0.72715   0.41845   0.16284   0.00000  Uiso   1.00
H289   H     0.98129   0.39321   0.15673   0.00000  Uiso   1.00
H290   H     0.98903   0.38518   0.04575   0.00000  Uiso   1.00
H291   H     0.99498   0.36072   0.47934   0.00000  Uiso   1.00
H292   H     0.92004   0.36175   0.01992   0.00000  Uiso   1.00
H293   H     0.76533   0.65326   0.24078   0.00000  Uiso   1.00
H294   H     0.66688   0.53373   0.29441   0.00000  Uiso   1.00
H295   H     0.96848   0.59425   0.43414   0.00000  Uiso   1.00
H296   H     0.67089   0.58583   0.01219   0.00000  Uiso   1.00
H297   H     0.79963   0.46955   0.08390   0.00000  Uiso   1.00
H298   H     0.68446   0.45629   0.39985   0.00000  Uiso   1.00
H299   H     0.72609   0.46764   0.04786   0.00000  Uiso   1.00
H300   H     0.89033   0.57221   0.38257   0.00000  Uiso   1.00
N301   N     0.98241   0.51407   0.26416   0.00000  Uiso   1.00
N302   N     0.68426   0.48593   0.23584   0.00000  Uiso   1.00
O303   O     0.79464   0.57141   0.24633   0.00000  Uiso   1.00
O304   O     0.97158   0.43454   0.49538   0.00000  Uiso   1.00
O305   O     0.89524   0.58089   0.25586   0.00000  Uiso   1.00
O306   O     0.75848   0.49293   0.31839   0.00000  Uiso   1.00
O307   O     0.85908   0.50241   0.32793   0.00000  Uiso   1.00
O308   O     0.77142   0.41911   0.24413   0.00000  Uiso   1.00
O309   O     0.87203   0.42859   0.25367   0.00000  Uiso   1.00
O310   O     0.80758   0.49759   0.17207   0.00000  Uiso   1.00
O311   O     0.90819   0.50707   0.18160   0.00000  Uiso   1.00
O312   O     0.99693   0.46532   0.19340   0.00000  Uiso   1.00
C313   C     0.18164   0.93339   0.25192   0.00000  Uiso   1.00
C314   C     0.11248   0.83124   0.40348   0.00000  Uiso   1.00
C315   C     0.18952   0.98939   0.25376   0.00000  Uiso   1.00
C316   C     0.13321   0.83256   0.34726   0.00000  Uiso   1.00
C317   C     0.14316   0.67721   0.24728   0.00000  Uiso   1.00
C318   C     0.15151   0.73326   0.24845   0.00000  Uiso   1.00
C319   C     0.20051   0.83703   0.15298   0.00000  Uiso   1.00
C320   C     0.29212   0.89430   0.02739   0.00000  Uiso   1.00
C321   C     0.22076   0.84592   0.09796   0.00000  Uiso   1.00
C322   C     0.05131   0.80398   0.42421   0.00000  Uiso   1.00
C323   C     0.03319   0.79268   0.47597   0.00000  Uiso   1.00
C324   C     0.13915   0.83566   0.48799   0.00000  Uiso   1.00
C325   C     0.07666   0.80863   0.00772   0.00000  Uiso   1.00
C326   C     0.01102   0.74865   0.18293   0.00000  Uiso   1.00
C327   C     0.30310   0.71684   0.01062   0.00000  Uiso   1.00
C328   C     0.15510   0.85118   0.43632   0.00000  Uiso   1.00
C329   C     0.18612   0.84852   0.01807   0.00000  Uiso   1.00
C330   C     0.24561   0.88104   0.49796   0.00000  Uiso   1.00
C331   C     0.25756   0.90098   0.44919   0.00000  Uiso   1.00
C332   C     0.21281   0.88688   0.41908   0.00000  Uiso   1.00
C333   C     0.17601   0.82967   0.06751   0.00000  Uiso   1.00
C334   C     0.27960   0.87710   0.07737   0.00000  Uiso   1.00
Cu335  Cu    0.10710   0.82772   0.24435   0.00000  Uiso   1.00
Cu336  Cu    0.22623   0.83895   0.25564   0.00000  Uiso   1.00
H337   H     0.31468   0.89010   0.10053   0.00000  Uiso   1.00
H338   H     0.23368   0.67997   0.26077   0.00000  Uiso   1.00
H339   H     0.33322   0.72523   0.21804   0.00000  Uiso   1.00
H340   H     0.06048   0.75178   0.16284   0.00000  Uiso   1.00
H341   H     0.31462   0.72655   0.15673   0.00000  Uiso   1.00
H342   H     0.32236   0.71851   0.04575   0.00000  Uiso   1.00
H343   H     0.32831   0.69405   0.47934   0.00000  Uiso   1.00
H344   H     0.25337   0.69508   0.01992   0.00000  Uiso   1.00
H345   H     0.09867   0.98660   0.24078   0.00000  Uiso   1.00
H346   H     0.00021   0.86706   0.29441   0.00000  Uiso   1.00
H347   H     0.30181   0.92758   0.43414   0.00000  Uiso   1.00
H348   H     0.00422   0.91916   0.01219   0.00000  Uiso   1.00
H349   H     0.13296   0.80288   0.08390   0.00000  Uiso   1.00
H350   H     0.01780   0.78962   0.39985   0.00000  Uiso   1.00
H351   H     0.05943   0.80097   0.04786   0.00000  Uiso   1.00
H352   H     0.22367   0.90554   0.38257   0.00000  Uiso   1.00
N353   N     0.31574   0.84741   0.26416   0.00000  Uiso   1.00
N354   N     0.01759   0.81926   0.23584   0.00000  Uiso   1.00
O355   O     0.12797   0.90474   0.24633   0.00000  Uiso   1.00
O356   O     0.30492   0.76787   0.49538   0.00000  Uiso   1.00
O357   O     0.22858   0.91422   0.25586   0.00000  Uiso   1.00
O358   O     0.09181   0.82627   0.31839   0.00000  Uiso   1.00
O359   O     0.19242   0.83575   0.32793   0.00000  Uiso   1.00
O360   O     0.10476   0.75245   0.24413   0.00000  Uiso   1.00
O361   O     0.20536   0.76193   0.25367   0.00000  Uiso   1.00
O362   O     0.14092   0.83092   0.17207   0.00000  Uiso   1.00
O363   O     0.24152   0.84040   0.18160   0.00000  Uiso   1.00
O364   O     0.33027   0.79866   0.19340   0.00000  Uiso   1.00
C365   C     0.51497   0.93339   0.25192   0.00000  Uiso   1.00
C366   C     0.44581   0.83124   0.40348   0.00000  Uiso   1.00
C367   C     0.52286   0.98939   0.25376   0.00000  Uiso   1.00
C368   C     0.46654   0.83256   0.34726   0.00000  Uiso   1.00
C369   C     0.47650   0.67721   0.24728   0.00000  Uiso   1.00
C370   C     0.48484   0.73326   0.24845   0.00000  Uiso   1.00
C371   C     0.53384   0.83703   0.15298   0.00000  Uiso   1.00
C372   C     0.62545   0.89430   0.02739   0.00000  Uiso   1.00
C373   C     0.55410   0.84592   0.09796   0.00000  Uiso   1.00
C374   C     0.38465   0.80398   0.42421   0.00000  Uiso   1.00
C375   C     0.36652   0.79268   0.47597   0.00000  Uiso   1.00
C376   C     0.47248   0.83566   0.48799   0.00000  Uiso   1.00
C377   C     0.41000   0.80863   0.00772   0.00000  Uiso   1.00
C378   C     0.34436   0.74865   0.18293   0.00000  Uiso   1.00
C379   C     0.63643   0.71684   0.01062   0.00000  Uiso   1.00
C380   C     0.48843   0.85118   0.43632   0.00000  Uiso   1.00
C381   C     0.51946   0.84852   0.01807   0.00000  Uiso   1.00
C382   C     0.57894   0.88104   0.49796   0.00000  Uiso   1.00
C383   C     0.59089   0.90098   0.44919   0.00000  Uiso   1.00
C384   C     0.54615   0.88688   0.41908   0.00000  Uiso   1.00
C385   C     0.50934   0.82967   0.06751   0.00000  Uiso   1.00
C386   C     0.61293   0.87710   0.07737   0.00000  Uiso   1.00
Cu387  Cu    0.44043   0.82772   0.24435   0.00000  Uiso   1.00
Cu388  Cu    0.55957   0.83895   0.25564   0.00000  Uiso   1.00
H389   H     0.64802   0.89010   0.10053   0.00000  Uiso   1.00
H390   H     0.56701   0.67997   0.26077   0.00000  Uiso   1.00
H391   H     0.66655   0.72523   0.21804   0.00000  Uiso   1.00
H392   H     0.39382   0.75178   0.16284   0.00000  Uiso   1.00
H393   H     0.64796   0.72655   0.15673   0.00000  Uiso   1.00
H394   H     0.65570   0.71851   0.04575   0.00000  Uiso   1.00
H395   H     0.66164   0.69405   0.47934   0.00000  Uiso   1.00
H396   H     0.58671   0.69508   0.01992   0.00000  Uiso   1.00
H397   H     0.43200   0.98660   0.24078   0.00000  Uiso   1.00
H398   H     0.33354   0.86706   0.29441   0.00000  Uiso   1.00
H399   H     0.63514   0.92758   0.43414   0.00000  Uiso   1.00
H400   H     0.33756   0.91916   0.01219   0.00000  Uiso   1.00
H401   H     0.46630   0.80288   0.08390   0.00000  Uiso   1.00
H402   H     0.35113   0.78962   0.39985   0.00000  Uiso   1.00
H403   H     0.39276   0.80097   0.04786   0.00000  Uiso   1.00
H404   H     0.55700   0.90554   0.38257   0.00000  Uiso   1.00
N405   N     0.64908   0.84741   0.26416   0.00000  Uiso   1.00
N406   N     0.35092   0.81926   0.23584   0.00000  Uiso   1.00
O407   O     0.46131   0.90474   0.24633   0.00000  Uiso   1.00
O408   O     0.63825   0.76787   0.49538   0.00000  Uiso   1.00
O409   O     0.56191   0.91422   0.25586   0.00000  Uiso   1.00
O410   O     0.42515   0.82627   0.31839   0.00000  Uiso   1.00
O411   O     0.52575   0.83575   0.32793   0.00000  Uiso   1.00
O412   O     0.43809   0.75245   0.24413   0.00000  Uiso   1.00
O413   O     0.53869   0.76193   0.25367   0.00000  Uiso   1.00
O414   O     0.47425   0.83092   0.17207   0.00000  Uiso   1.00
O415   O     0.57485   0.84040   0.18160   0.00000  Uiso   1.00
O416   O     0.66360   0.79866   0.19340   0.00000  Uiso   1.00
C417   C     0.84831   0.93339   0.25192   0.00000  Uiso   1.00
C418   C     0.77915   0.83124   0.40348   0.00000  Uiso   1.00
C419   C     0.85619   0.98939   0.25376   0.00000  Uiso   1.00
C420   C     0.79988   0.83256   0.34726   0.00000  Uiso   1.00
C421   C     0.80983   0.67721   0.24728   0.00000  Uiso   1.00
C422   C     0.81818   0.73326   0.24845   0.00000  Uiso   1.00
C423   C     0.86717   0.83703   0.15298   0.00000  Uiso   1.00
C424   C     0.95878   0.89430   0.02739   0.00000  Uiso   1.00
C425   C     0.88743   0.84592   0.09796   0.00000  Uiso   1.00
C426   C     0.71798   0.80398   0.42421   0.00000  Uiso   1.00
C427   C     0.69986   0.79268   0.47597   0.00000  Uiso   1.00
C428   C     0.80581   0.83566   0.48799   0.00000  Uiso   1.00
C429   C     0.74333   0.80863   0.00772   0.00000  Uiso   1.00
C430   C     0.67769   0.74865   0.18293   0.00000  Uiso   1.00
C431   C     0.96977   0.71684   0.01062   0.00000  Uiso   1.00
C432   C     0.82176   0.85118   0.43632   0.00000  Uiso   1.00
C433   C     0.85279   0.84852   0.01807   0.00000  Uiso   1.00
C434   C     0.91228   0.88104   0.49796   0.00000  Uiso   1.00
C435   C     0.92423   0.90098   0.44919   0.00000  Uiso   1.00
C436   C     0.87948   0.88688   0.41908   0.00000  Uiso   1.00
C437   C     0.84268   0.82967   0.06751   0.00000  Uiso   1.00
C438   C     0.94626   0.87710   0.07737   0.00000  Uiso   1.00
Cu439  Cu    0.77377   0.82772   0.24435   0.00000  Uiso   1.00
Cu440  Cu    0.89290   0.83895   0.25564   0.00000  Uiso   1.00
H441   H     0.98135   0.89010   0.10053   0.00000  Uiso   1.00
H442   H     0.90034   0.67997   0.26077   0.00000  Uiso   1.00
H443   H     0.99989   0.72523   0.21804   0.00000  Uiso   1.00
H444   H     0.72715   0.75178   0.16284   0.00000  Uiso   1.00
H445   H     0.98129   0.72655   0.15673   0.00000  Uiso   1.00
H446   H     0.98903   0.71851   0.04575   0.00000  Uiso   1.00
H447   H     0.99498   0.69405   0.47934   0.00000  Uiso   1.00
H448   H     0.92004   0.69508   0.01992   0.00000  Uiso   1.00
H449   H     0.76533   0.98660   0.24078   0.00000  Uiso   1.00
H450   H     0.66688   0.86706   0.29441   0.00000  Uiso   1.00
H451   H     0.96848   0.92758   0.43414   0.00000  Uiso   1.00
H452   H     0.67089   0.91916   0.01219   0.00000  Uiso   1.00
H453   H     0.79963   0.80288   0.08390   0.00000  Uiso   1.00
H454   H     0.68446   0.78962   0.39985   0.00000  Uiso   1.00
H455   H     0.72609   0.80097   0.04786   0.00000  Uiso   1.00
H456   H     0.89033   0.90554   0.38257   0.00000  Uiso   1.00
N457   N     0.98241   0.84741   0.26416   0.00000  Uiso   1.00
N458   N     0.68426   0.81926   0.23584   0.00000  Uiso   1.00
O459   O     0.79464   0.90474   0.24633   0.00000  Uiso   1.00
O460   O     0.97158   0.76787   0.49538   0.00000  Uiso   1.00
O461   O     0.89524   0.91422   0.25586   0.00000  Uiso   1.00
O462   O     0.75848   0.82627   0.31839   0.00000  Uiso   1.00
O463   O     0.85908   0.83575   0.32793   0.00000  Uiso   1.00
O464   O     0.77142   0.75245   0.24413   0.00000  Uiso   1.00
O465   O     0.87203   0.76193   0.25367   0.00000  Uiso   1.00
O466   O     0.80758   0.83092   0.17207   0.00000  Uiso   1.00
O467   O     0.90819   0.84040   0.18160   0.00000  Uiso   1.00
O468   O     0.99693   0.79866   0.19340   0.00000  Uiso   1.00
C469   C     0.18164   0.26672   0.75192   0.00000  Uiso   1.00
C470   C     0.11248   0.16457   0.90348   0.00000  Uiso   1.00
C471   C     0.18952   0.32272   0.75376   0.00000  Uiso   1.00
C472   C     0.13321   0.16589   0.84726   0.00000  Uiso   1.00
C473   C     0.14316   0.01054   0.74728   0.00000  Uiso   1.00
C474   C     0.15151   0.06660   0.74845   0.00000  Uiso   1.00
C475   C     0.20051   0.17036   0.65298   0.00000  Uiso   1.00
C476   C     0.29212   0.22763   0.52739   0.00000  Uiso   1.00
C477   C     0.22076   0.17925   0.59796   0.00000  Uiso   1.00
C478   C     0.05131   0.13731   0.92421   0.00000  Uiso   1.00
C479   C     0.03319   0.12601   0.97597   0.00000  Uiso   1.00
C480   C     0.13915   0.16899   0.98799   0.00000  Uiso   1.00
C481   C     0.07666   0.14196   0.50772   0.00000  Uiso   1.00
C482   C     0.01102   0.08198   0.68293   0.00000  Uiso   1.00
C483   C     0.30310   0.05018   0.51062   0.00000  Uiso   1.00
C484   C     0.15510   0.18452   0.93632   0.00000  Uiso   1.00
C485   C     0.18612   0.18185   0.51807   0.00000  Uiso   1.00
C486   C     0.24561   0.21438   0.99796   0.00000  Uiso   1.00
C487   C     0.25756   0.23431   0.94919   0.00000  Uiso   1.00
C488   C     0.21281   0.22021   0.91908   0.00000  Uiso   1.00
C489   C     0.17601   0.16300   0.56751   0.00000  Uiso   1.00
C490   C     0.27960   0.21044   0.57737   0.00000  Uiso   1.00
Cu491  Cu    0.10710   0.16105   0.74435   0.00000  Uiso   1.00
Cu492  Cu    0.22623   0.17228   0.75564   0.00000  Uiso   1.00
H493   H     0.31468   0.22343   0.60053   0.00000  Uiso   1.00
H494   H     0.23368   0.01330   0.76077   0.00000  Uiso   1.00
H495   H     0.33322   0.05857   0.71804   0.00000  Uiso   1.00
H496   H     0.06048   0.08511   0.66284   0.00000  Uiso   1.00
H497   H     0.31462   0.05988   0.65673   0.00000  Uiso   1.00
H498   H     0.32236   0.05184   0.54575   0.00000  Uiso   1.00
H499   H     0.32831   0.02739   0.97934   0.00000  Uiso   1.00
H500   H     0.25337   0.02841   0.51992   0.00000  Uiso   1.00
H501   H     0.09867   0.31993   0.74078   0.00000  Uiso   1.00
H502   H     0.00021   0.20039   0.79441   0.00000  Uiso   1.00
H503   H     0.30181   0.26092   0.93414   0.00000  Uiso   1.00
H504   H     0.00422   0.25250   0.51219   0.00000  Uiso   1.00
H505   H     0.13296   0.13621   0.58390   0.00000  Uiso   1.00
H506   H     0.01780   0.12295   0.89985   0.00000  Uiso   1.00
H507   H     0.05943   0.13431   0.54786   0.00000  Uiso   1.00
H508   H     0.22367   0.23887   0.88257   0.00000  Uiso   1.00
N509   N     0.31574   0.18074   0.76416   0.00000  Uiso   1.00
N510   N     0.01759   0.15259   0.73584   0.00000  Uiso   1.00
O511   O     0.12797   0.23807   0.74633   0.00000  Uiso   1.00
O512   O     0.30492   0.10121   0.99538   0.00000  Uiso   1.00
O513   O     0.22858   0.24755   0.75586   0.00000  Uiso   1.00
O514   O     0.09181   0.15960   0.81839   0.00000  Uiso   1.00
O515   O     0.19242   0.16908   0.82793   0.00000  Uiso   1.00
O516   O     0.10476   0.08578   0.74413   0.00000  Uiso   1.00
O517   O     0.20536   0.09526   0.75367   0.00000  Uiso   1.00
O518   O     0.14092   0.16425   0.67207   0.00000  Uiso   1.00
O519   O     0.24152   0.17373   0.68160   0.00000  Uiso   1.00
O520   O     0.33027   0.13199   0.69340   0.00000  Uiso   1.00
C521   C     0.51497   0.26672   0.75192   0.00000  Uiso   1.00
C522   C     0.44581   0.16457   0.90348   0.00000  Uiso   1.00
C523   C     0.52286   0.32272   0.75376   0.00000  Uiso   1.00
C524   C     0.46654   0.16589   0.84726   0.00000  Uiso   1.00
C525   C     0.47650   0.01054   0.74728   0.00000  Uiso   1.00
C526   C     0.48484   0.06660   0.74845   0.00000  Uiso   1.00
C527   C     0.53384   0.17036   0.65298   0.00000  Uiso   1.00
C528   C     0.62545   0.22763   0.52739   0.00000  Uiso   1.00
C529   C     0.55410   0.17925   0.59796   0.00000  Uiso   1.00
C530   C     0.38465   0.13731   0.92421   0.00000  Uiso   1.00
C531   C     0.36652   0.12601   0.97597   0.00000  Uiso   1.00
C532   C     0.47248   0.16899   0.98799   0.00000  Uiso   1.00
C533   C     0.41000   0.14196   0.50772   0.00000  Uiso   1.00
C534   C     0.34436   0.08198   0.68293   0.00000  Uiso   1.00
C535   C     0.63643   0.05018   0.51062   0.00000  Uiso   1.00
C536   C     0.48843   0.18452   0.93632   0.00000  Uiso   1.00
C537   C     0.51946   0.18185   0.51807   0.00000  Uiso   1.00
C538   C     0.57894   0.21438   0.99796   0.00000  Uiso   1.00
C539   C     0.59089   0.23431   0.94919   0.00000  Uiso   1.00
C540   C     0.54615   0.22021   0.91908   0.00000  Uiso   1.00
C541   C     0.50934   0.16300   0.56751   0.00000  Uiso   1.00
C542   C     0.61293   0.21044   0.57737   0.00000  Uiso   1.00
Cu543  Cu    0.44043   0.16105   0.74435   0.00000  Uiso   1.00
Cu544  Cu    0.55957   0.17228   0.75564   0.00000  Uiso   1.00
H545   H     0.64802   0.22343   0.60053   0.00000  Uiso   1.00
H546   H     0.56701   0.01330   0.76077   0.00000  Uiso   1.00
H547   H     0.66655   0.05857   0.71804   0.00000  Uiso   1.00
H548   H     0.39382   0.08511   0.66284   0.00000  Uiso   1.00
H549   H     0.64796   0.05988   0.65673   0.00000  Uiso   1.00
H550   H     0.65570   0.05184   0.54575   0.00000  Uiso   1.00
H551   H     0.66164   0.02739   0.97934   0.00000  Uiso   1.00
H552   H     0.58671   0.02841   0.51992   0.00000  Uiso   1.00
H553   H     0.43200   0.31993   0.74078   0.00000  Uiso   1.00
H554   H     0.33354   0.20039   0.79441   0.00000  Uiso   1.00
H555   H     0.63514   0.26092   0.93414   0.00000  Uiso   1.00
H556   H     0.33756   0.25250   0.51219   0.00000  Uiso   1.00
H557   H     0.46630   0.13621   0.58390   0.00000  Uiso   1.00
H558   H     0.35113   0.12295   0.89985   0.00000  Uiso   1.00
H559   H     0.39276   0.13431   0.54786   0.00000  Uiso   1.00
H560   H     0.55700   0.23887   0.88257   0.00000  Uiso   1.00
N561   N     0.64908   0.18074   0.76416   0.00000  Uiso   1.00
N562   N     0.35092   0.15259   0.73584   0.00000  Uiso   1.00
O563   O     0.46131   0.23807   0.74633   0.00000  Uiso   1.00
O564   O     0.63825   0.10121   0.99538   0.00000  Uiso   1.00
O565   O     0.56191   0.24755   0.75586   0.00000  Uiso   1.00
O566   O     0.42515   0.15960   0.81839   0.00000  Uiso   1.00
O567   O     0.52575   0.16908   0.82793   0.00000  Uiso   1.00
O568   O     0.43809   0.08578   0.74413   0.00000  Uiso   1.00
O569   O     0.53869   0.09526   0.75367   0.00000  Uiso   1.00
O570   O     0.47425   0.16425   0.67207   0.00000  Uiso   1.00
O571   O     0.57485   0.17373   0.68160   0.00000  Uiso   1.00
O572   O     0.66360   0.13199   0.69340   0.00000  Uiso   1.00
C573   C     0.84831   0.26672   0.75192   0.00000  Uiso   1.00
C574   C     0.77915   0.16457   0.90348   0.00000  Uiso   1.00
C575   C     0.85619   0.32272   0.75376   0.00000  Uiso   1.00
C576   C     0.79988   0.16589   0.84726   0.00000  Uiso   1.00
C577   C     0.80983   0.01054   0.74728   0.00000  Uiso   1.00
C578   C     0.81818   0.06660   0.74845   0.00000  Uiso   1.00
C579   C     0.86717   0.17036   0.65298   0.00000  Uiso   1.00
C580   C     0.95878   0.22763   0.52739   0.00000  Uiso   1.00
C581   C     0.88743   0.17925   0.59796   0.00000  Uiso   1.00
C582   C     0.71798   0.13731   0.92421   0.00000  Uiso   1.00
C583   C     0.69986   0.12601   0.97597   0.00000  Uiso   1.00
C584   C     0.80581   0.16899   0.98799   0.00000  Uiso   1.00
C585   C     0.74333   0.14196   0.50772   0.00000  Uiso   1.00
C586   C     0.67769   0.08198   0.68293   0.00000  Uiso   1.00
C587   C     0.96977   0.05018   0.51062   0.00000  Uiso   1.00
C588   C     0.82176   0.18452   0.93632   0.00000  Uiso   1.00
C589   C     0.85279   0.18185   0.51807   0.00000  Uiso   1.00
C590   C     0.91228   0.21438   0.99796   0.00000  Uiso   1.00
C591   C     0.92423   0.23431   0.94919   0.00000  Uiso   1.00
C592   C     0.87948   0.22021   0.91908   0.00000  Uiso   1.00
C593   C     0.84268   0.16300   0.56751   0.00000  Uiso   1.00
C594   C     0.94626   0.21044   0.57737   0.00000  Uiso   1.00
Cu595  Cu    0.77377   0.16105   0.74435   0.00000  Uiso   1.00
Cu596  Cu    0.89290   0.17228   0.75564   0.00000  Uiso   1.00
H597   H     0.98135   0.22343   0.60053   0.00000  Uiso   1.00
H598   H     0.90034   0.01330   0.76077   0.00000  Uiso   1.00
H599   H     0.99989   0.05857   0.71804   0.00000  Uiso   1.00
H600   H     0.72715   0.08511   0.66284   0.00000  Uiso   1.00
H601   H     0.98129   0.05988   0.65673   0.00000  Uiso   1.00
H602   H     0.98903   0.05184   0.54575   0.00000  Uiso   1.00
H603   H     0.99498   0.02739   0.97934   0.00000  Uiso   1.00
H604   H     0.92004   0.02841   0.51992   0.00000  Uiso   1.00
H605   H     0.76533   0.31993   0.74078   0.00000  Uiso   1.00
H606   H     0.66688   0.20039   0.79441   0.00000  Uiso   1.00
H607   H     0.96848   0.26092   0.93414   0.00000  Uiso   1.00
H608   H     0.67089   0.25250   0.51219   0.00000  Uiso   1.00
H609   H     0.79963   0.13621   0.58390   0.00000  Uiso   1.00
H610   H     0.68446   0.12295   0.89985   0.00000  Uiso   1.00
H611   H     0.72609   0.13431   0.54786   0.00000  Uiso   1.00
H612   H     0.89033   0.23887   0.88257   0.00000  Uiso   1.00
N613   N     0.98241   0.18074   0.76416   0.00000  Uiso   1.00
N614   N     0.68426   0.15259   0.73584   0.00000  Uiso   1.00
O615   O     0.79464   0.23807   0.74633   0.00000  Uiso   1.00
O616   O     0.97158   0.10121   0.99538   0.00000  Uiso   1.00
O617   O     0.89524   0.24755   0.75586   0.00000  Uiso   1.00
O618   O     0.75848   0.15960   0.81839   0.00000  Uiso   1.00
O619   O     0.85908   0.16908   0.82793   0.00000  Uiso   1.00
O620   O     0.77142   0.08578   0.74413   0.00000  Uiso   1.00
O621   O     0.87203   0.09526   0.75367   0.00000  Uiso   1.00
O622   O     0.80758   0.16425   0.67207   0.00000  Uiso   1.00
O623   O     0.90819   0.17373   0.68160   0.00000  Uiso   1.00
O624   O     0.99693   0.13199   0.69340   0.00000  Uiso   1.00
C625   C     0.18164   0.60005   0.75192   0.00000  Uiso   1.00
C626   C     0.11248   0.49791   0.90348   0.00000  Uiso   1.00
C627   C     0.18952   0.65605   0.75376   0.00000  Uiso   1.00
C628   C     0.13321   0.49923   0.84726   0.00000  Uiso   1.00
C629   C     0.14316   0.34388   0.74728   0.00000  Uiso   1.00
C630   C     0.15151   0.39993   0.74845   0.00000  Uiso   1.00
C631   C     0.20051   0.50370   0.65298   0.00000  Uiso   1.00
C632   C     0.29212   0.56096   0.52739   0.00000  Uiso   1.00
C633   C     0.22076   0.51258   0.59796   0.00000  Uiso   1.00
C634   C     0.05131   0.47064   0.92421   0.00000  Uiso   1.00
C635   C     0.03319   0.45935   0.97597   0.00000  Uiso   1.00
C636   C     0.13915   0.50233   0.98799   0.00000  Uiso   1.00
C637   C     0.07666   0.47530   0.50772   0.00000  Uiso   1.00
C638   C     0.01102   0.41531   0.68293   0.00000  Uiso   1.00
C639   C     0.30310   0.38351   0.51062   0.00000  Uiso   1.00
C640   C     0.15510   0.51785   0.93632   0.00000  Uiso   1.00
C641   C     0.18612   0.51519   0.51807   0.00000  Uiso   1.00
C642   C     0.24561   0.54771   0.99796   0.00000  Uiso   1.00
C643   C     0.25756   0.56764   0.94919   0.00000  Uiso   1.00
C644   C     0.21281   0.55355   0.91908   0.00000  Uiso   1.00
C645   C     0.17601   0.49634   0.56751   0.00000  Uiso   1.00
C646   C     0.27960   0.54377   0.57737   0.00000  Uiso   1.00
Cu647  Cu    0.10710   0.49439   0.74435   0.00000  Uiso   1.00
Cu648  Cu    0.22623   0.50561   0.75564   0.00000  Uiso   1.00
H649   H     0.31468   0.55676   0.60053   0.00000  Uiso   1.00
H650   H     0.23368   0.34664   0.76077   0.00000  Uiso   1.00
H651   H     0.33322   0.39190   0.71804   0.00000  Uiso   1.00
H652   H     0.06048   0.41845   0.66284   0.00000  Uiso   1.00
H653   H     0.31462   0.39321   0.65673   0.00000  Uiso   1.00
H654   H     0.32236   0.38518   0.54575   0.00000  Uiso   1.00
H655   H     0.32831   0.36072   0.97934   0.00000  Uiso   1.00
H656   H     0.25337   0.36175   0.51992   0.00000  Uiso   1.00
H657   H     0.09867   0.65326   0.74078   0.00000  Uiso   1.00
H658   H     0.00021   0.53373   0.79441   0.00000  Uiso   1.00
H659   H     0.30181   0.59425   0.93414   0.00000  Uiso   1.00
H660   H     0.00422   0.58583   0.51219   0.00000  Uiso   1.00
H661   H     0.13296   0.46955   0.58390   0.00000  Uiso   1.00
H662   H     0.01780   0.45629   0.89985   0.00000  Uiso   1.00
H663   H     0.05943   0.46764   0.54786   0.00000  Uiso   1.00
H664   H     0.22367   0.57221   0.88257   0.00000  Uiso   1.00
N665   N     0.31574   0.51407   0.76416   0.00000  Uiso   1.00
N666   N     0.01759   0.48593   0.73584   0.00000  Uiso   1.00
O667   O     0.12797   0.57141   0.74633   0.00000  Uiso   1.00
O668   O     0.30492   0.43454   0.99538   0.00000  Uiso   1.00
O669   O     0.22858   0.58089   0.75586   0.00000  Uiso   1.00
O670   O     0.09181   0.49293   0.81839   0.00000  Uiso   1.00
O671   O     0.19242   0.50241   0.82793   0.00000  Uiso   1.00
O672   O     0.10476   0.41911   0.74413   0.00000  Uiso   1.00
O673   O     0.20536   0.42859   0.75367   0.00000  Uiso   1.00
O674   O     0.14092   0.49759   0.67207   0.00000  Uiso   1.00
O675   O     0.24152   0.50707   0.68160   0.00000  Uiso   1.00
O676   O     0.33027   0.46532   0.69340   0.00000  Uiso   1.00
C677   C     0.51497   0.60005   0.75192   0.00000  Uiso   1.00
C678   C     0.44581   0.49791   0.90348   0.00000  Uiso   1.00
C679   C     0.52286   0.65605   0.75376   0.00000  Uiso   1.00
C680   C     0.46654   0.49923   0.84726   0.00000  Uiso   1.00
C681   C     0.47650   0.34388   0.74728   0.00000  Uiso   1.00
C682   C     0.48484   0.39993   0.74845   0.00000  Uiso   1.00
C683   C     0.53384   0.50370   0.65298   0.00000  Uiso   1.00
C684   C     0.62545   0.56096   0.52739   0.00000  Uiso   1.00
C685   C     0.55410   0.51258   0.59796   0.00000  Uiso   1.00
C686   C     0.38465   0.47064   0.92421   0.00000  Uiso   1.00
C687   C     0.36652   0.45935   0.97597   0.00000  Uiso   1.00
C688   C     0.47248   0.50233   0.98799   0.00000  Uiso   1.00
C689   C     0.41000   0.47530   0.50772   0.00000  Uiso   1.00
C690   C     0.34436   0.41531   0.68293   0.00000  Uiso   1.00
C691   C     0.63643   0.38351   0.51062   0.00000  Uiso   1.00
C692   C     0.48843   0.51785   0.93632   0.00000  Uiso   1.00
C693   C     0.51946   0.51519   0.51807   0.00000  Uiso   1.00
C694   C     0.57894   0.54771   0.99796   0.00000  Uiso   1.00
C695   C     0.59089   0.56764   0.94919   0.00000  Uiso   1.00
C696   C     0.54615   0.55355   0.91908   0.00000  Uiso   1.00
C697   C     0.50934   0.49634   0.56751   0.00000  Uiso   1.00
C698   C     0.61293   0.54377   0.57737   0.00000  Uiso   1.00
Cu699  Cu    0.44043   0.49439   0.74435   0.00000  Uiso   1.00
Cu700  Cu    0.55957   0.50561   0.75564   0.00000  Uiso   1.00
H701   H     0.64802   0.55676   0.60053   0.00000  Uiso   1.00
H702   H     0.56701   0.34664   0.76077   0.00000  Uiso   1.00
H703   H     0.66655   0.39190   0.71804   0.00000  Uiso   1.00
H704   H     0.39382   0.41845   0.66284   0.00000  Uiso   1.00
H705   H     0.64796   0.39321   0.65673   0.00000  Uiso   1.00
H706   H     0.65570   0.38518   0.54575   0.00000  Uiso   1.00
H707   H     0.66164   0.36072   0.97934   0.00000  Uiso   1.00
H708   H     0.58671   0.36175   0.51992   0.00000  Uiso   1.00
H709   H     0.43200   0.65326   0.74078   0.00000  Uiso   1.00
H710   H     0.33354   0.53373   0.79441   0.00000  Uiso   1.00
H711   H     0.63514   0.59425   0.93414   0.00000  Uiso   1.00
H712   H     0.33756   0.58583   0.51219   0.00000  Uiso   1.00
H713   H     0.46630   0.46955   0.58390   0.00000  Uiso   1.00
H714   H     0.35113   0.45629   0.89985   0.00000  Uiso   1.00
H715   H     0.39276   0.46764   0.54786   0.00000  Uiso   1.00
H716   H     0.55700   0.57221   0.88257   0.00000  Uiso   1.00
N717   N     0.64908   0.51407   0.76416   0.00000  Uiso   1.00
N718   N     0.35092   0.48593   0.73584   0.00000  Uiso   1.00
O719   O     0.46131   0.57141   0.74633   0.00000  Uiso   1.00
O720   O     0.63825   0.43454   0.99538   0.00000  Uiso   1.00
O721   O     0.56191   0.58089   0.75586   0.00000  Uiso   1.00
O722   O     0.42515   0.49293   0.81839   0.00000  Uiso   1.00
O723   O     0.52575   0.50241   0.82793   0.00000  Uiso   1.00
O724   O     0.43809   0.41911   0.74413   0.00000  Uiso   1.00
O725   O     0.53869   0.42859   0.75367   0.00000  Uiso   1.00
O726   O     0.47425   0.49759   0.67207   0.00000  Uiso   1.00
O727   O     0.57485   0.50707   0.68160   0.00000  Uiso   1.00
O728   O     0.66360   0.46532   0.69340   0.00000  Uiso   1.00
C729   C     0.84831   0.60005   0.75192   0.00000  Uiso   1.00
C730   C     0.77915   0.49791   0.90348   0.00000  Uiso   1.00
C731   C     0.85619   0.65605   0.75376   0.00000  Uiso   1.00
C732   C     0.79988   0.49923   0.84726   0.00000  Uiso   1.00
C733   C     0.80983   0.34388   0.74728   0.00000  Uiso   1.00
C734   C     0.81818   0.39993   0.74845   0.00000  Uiso   1.00
C735   C     0.86717   0.50370   0.65298   0.00000  Uiso   1.00
C736   C     0.95878   0.56096   0.52739   0.00000  Uiso   1.00
C737   C     0.88743   0.51258   0.59796   0.00000  Uiso   1.00
C738   C     0.71798   0.47064   0.92421   0.00000  Uiso   1.00
C739   C     0.69986   0.45935   0.97597   0.00000  Uiso   1.00
C740   C     0.80581   0.50233   0.98799   0.00000  Uiso   1.00
C741   C     0.74333   0.47530   0.50772   0.00000  Uiso   1.00
C742   C     0.67769   0.41531   0.68293   0.00000  Uiso   1.00
C743   C     0.96977   0.38351   0.51062   0.00000  Uiso   1.00
C744   C     0.82176   0.51785   0.93632   0.00000  Uiso   1.00
C745   C     0.85279   0.51519   0.51807   0.00000  Uiso   1.00
C746   C     0.91228   0.54771   0.99796   0.00000  Uiso   1.00
C747   C     0.92423   0.56764   0.94919   0.00000  Uiso   1.00
C748   C     0.87948   0.55355   0.91908   0.00000  Uiso   1.00
C749   C     0.84268   0.49634   0.56751   0.00000  Uiso   1.00
C750   C     0.94626   0.54377   0.57737   0.00000  Uiso   1.00
Cu751  Cu    0.77377   0.49439   0.74435   0.00000  Uiso   1.00
Cu752  Cu    0.89290   0.50561   0.75564   0.00000  Uiso   1.00
H753   H     0.98135   0.55676   0.60053   0.00000  Uiso   1.00
H754   H     0.90034   0.34664   0.76077   0.00000  Uiso   1.00
H755   H     0.99989   0.39190   0.71804   0.00000  Uiso   1.00
H756   H     0.72715   0.41845   0.66284   0.00000  Uiso   1.00
H757   H     0.98129   0.39321   0.65673   0.00000  Uiso   1.00
H758   H     0.98903   0.38518   0.54575   0.00000  Uiso   1.00
H759   H     0.99498   0.36072   0.97934   0.00000  Uiso   1.00
H760   H     0.92004   0.36175   0.51992   0.00000  Uiso   1.00
H761   H     0.76533   0.65326   0.74078   0.00000  Uiso   1.00
H762   H     0.66688   0.53373   0.79441   0.00000  Uiso   1.00
H763   H     0.96848   0.59425   0.93414   0.00000  Uiso   1.00
H764   H     0.67089   0.58583   0.51219   0.00000  Uiso   1.00
H765   H     0.79963   0.46955   0.58390   0.00000  Uiso   1.00
H766   H     0.68446   0.45629   0.89985   0.00000  Uiso   1.00
H767   H     0.72609   0.46764   0.54786   0.00000  Uiso   1.00
H768   H     0.89033   0.57221   0.88257   0.00000  Uiso   1.00
N769   N     0.98241   0.51407   0.76416   0.00000  Uiso   1.00
N770   N     0.68426   0.48593   0.73584   0.00000  Uiso   1.00
O771   O     0.79464   0.57141   0.74633   0.00000  Uiso   1.00
O772   O     0.97158   0.43454   0.99538   0.00000  Uiso   1.00
O773   O     0.89524   0.58089   0.75586   0.00000  Uiso   1.00
O774   O     0.75848   0.49293   0.81839   0.00000  Uiso   1.00
O775   O     0.85908   0.50241   0.82793   0.00000  Uiso   1.00
O776   O     0.77142   0.41911   0.74413   0.00000  Uiso   1.00
O777   O     0.87203   0.42859   0.75367   0.00000  Uiso   1.00
O778   O     0.80758   0.49759   0.67207   0.00000  Uiso   1.00
O779   O     0.90819   0.50707   0.68160   0.00000  Uiso   1.00
O780   O     0.99693   0.46532   0.69340   0.00000  Uiso   1.00
C781   C     0.18164   0.93339   0.75192   0.00000  Uiso   1.00
C782   C     0.11248   0.83124   0.90348   0.00000  Uiso   1.00
C783   C     0.18952   0.98939   0.75376   0.00000  Uiso   1.00
C784   C     0.13321   0.83256   0.84726   0.00000  Uiso   1.00
C785   C     0.14316   0.67721   0.74728   0.00000  Uiso   1.00
C786   C     0.15151   0.73326   0.74845   0.00000  Uiso   1.00
C787   C     0.20051   0.83703   0.65298   0.00000  Uiso   1.00
C788   C     0.29212   0.89430   0.52739   0.00000  Uiso   1.00
C789   C     0.22076   0.84592   0.59796   0.00000  Uiso   1.00
C790   C     0.05131   0.80398   0.92421   0.00000  Uiso   1.00
C791   C     0.03319   0.79268   0.97597   0.00000  Uiso   1.00
C792   C     0.13915   0.83566   0.98799   0.00000  Uiso   1.00
C793   C     0.07666   0.80863   0.50772   0.00000  Uiso   1.00
C794   C     0.01102   0.74865   0.68293   0.00000  Uiso   1.00
C795   C     0.30310   0.71684   0.51062   0.00000  Uiso   1.00
C796   C     0.15510   0.85118   0.93632   0.00000  Uiso   1.00
C797   C     0.18612   0.84852   0.51807   0.00000  Uiso   1.00
C798   C     0.24561   0.88104   0.99796   0.00000  Uiso   1.00
C799   C     0.25756   0.90098   0.94919   0.00000  Uiso   1.00
C800   C     0.21281   0.88688   0.91908   0.00000  Uiso   1.00
C801   C     0.17601   0.82967   0.56751   0.00000  Uiso   1.00
C802   C     0.27960   0.87710   0.57737   0.00000  Uiso   1.00
Cu803  Cu    0.10710   0.82772   0.74435   0.00000  Uiso   1.00
Cu804  Cu    0.22623   0.83895   0.75564   0.00000  Uiso   1.00
H805   H     0.31468   0.89010   0.60053   0.00000  Uiso   1.00
H806   H     0.23368   0.67997   0.76077   0.00000  Uiso   1.00
H807   H     0.33322   0.72523   0.71804   0.00000  Uiso   1.00
H808   H     0.06048   0.75178   0.66284   0.00000  Uiso   1.00
H809   H     0.31462   0.72655   0.65673   0.00000  Uiso   1.00
H810   H     0.32236   0.71851   0.54575   0.00000  Uiso   1.00
H811   H     0.32831   0.69405   0.97934   0.00000  Uiso   1.00
H812   H     0.25337   0.69508   0.51992   0.00000  Uiso   1.00
H813   H     0.09867   0.98660   0.74078   0.00000  Uiso   1.00
H814   H     0.00021   0.86706   0.79441   0.00000  Uiso   1.00
H815   H     0.30181   0.92758   0.93414   0.00000  Uiso   1.00
H816   H     0.00422   0.91916   0.51219   0.00000  Uiso   1.00
H817   H     0.13296   0.80288   0.58390   0.00000  Uiso   1.00
H818   H     0.01780   0.78962   0.89985   0.00000  Uiso   1.00
H819   H     0.05943   0.80097   0.54786   0.00000  Uiso   1.00
H820   H     0.22367   0.90554   0.88257   0.00000  Uiso   1.00
N821   N     0.31574   0.84741   0.76416   0.00000  Uiso   1.00
N822   N     0.01759   0.81926   0.73584   0.00000  Uiso   1.00
O823   O     0.12797   0.90474   0.74633   0.00000  Uiso   1.00
O824   O     0.30492   0.76787   0.99538   0.00000  Uiso   1.00
O825   O     0.22858   0.91422   0.75586   0.00000  Uiso   1.00
O826   O     0.09181   0.82627   0.81839   0.00000  Uiso   1.00
O827   O     0.19242   0.83575   0.82793   0.00000  Uiso   1.00
O828   O     0.10476   0.75245   0.74413   0.00000  Uiso   1.00
O829   O     0.20536   0.76193   0.75367   0.00000  Uiso   1.00
O830   O     0.14092   0.83092   0.67207   0.00000  Uiso   1.00
O831   O     0.24152   0.84040   0.68160   0.00000  Uiso   1.00
O832   O     0.33027   0.79866   0.69340   0.00000  Uiso   1.00
C833   C     0.51497   0.93339   0.75192   0.00000  Uiso   1.00
C834   C     0.44581   0.83124   0.90348   0.00000  Uiso   1.00
C835   C     0.52286   0.98939   0.75376   0.00000  Uiso   1.00
C836   C     0.46654   0.83256   0.84726   0.00000  Uiso   1.00
C837   C     0.47650   0.67721   0.74728   0.00000  Uiso   1.00
C838   C     0.48484   0.73326   0.74845   0.00000  Uiso   1.00
C839   C     0.53384   0.83703   0.65298   0.00000  Uiso   1.00
C840   C     0.62545   0.89430   0.52739   0.00000  Uiso   1.00
C841   C     0.55410   0.84592   0.59796   0.00000  Uiso   1.00
C842   C     0.38465   0.80398   0.92421   0.00000  Uiso   1.00
C843   C     0.36652   0.79268   0.97597   0.00000  Uiso   1.00
C844   C     0.47248   0.83566   0.98799   0.00000  Uiso   1.00
C845   C     0.41000   0.80863   0.50772   0.00000  Uiso   1.00
C846   C     0.34436   0.74865   0.68293   0.00000  Uiso   1.00
C847   C     0.63643   0.71684   0.51062   0.00000  Uiso   1.00
C848   C     0.48843   0.85118   0.93632   0.00000  Uiso   1.00
C849   C     0.51946   0.84852   0.51807   0.00000  Uiso   1.00
C850   C     0.57894   0.88104   0.99796   0.00000  Uiso   1.00
C851   C     0.59089   0.90098   0.94919   0.00000  Uiso   1.00
C852   C     0.54615   0.88688   0.91908   0.00000  Uiso   1.00
C853   C     0.50934   0.82967   0.56751   0.00000  Uiso   1.00
C854   C     0.61293   0.87710   0.57737   0.00000  Uiso   1.00
Cu855  Cu    0.44043   0.82772   0.74435   0.00000  Uiso   1.00
Cu856  Cu    0.55957   0.83895   0.75564   0.00000  Uiso   1.00
H857   H     0.64802   0.89010   0.60053   0.00000  Uiso   1.00
H858   H     0.56701   0.67997   0.76077   0.00000  Uiso   1.00
H859   H     0.66655   0.72523   0.71804   0.00000  Uiso   1.00
H860   H     0.39382   0.75178   0.66284   0.00000  Uiso   1.00
H861   H     0.64796   0.72655   0.65673   0.00000  Uiso   1.00
H862   H     0.65570   0.71851   0.54575   0.00000  Uiso   1.00
H863   H     0.66164   0.69405   0.97934   0.00000  Uiso   1.00
H864   H     0.58671   0.69508   0.51992   0.00000  Uiso   1.00
H865   H     0.43200   0.98660   0.74078   0.00000  Uiso   1.00
H866   H     0.33354   0.86706   0.79441   0.00000  Uiso   1.00
H867   H     0.63514   0.92758   0.93414   0.00000  Uiso   1.00
H868   H     0.33756   0.91916   0.51219   0.00000  Uiso   1.00
H869   H     0.46630   0.80288   0.58390   0.00000  Uiso   1.00
H870   H     0.35113   0.78962   0.89985   0.00000  Uiso   1.00
H871   H     0.39276   0.80097   0.54786   0.00000  Uiso   1.00
H872   H     0.55700   0.90554   0.88257   0.00000  Uiso   1.00
N873   N     0.64908   0.84741   0.76416   0.00000  Uiso   1.00
N874   N     0.35092   0.81926   0.73584   0.00000  Uiso   1.00
O875   O     0.46131   0.90474   0.74633   0.00000  Uiso   1.00
O876   O     0.63825   0.76787   0.99538   0.00000  Uiso   1.00
O877   O     0.56191   0.91422   0.75586   0.00000  Uiso   1.00
O878   O     0.42515   0.82627   0.81839   0.00000  Uiso   1.00
O879   O     0.52575   0.83575   0.82793   0.00000  Uiso   1.00
O880   O     0.43809   0.75245   0.74413   0.00000  Uiso   1.00
O881   O     0.53869   0.76193   0.75367   0.00000  Uiso   1.00
O882   O     0.47425   0.83092   0.67207   0.00000  Uiso   1.00
O883   O     0.57485   0.84040   0.68160   0.00000  Uiso   1.00
O884   O     0.66360   0.79866   0.69340   0.00000  Uiso   1.00
C885   C     0.84831   0.93339   0.75192   0.00000  Uiso   1.00
C886   C     0.77915   0.83124   0.90348   0.00000  Uiso   1.00
C887   C     0.85619   0.98939   0.75376   0.00000  Uiso   1.00
C888   C     0.79988   0.83256   0.84726   0.00000  Uiso   1.00
C889   C     0.80983   0.67721   0.74728   0.00000  Uiso   1.00
C890   C     0.81818   0.73326   0.74845   0.00000  Uiso   1.00
C891   C     0.86717   0.83703   0.65298   0.00000  Uiso   1.00
C892   C     0.95878   0.89430   0.52739   0.00000  Uiso   1.00
C893   C     0.88743   0.84592   0.59796   0.00000  Uiso   1.00
C894   C     0.71798   0.80398   0.92421   0.00000  Uiso   1.00
C895   C     0.69986   0.79268   0.97597   0.00000  Uiso   1.00
C896   C     0.80581   0.83566   0.98799   0.00000  Uiso   1.00
C897   C     0.74333   0.80863   0.50772   0.00000  Uiso   1.00
C898   C     0.67769   0.74865   0.68293   0.00000  Uiso   1.00
C899   C     0.96977   0.71684   0.51062   0.00000  Uiso   1.00
C900   C     0.82176   0.85118   0.93632   0.00000  Uiso   1.00
C901   C     0.85279   0.84852   0.51807   0.00000  Uiso   1.00
C902   C     0.91228   0.88104   0.99796   0.00000  Uiso   1.00
C903   C     0.92423   0.90098   0.94919   0.00000  Uiso   1.00
C904   C     0.87948   0.88688   0.91908   0.00000  Uiso   1.00
C905   C     0.84268   0.82967   0.56751   0.00000  Uiso   1.00
C906   C     0.94626   0.87710   0.57737   0.00000  Uiso   1.00
Cu907  Cu    0.77377   0.82772   0.74435   0.00000  Uiso   1.00
Cu908  Cu    0.89290   0.83895   0.75564   0.00000  Uiso   1.00
H909   H     0.98135   0.89010   0.60053   0.00000  Uiso   1.00
H910   H     0.90034   0.67997   0.76077   0.00000  Uiso   1.00
H911   H     0.99989   0.72523   0.71804   0.00000  Uiso   1.00
H912   H     0.72715   0.75178   0.66284   0.00000  Uiso   1.00
H913   H     0.98129   0.72655   0.65673   0.00000  Uiso   1.00
H914   H     0.98903   0.71851   0.54575   0.00000  Uiso   1.00
H915   H     0.99498   0.69405   0.97934   0.00000  Uiso   1.00
H916   H     0.92004   0.69508   0.51992   0.00000  Uiso   1.00
H917   H     0.76533   0.98660   0.74078   0.00000  Uiso   1.00
H918   H     0.66688   0.86706   0.79441   0.00000  Uiso   1.00
H919   H     0.96848   0.92758   0.93414   0.00000  Uiso   1.00
H920   H     0.67089   0.91916   0.51219   0.00000  Uiso   1.00
H921   H     0.79963   0.80288   0.58390   0.00000  Uiso   1.00
H922   H     0.68446   0.78962   0.89985   0.00000  Uiso   1.00
H923   H     0.72609   0.80097   0.54786   0.00000  Uiso   1.00
H924   H     0.89033   0.90554   0.88257   0.00000  Uiso   1.00
N925   N     0.98241   0.84741   0.76416   0.00000  Uiso   1.00
N926   N     0.68426   0.81926   0.73584   0.00000  Uiso   1.00
O927   O     0.79464   0.90474   0.74633   0.00000  Uiso   1.00
O928   O     0.97158   0.76787   0.99538   0.00000  Uiso   1.00
O929   O     0.89524   0.91422   0.75586   0.00000  Uiso   1.00
O930   O     0.75848   0.82627   0.81839   0.00000  Uiso   1.00
O931   O     0.85908   0.83575   0.82793   0.00000  Uiso   1.00
O932   O     0.77142   0.75245   0.74413   0.00000  Uiso   1.00
O933   O     0.87203   0.76193   0.75367   0.00000  Uiso   1.00
O934   O     0.80758   0.83092   0.67207   0.00000  Uiso   1.00
O935   O     0.90819   0.84040   0.68160   0.00000  Uiso   1.00
O936   O     0.99693   0.79866   0.69340   0.00000  Uiso   1.00
loop_
_geom_bond_atom_site_label_1
_geom_bond_atom_site_label_2
_geom_bond_distance
_geom_bond_site_symmetry_2
_ccdc_geom_bond_type
C1     O45     1.290   .     A
C1     O43     1.292   .     A
C1     C3      1.428   .     S
C2     C4      1.475   .     S
C2     C16     1.421   .     A
C2     C10     1.402   .     A
C3     C161    1.330   .     S
C3     H182    1.085   .     S
C4     O46     1.306   .     A
C4     O47     1.298   .     A
C5     C6      1.428   .     S
C5     C315    1.330   1_545 S
C5     H345    1.088   1_545 S
C6     O48     1.289   .     A
C6     O49     1.293   .     A
C7     O51     1.303   .     A
C7     C9      1.463   .     S
C7     O50     1.296   .     A
C8     C22     1.394   .     A
C8     C486    1.405   1_554 S
C8     H88     1.084   .     S
C9     C21     1.398   .     A
C9     C22     1.398   .     A
C10    H38     1.084   .     S
C10    C11     1.391   .     A
C11    C481    1.401   .     S
C11    O148    1.384   1_455 S
C12    C16     1.418   .     A
C12    C481    1.418   .     S
C12    C485    1.426   .     S
C13    H39     1.077   .     S
C13    C480    1.418   1_554 S
C13    C479    1.401   1_554 S
C14    H28     1.107   .     S
C14    H131    1.112   1_455 S
C14    H133    1.109   1_455 S
C14    O156    1.404   1_455 S
C15    H32     1.109   .     S
C15    H30     1.111   .     S
C15    H499    1.114   1_554 S
C15    O512    1.411   1_554 S
C16    C20     1.413   .     A
C17    C21     1.402   .     A
C17    C480    1.426   1_554 S
C17    C486    1.420   1_554 S
C18    C19     1.392   .     A
C18    C485    1.420   .     S
C18    C476    1.405   .     S
C19    C20     1.388   .     A
C19    H35     1.084   .     S
C20    H40     1.080   .     S
C21    H37     1.077   .     S
C22    H25     1.083   .     S
Cu23   Cu24    2.695   .     S
Cu23   O46     1.938   .     S
Cu23   O43     1.953   .     S
Cu23   O50     1.918   .     S
Cu23   O48     1.950   .     S
Cu23   N42     2.025   .     S
Cu24   O51     1.938   .     S
Cu24   N41     2.025   .     S
Cu24   O45     1.950   .     S
Cu24   O49     1.953   .     S
Cu24   O47     1.918   .     S
H26    C315    1.085   1_545 S
H27    C66     1.112   .     S
H29    C66     1.109   .     S
H31    C483    1.114   .     S
H33    C161    1.088   .     S
H34    N145    1.029   1_455 S
H36    C112    1.084   1_455 S
N41    H86     1.029   .     S
N41    N94     1.285   .     S
N42    N145    1.285   1_455 S
N42    O156    1.346   1_455 S
O44    C63     1.384   .     S
O44    C483    1.411   .     S
O52    C66     1.404   .     S
O52    N94     1.346   .     S
C53    O97     1.290   .     A
C53    O95     1.292   .     A
C53    C55     1.428   .     S
C54    C56     1.475   .     S
C54    C68     1.421   .     A
C54    C62     1.402   .     A
C55    C213    1.330   .     S
C55    H234    1.085   .     S
C56    O98     1.306   .     A
C56    O99     1.298   .     A
C57    C58     1.428   .     S
C57    C367    1.330   1_545 S
C57    H397    1.088   1_545 S
C58    O100    1.289   .     A
C58    O101    1.293   .     A
C59    O103    1.303   .     A
C59    C61     1.463   .     S
C59    O102    1.296   .     A
C60    C74     1.394   .     A
C60    C538    1.405   1_554 S
C60    H140    1.084   .     S
C61    C73     1.398   .     A
C61    C74     1.398   .     A
C62    H90     1.084   .     S
C62    C63     1.391   .     A
C63    C533    1.401   .     S
C64    C68     1.418   .     A
C64    C533    1.418   .     S
C64    C537    1.426   .     S
C65    H91     1.077   .     S
C65    C532    1.418   1_554 S
C65    C531    1.401   1_554 S
C66    H80     1.107   .     S
C67    H84     1.109   .     S
C67    H82     1.111   .     S
C67    H551    1.114   1_554 S
C67    O564    1.411   1_554 S
C68    C72     1.413   .     A
C69    C73     1.402   .     A
C69    C532    1.426   1_554 S
C69    C538    1.420   1_554 S
C70    C71     1.392   .     A
C70    C537    1.420   .     S
C70    C528    1.405   .     S
C71    C72     1.388   .     A
C71    H87     1.084   .     S
C72    H92     1.080   .     S
C73    H89     1.077   .     S
C74    H77     1.083   .     S
Cu75   Cu76    2.695   .     S
Cu75   O98     1.938   .     S
Cu75   O95     1.953   .     S
Cu75   O102    1.918   .     S
Cu75   O100    1.950   .     S
Cu75   N94     2.025   .     S
Cu76   O103    1.938   .     S
Cu76   N93     2.025   .     S
Cu76   O97     1.950   .     S
Cu76   O101    1.953   .     S
Cu76   O99     1.918   .     S
H78    C367    1.085   1_545 S
H79    C118    1.112   .     S
H81    C118    1.109   .     S
H83    C535    1.114   .     S
H85    C213    1.088   .     S
N93    H138    1.029   .     S
N93    N146    1.285   .     S
O96    C115    1.384   .     S
O96    C535    1.411   .     S
O104   C118    1.404   .     S
O104   N146    1.346   .     S
C105   O149    1.290   .     A
C105   O147    1.292   .     A
C105   C107    1.428   .     S
C106   C108    1.475   .     S
C106   C120    1.421   .     A
C106   C114    1.402   .     A
C107   C265    1.330   .     S
C107   H286    1.085   .     S
C108   O150    1.306   .     A
C108   O151    1.298   .     A
C109   C110    1.428   .     S
C109   C419    1.330   1_545 S
C109   H449    1.088   1_545 S
C110   O152    1.289   .     A
C110   O153    1.293   .     A
C111   O155    1.303   .     A
C111   C113    1.463   .     S
C111   O154    1.296   .     A
C112   C126    1.394   .     A
C112   C590    1.405   1_554 S
C112   H36     1.084   1_655 S
C113   C125    1.398   .     A
C113   C126    1.398   .     A
C114   H142    1.084   .     S
C114   C115    1.391   .     A
C115   C585    1.401   .     S
C116   C120    1.418   .     A
C116   C585    1.418   .     S
C116   C589    1.426   .     S
C117   H143    1.077   .     S
C117   C584    1.418   1_554 S
C117   C583    1.401   1_554 S
C118   H132    1.107   .     S
C119   H136    1.109   .     S
C119   H134    1.111   .     S
C119   H603    1.114   1_554 S
C119   O616    1.411   1_554 S
C120   C124    1.413   .     A
C121   C125    1.402   .     A
C121   C584    1.426   1_554 S
C121   C590    1.420   1_554 S
C122   C123    1.392   .     A
C122   C589    1.420   .     S
C122   C580    1.405   .     S
C123   C124    1.388   .     A
C123   H139    1.084   .     S
C124   H144    1.080   .     S
C125   H141    1.077   .     S
C126   H129    1.083   .     S
Cu127  Cu128   2.695   .     S
Cu127  O150    1.938   .     S
Cu127  O147    1.953   .     S
Cu127  O154    1.918   .     S
Cu127  O152    1.950   .     S
Cu127  N146    2.025   .     S
Cu128  O155    1.938   .     S
Cu128  N145    2.025   .     S
Cu128  O149    1.950   .     S
Cu128  O153    1.953   .     S
Cu128  O151    1.918   .     S
H130   C419    1.085   1_545 S
H131   C14     1.112   1_655 S
H133   C14     1.109   1_655 S
H135   C587    1.114   .     S
H137   C265    1.088   .     S
N145   H34     1.029   1_655 S
N145   N42     1.285   1_655 S
O148   C11     1.384   1_655 S
O148   C587    1.411   .     S
O156   C14     1.404   1_655 S
O156   N42     1.346   1_655 S
C157   O201    1.290   .     A
C157   O199    1.292   .     A
C157   C159    1.428   .     S
C158   C160    1.475   .     S
C158   C172    1.421   .     A
C158   C166    1.402   .     A
C159   C317    1.330   .     S
C159   H338    1.085   .     S
C160   O202    1.306   .     A
C160   O203    1.298   .     A
C161   C162    1.428   .     S
C162   O204    1.289   .     A
C162   O205    1.293   .     A
C163   O207    1.303   .     A
C163   C165    1.463   .     S
C163   O206    1.296   .     A
C164   C178    1.394   .     A
C164   C642    1.405   1_554 S
C164   H244    1.084   .     S
C165   C177    1.398   .     A
C165   C178    1.398   .     A
C166   H194    1.084   .     S
C166   C167    1.391   .     A
C167   C637    1.401   .     S
C167   O304    1.384   1_455 S
C168   C172    1.418   .     A
C168   C637    1.418   .     S
C168   C641    1.426   .     S
C169   H195    1.077   .     S
C169   C636    1.418   1_554 S
C169   C635    1.401   1_554 S
C170   H184    1.107   .     S
C170   H287    1.112   1_455 S
C170   H289    1.109   1_455 S
C170   O312    1.404   1_455 S
C171   H188    1.109   .     S
C171   H186    1.111   .     S
C171   H655    1.114   1_554 S
C171   O668    1.411   1_554 S
C172   C176    1.413   .     A
C173   C177    1.402   .     A
C173   C636    1.426   1_554 S
C173   C642    1.420   1_554 S
C174   C175    1.392   .     A
C174   C641    1.420   .     S
C174   C632    1.405   .     S
C175   C176    1.388   .     A
C175   H191    1.084   .     S
C176   H196    1.080   .     S
C177   H193    1.077   .     S
C178   H181    1.083   .     S
Cu179  Cu180   2.695   .     S
Cu179  O202    1.938   .     S
Cu179  O199    1.953   .     S
Cu179  O206    1.918   .     S
Cu179  O204    1.950   .     S
Cu179  N198    2.025   .     S
Cu180  O207    1.938   .     S
Cu180  N197    2.025   .     S
Cu180  O201    1.950   .     S
Cu180  O205    1.953   .     S
Cu180  O203    1.918   .     S
H183   C222    1.112   .     S
H185   C222    1.109   .     S
H187   C639    1.114   .     S
H189   C317    1.088   .     S
H190   N301    1.029   1_455 S
H192   C268    1.084   1_455 S
N197   H242    1.029   .     S
N197   N250    1.285   .     S
N198   N301    1.285   1_455 S
N198   O312    1.346   1_455 S
O200   C219    1.384   .     S
O200   C639    1.411   .     S
O208   C222    1.404   .     S
O208   N250    1.346   .     S
C209   O253    1.290   .     A
C209   O251    1.292   .     A
C209   C211    1.428   .     S
C210   C212    1.475   .     S
C210   C224    1.421   .     A
C210   C218    1.402   .     A
C211   C369    1.330   .     S
C211   H390    1.085   .     S
C212   O254    1.306   .     A
C212   O255    1.298   .     A
C213   C214    1.428   .     S
C214   O256    1.289   .     A
C214   O257    1.293   .     A
C215   O259    1.303   .     A
C215   C217    1.463   .     S
C215   O258    1.296   .     A
C216   C230    1.394   .     A
C216   C694    1.405   1_554 S
C216   H296    1.084   .     S
C217   C229    1.398   .     A
C217   C230    1.398   .     A
C218   H246    1.084   .     S
C218   C219    1.391   .     A
C219   C689    1.401   .     S
C220   C224    1.418   .     A
C220   C689    1.418   .     S
C220   C693    1.426   .     S
C221   H247    1.077   .     S
C221   C688    1.418   1_554 S
C221   C687    1.401   1_554 S
C222   H236    1.107   .     S
C223   H240    1.109   .     S
C223   H238    1.111   .     S
C223   H707    1.114   1_554 S
C223   O720    1.411   1_554 S
C224   C228    1.413   .     A
C225   C229    1.402   .     A
C225   C688    1.426   1_554 S
C225   C694    1.420   1_554 S
C226   C227    1.392   .     A
C226   C693    1.420   .     S
C226   C684    1.405   .     S
C227   C228    1.388   .     A
C227   H243    1.084   .     S
C228   H248    1.080   .     S
C229   H245    1.077   .     S
C230   H233    1.083   .     S
Cu231  Cu232   2.695   .     S
Cu231  O254    1.938   .     S
Cu231  O251    1.953   .     S
Cu231  O258    1.918   .     S
Cu231  O256    1.950   .     S
Cu231  N250    2.025   .     S
Cu232  O259    1.938   .     S
Cu232  N249    2.025   .     S
Cu232  O253    1.950   .     S
Cu232  O257    1.953   .     S
Cu232  O255    1.918   .     S
H235   C274    1.112   .     S
H237   C274    1.109   .     S
H239   C691    1.114   .     S
H241   C369    1.088   .     S
N249   H294    1.029   .     S
N249   N302    1.285   .     S
O252   C271    1.384   .     S
O252   C691    1.411   .     S
O260   C274    1.404   .     S
O260   N302    1.346   .     S
C261   O305    1.290   .     A
C261   O303    1.292   .     A
C261   C263    1.428   .     S
C262   C264    1.475   .     S
C262   C276    1.421   .     A
C262   C270    1.402   .     A
C263   C421    1.330   .     S
C263   H442    1.085   .     S
C264   O306    1.306   .     A
C264   O307    1.298   .     A
C265   C266    1.428   .     S
C266   O308    1.289   .     A
C266   O309    1.293   .     A
C267   O311    1.303   .     A
C267   C269    1.463   .     S
C267   O310    1.296   .     A
C268   C282    1.394   .     A
C268   C746    1.405   1_554 S
C268   H192    1.084   1_655 S
C269   C281    1.398   .     A
C269   C282    1.398   .     A
C270   H298    1.084   .     S
C270   C271    1.391   .     A
C271   C741    1.401   .     S
C272   C276    1.418   .     A
C272   C741    1.418   .     S
C272   C745    1.426   .     S
C273   H299    1.077   .     S
C273   C740    1.418   1_554 S
C273   C739    1.401   1_554 S
C274   H288    1.107   .     S
C275   H292    1.109   .     S
C275   H290    1.111   .     S
C275   H759    1.114   1_554 S
C275   O772    1.411   1_554 S
C276   C280    1.413   .     A
C277   C281    1.402   .     A
C277   C740    1.426   1_554 S
C277   C746    1.420   1_554 S
C278   C279    1.392   .     A
C278   C745    1.420   .     S
C278   C736    1.405   .     S
C279   C280    1.388   .     A
C279   H295    1.084   .     S
C280   H300    1.080   .     S
C281   H297    1.077   .     S
C282   H285    1.083   .     S
Cu283  Cu284   2.695   .     S
Cu283  O306    1.938   .     S
Cu283  O303    1.953   .     S
Cu283  O310    1.918   .     S
Cu283  O308    1.950   .     S
Cu283  N302    2.025   .     S
Cu284  O311    1.938   .     S
Cu284  N301    2.025   .     S
Cu284  O305    1.950   .     S
Cu284  O309    1.953   .     S
Cu284  O307    1.918   .     S
H287   C170    1.112   1_655 S
H289   C170    1.109   1_655 S
H291   C743    1.114   .     S
H293   C421    1.088   .     S
N301   H190    1.029   1_655 S
N301   N198    1.285   1_655 S
O304   C167    1.384   1_655 S
O304   C743    1.411   .     S
O312   C170    1.404   1_655 S
O312   N198    1.346   1_655 S
C313   O357    1.290   .     A
C313   O355    1.292   .     A
C313   C315    1.428   .     S
C314   C316    1.475   .     S
C314   C328    1.421   .     A
C314   C322    1.402   .     A
C315   C5      1.330   1_565 S
C315   H26     1.085   1_565 S
C316   O358    1.306   .     A
C316   O359    1.298   .     A
C317   C318    1.428   .     S
C318   O360    1.289   .     A
C318   O361    1.293   .     A
C319   O363    1.303   .     A
C319   C321    1.463   .     S
C319   O362    1.296   .     A
C320   C334    1.394   .     A
C320   C798    1.405   1_554 S
C320   H400    1.084   .     S
C321   C333    1.398   .     A
C321   C334    1.398   .     A
C322   H350    1.084   .     S
C322   C323    1.391   .     A
C323   C793    1.401   .     S
C323   O460    1.384   1_455 S
C324   C328    1.418   .     A
C324   C793    1.418   .     S
C324   C797    1.426   .     S
C325   H351    1.077   .     S
C325   C792    1.418   1_554 S
C325   C791    1.401   1_554 S
C326   H340    1.107   .     S
C326   H443    1.112   1_455 S
C326   H445    1.109   1_455 S
C326   O468    1.404   1_455 S
C327   H344    1.109   .     S
C327   H342    1.111   .     S
C327   H811    1.114   1_554 S
C327   O824    1.411   1_554 S
C328   C332    1.413   .     A
C329   C333    1.402   .     A
C329   C792    1.426   1_554 S
C329   C798    1.420   1_554 S
C330   C331    1.392   .     A
C330   C797    1.420   .     S
C330   C788    1.405   .     S
C331   C332    1.388   .     A
C331   H347    1.084   .     S
C332   H352    1.080   .     S
C333   H349    1.077   .     S
C334   H337    1.083   .     S
Cu335  Cu336   2.695   .     S
Cu335  O358    1.938   .     S
Cu335  O355    1.953   .     S
Cu335  O362    1.918   .     S
Cu335  O360    1.950   .     S
Cu335  N354    2.025   .     S
Cu336  O363    1.938   .     S
Cu336  N353    2.025   .     S
Cu336  O357    1.950   .     S
Cu336  O361    1.953   .     S
Cu336  O359    1.918   .     S
H339   C378    1.112   .     S
H341   C378    1.109   .     S
H343   C795    1.114   .     S
H345   C5      1.088   1_565 S
H346   N457    1.029   1_455 S
H348   C424    1.084   1_455 S
N353   H398    1.029   .     S
N353   N406    1.285   .     S
N354   N457    1.285   1_455 S
N354   O468    1.346   1_455 S
O356   C375    1.384   .     S
O356   C795    1.411   .     S
O364   C378    1.404   .     S
O364   N406    1.346   .     S
C365   O409    1.290   .     A
C365   O407    1.292   .     A
C365   C367    1.428   .     S
C366   C368    1.475   .     S
C366   C380    1.421   .     A
C366   C374    1.402   .     A
C367   C57     1.330   1_565 S
C367   H78     1.085   1_565 S
C368   O410    1.306   .     A
C368   O411    1.298   .     A
C369   C370    1.428   .     S
C370   O412    1.289   .     A
C370   O413    1.293   .     A
C371   O415    1.303   .     A
C371   C373    1.463   .     S
C371   O414    1.296   .     A
C372   C386    1.394   .     A
C372   C850    1.405   1_554 S
C372   H452    1.084   .     S
C373   C385    1.398   .     A
C373   C386    1.398   .     A
C374   H402    1.084   .     S
C374   C375    1.391   .     A
C375   C845    1.401   .     S
C376   C380    1.418   .     A
C376   C845    1.418   .     S
C376   C849    1.426   .     S
C377   H403    1.077   .     S
C377   C844    1.418   1_554 S
C377   C843    1.401   1_554 S
C378   H392    1.107   .     S
C379   H396    1.109   .     S
C379   H394    1.111   .     S
C379   H863    1.114   1_554 S
C379   O876    1.411   1_554 S
C380   C384    1.413   .     A
C381   C385    1.402   .     A
C381   C844    1.426   1_554 S
C381   C850    1.420   1_554 S
C382   C383    1.392   .     A
C382   C849    1.420   .     S
C382   C840    1.405   .     S
C383   C384    1.388   .     A
C383   H399    1.084   .     S
C384   H404    1.080   .     S
C385   H401    1.077   .     S
C386   H389    1.083   .     S
Cu387  Cu388   2.695   .     S
Cu387  O410    1.938   .     S
Cu387  O407    1.953   .     S
Cu387  O414    1.918   .     S
Cu387  O412    1.950   .     S
Cu387  N406    2.025   .     S
Cu388  O415    1.938   .     S
Cu388  N405    2.025   .     S
Cu388  O409    1.950   .     S
Cu388  O413    1.953   .     S
Cu388  O411    1.918   .     S
H391   C430    1.112   .     S
H393   C430    1.109   .     S
H395   C847    1.114   .     S
H397   C57     1.088   1_565 S
N405   H450    1.029   .     S
N405   N458    1.285   .     S
O408   C427    1.384   .     S
O408   C847    1.411   .     S
O416   C430    1.404   .     S
O416   N458    1.346   .     S
C417   O461    1.290   .     A
C417   O459    1.292   .     A
C417   C419    1.428   .     S
C418   C420    1.475   .     S
C418   C432    1.421   .     A
C418   C426    1.402   .     A
C419   C109    1.330   1_565 S
C419   H130    1.085   1_565 S
C420   O462    1.306   .     A
C420   O463    1.298   .     A
C421   C422    1.428   .     S
C422   O464    1.289   .     A
C422   O465    1.293   .     A
C423   O467    1.303   .     A
C423   C425    1.463   .     S
C423   O466    1.296   .     A
C424   C438    1.394   .     A
C424   C902    1.405   1_554 S
C424   H348    1.084   1_655 S
C425   C437    1.398   .     A
C425   C438    1.398   .     A
C426   H454    1.084   .     S
C426   C427    1.391   .     A
C427   C897    1.401   .     S
C428   C432    1.418   .     A
C428   C897    1.418   .     S
C428   C901    1.426   .     S
C429   H455    1.077   .     S
C429   C896    1.418   1_554 S
C429   C895    1.401   1_554 S
C430   H444    1.107   .     S
C431   H448    1.109   .     S
C431   H446    1.111   .     S
C431   H915    1.114   1_554 S
C431   O928    1.411   1_554 S
C432   C436    1.413   .     A
C433   C437    1.402   .     A
C433   C896    1.426   1_554 S
C433   C902    1.420   1_554 S
C434   C435    1.392   .     A
C434   C901    1.420   .     S
C434   C892    1.405   .     S
C435   C436    1.388   .     A
C435   H451    1.084   .     S
C436   H456    1.080   .     S
C437   H453    1.077   .     S
C438   H441    1.083   .     S
Cu439  Cu440   2.695   .     S
Cu439  O462    1.938   .     S
Cu439  O459    1.953   .     S
Cu439  O466    1.918   .     S
Cu439  O464    1.950   .     S
Cu439  N458    2.025   .     S
Cu440  O467    1.938   .     S
Cu440  N457    2.025   .     S
Cu440  O461    1.950   .     S
Cu440  O465    1.953   .     S
Cu440  O463    1.918   .     S
H443   C326    1.112   1_655 S
H445   C326    1.109   1_655 S
H447   C899    1.114   .     S
H449   C109    1.088   1_565 S
N457   H346    1.029   1_655 S
N457   N354    1.285   1_655 S
O460   C323    1.384   1_655 S
O460   C899    1.411   .     S
O468   C326    1.404   1_655 S
O468   N354    1.346   1_655 S
C469   O513    1.290   .     A
C469   O511    1.292   .     A
C469   C471    1.428   .     S
C470   C472    1.475   .     S
C470   C484    1.421   .     A
C470   C478    1.402   .     A
C471   C629    1.330   .     S
C471   H650    1.085   .     S
C472   O514    1.306   .     A
C472   O515    1.298   .     A
C473   C474    1.428   .     S
C473   C783    1.330   1_545 S
C473   H813    1.088   1_545 S
C474   O516    1.289   .     A
C474   O517    1.293   .     A
C475   O519    1.303   .     A
C475   C477    1.463   .     S
C475   O518    1.296   .     A
C476   C490    1.394   .     A
C476   H556    1.084   .     S
C477   C489    1.398   .     A
C477   C490    1.398   .     A
C478   H506    1.084   .     S
C478   C479    1.391   .     A
C479   C13     1.401   1_556 S
C479   O616    1.384   1_455 S
C480   C484    1.418   .     A
C480   C13     1.418   1_556 S
C480   C17     1.426   1_556 S
C481   H507    1.077   .     S
C482   H496    1.107   .     S
C482   H599    1.112   1_455 S
C482   H601    1.109   1_455 S
C482   O624    1.404   1_455 S
C483   H500    1.109   .     S
C483   H498    1.111   .     S
C484   C488    1.413   .     A
C485   C489    1.402   .     A
C486   C487    1.392   .     A
C486   C17     1.420   1_556 S
C486   C8      1.405   1_556 S
C487   C488    1.388   .     A
C487   H503    1.084   .     S
C488   H508    1.080   .     S
C489   H505    1.077   .     S
C490   H493    1.083   .     S
Cu491  Cu492   2.695   .     S
Cu491  O514    1.938   .     S
Cu491  O511    1.953   .     S
Cu491  O518    1.918   .     S
Cu491  O516    1.950   .     S
Cu491  N510    2.025   .     S
Cu492  O519    1.938   .     S
Cu492  N509    2.025   .     S
Cu492  O513    1.950   .     S
Cu492  O517    1.953   .     S
Cu492  O515    1.918   .     S
H494   C783    1.085   1_545 S
H495   C534    1.112   .     S
H497   C534    1.109   .     S
H499   C15     1.114   1_556 S
H501   C629    1.088   .     S
H502   N613    1.029   1_455 S
H504   C580    1.084   1_455 S
N509   H554    1.029   .     S
N509   N562    1.285   .     S
N510   N613    1.285   1_455 S
N510   O624    1.346   1_455 S
O512   C531    1.384   .     S
O512   C15     1.411   1_556 S
O520   C534    1.404   .     S
O520   N562    1.346   .     S
C521   O565    1.290   .     A
C521   O563    1.292   .     A
C521   C523    1.428   .     S
C522   C524    1.475   .     S
C522   C536    1.421   .     A
C522   C530    1.402   .     A
C523   C681    1.330   .     S
C523   H702    1.085   .     S
C524   O566    1.306   .     A
C524   O567    1.298   .     A
C525   C526    1.428   .     S
C525   C835    1.330   1_545 S
C525   H865    1.088   1_545 S
C526   O568    1.289   .     A
C526   O569    1.293   .     A
C527   O571    1.303   .     A
C527   C529    1.463   .     S
C527   O570    1.296   .     A
C528   C542    1.394   .     A
C528   H608    1.084   .     S
C529   C541    1.398   .     A
C529   C542    1.398   .     A
C530   H558    1.084   .     S
C530   C531    1.391   .     A
C531   C65     1.401   1_556 S
C532   C536    1.418   .     A
C532   C65     1.418   1_556 S
C532   C69     1.426   1_556 S
C533   H559    1.077   .     S
C534   H548    1.107   .     S
C535   H552    1.109   .     S
C535   H550    1.111   .     S
C536   C540    1.413   .     A
C537   C541    1.402   .     A
C538   C539    1.392   .     A
C538   C69     1.420   1_556 S
C538   C60     1.405   1_556 S
C539   C540    1.388   .     A
C539   H555    1.084   .     S
C540   H560    1.080   .     S
C541   H557    1.077   .     S
C542   H545    1.083   .     S
Cu543  Cu544   2.695   .     S
Cu543  O566    1.938   .     S
Cu543  O563    1.953   .     S
Cu543  O570    1.918   .     S
Cu543  O568    1.950   .     S
Cu543  N562    2.025   .     S
Cu544  O571    1.938   .     S
Cu544  N561    2.025   .     S
Cu544  O565    1.950   .     S
Cu544  O569    1.953   .     S
Cu544  O567    1.918   .     S
H546   C835    1.085   1_545 S
H547   C586    1.112   .     S
H549   C586    1.109   .     S
H551   C67     1.114   1_556 S
H553   C681    1.088   .     S
N561   H606    1.029   .     S
N561   N614    1.285   .     S
O564   C583    1.384   .     S
O564   C67     1.411   1_556 S
O572   C586    1.404   .     S
O572   N614    1.346   .     S
C573   O617    1.290   .     A
C573   O615    1.292   .     A
C573   C575    1.428   .     S
C574   C576    1.475   .     S
C574   C588    1.421   .     A
C574   C582    1.402   .     A
C575   C733    1.330   .     S
C575   H754    1.085   .     S
C576   O618    1.306   .     A
C576   O619    1.298   .     A
C577   C578    1.428   .     S
C577   C887    1.330   1_545 S
C577   H917    1.088   1_545 S
C578   O620    1.289   .     A
C578   O621    1.293   .     A
C579   O623    1.303   .     A
C579   C581    1.463   .     S
C579   O622    1.296   .     A
C580   C594    1.394   .     A
C580   H504    1.084   1_655 S
C581   C593    1.398   .     A
C581   C594    1.398   .     A
C582   H610    1.084   .     S
C582   C583    1.391   .     A
C583   C117    1.401   1_556 S
C584   C588    1.418   .     A
C584   C117    1.418   1_556 S
C584   C121    1.426   1_556 S
C585   H611    1.077   .     S
C586   H600    1.107   .     S
C587   H604    1.109   .     S
C587   H602    1.111   .     S
C588   C592    1.413   .     A
C589   C593    1.402   .     A
C590   C591    1.392   .     A
C590   C121    1.420   1_556 S
C590   C112    1.405   1_556 S
C591   C592    1.388   .     A
C591   H607    1.084   .     S
C592   H612    1.080   .     S
C593   H609    1.077   .     S
C594   H597    1.083   .     S
Cu595  Cu596   2.695   .     S
Cu595  O618    1.938   .     S
Cu595  O615    1.953   .     S
Cu595  O622    1.918   .     S
Cu595  O620    1.950   .     S
Cu595  N614    2.025   .     S
Cu596  O623    1.938   .     S
Cu596  N613    2.025   .     S
Cu596  O617    1.950   .     S
Cu596  O621    1.953   .     S
Cu596  O619    1.918   .     S
H598   C887    1.085   1_545 S
H599   C482    1.112   1_655 S
H601   C482    1.109   1_655 S
H603   C119    1.114   1_556 S
H605   C733    1.088   .     S
N613   H502    1.029   1_655 S
N613   N510    1.285   1_655 S
O616   C479    1.384   1_655 S
O616   C119    1.411   1_556 S
O624   C482    1.404   1_655 S
O624   N510    1.346   1_655 S
C625   O669    1.290   .     A
C625   O667    1.292   .     A
C625   C627    1.428   .     S
C626   C628    1.475   .     S
C626   C640    1.421   .     A
C626   C634    1.402   .     A
C627   C785    1.330   .     S
C627   H806    1.085   .     S
C628   O670    1.306   .     A
C628   O671    1.298   .     A
C629   C630    1.428   .     S
C630   O672    1.289   .     A
C630   O673    1.293   .     A
C631   O675    1.303   .     A
C631   C633    1.463   .     S
C631   O674    1.296   .     A
C632   C646    1.394   .     A
C632   H712    1.084   .     S
C633   C645    1.398   .     A
C633   C646    1.398   .     A
C634   H662    1.084   .     S
C634   C635    1.391   .     A
C635   C169    1.401   1_556 S
C635   O772    1.384   1_455 S
C636   C640    1.418   .     A
C636   C169    1.418   1_556 S
C636   C173    1.426   1_556 S
C637   H663    1.077   .     S
C638   H652    1.107   .     S
C638   H755    1.112   1_455 S
C638   H757    1.109   1_455 S
C638   O780    1.404   1_455 S
C639   H656    1.109   .     S
C639   H654    1.111   .     S
C640   C644    1.413   .     A
C641   C645    1.402   .     A
C642   C643    1.392   .     A
C642   C173    1.420   1_556 S
C642   C164    1.405   1_556 S
C643   C644    1.388   .     A
C643   H659    1.084   .     S
C644   H664    1.080   .     S
C645   H661    1.077   .     S
C646   H649    1.083   .     S
Cu647  Cu648   2.695   .     S
Cu647  O670    1.938   .     S
Cu647  O667    1.953   .     S
Cu647  O674    1.918   .     S
Cu647  O672    1.950   .     S
Cu647  N666    2.025   .     S
Cu648  O675    1.938   .     S
Cu648  N665    2.025   .     S
Cu648  O669    1.950   .     S
Cu648  O673    1.953   .     S
Cu648  O671    1.918   .     S
H651   C690    1.112   .     S
H653   C690    1.109   .     S
H655   C171    1.114   1_556 S
H657   C785    1.088   .     S
H658   N769    1.029   1_455 S
H660   C736    1.084   1_455 S
N665   H710    1.029   .     S
N665   N718    1.285   .     S
N666   N769    1.285   1_455 S
N666   O780    1.346   1_455 S
O668   C687    1.384   .     S
O668   C171    1.411   1_556 S
O676   C690    1.404   .     S
O676   N718    1.346   .     S
C677   O721    1.290   .     A
C677   O719    1.292   .     A
C677   C679    1.428   .     S
C678   C680    1.475   .     S
C678   C692    1.421   .     A
C678   C686    1.402   .     A
C679   C837    1.330   .     S
C679   H858    1.085   .     S
C680   O722    1.306   .     A
C680   O723    1.298   .     A
C681   C682    1.428   .     S
C682   O724    1.289   .     A
C682   O725    1.293   .     A
C683   O727    1.303   .     A
C683   C685    1.463   .     S
C683   O726    1.296   .     A
C684   C698    1.394   .     A
C684   H764    1.084   .     S
C685   C697    1.398   .     A
C685   C698    1.398   .     A
C686   H714    1.084   .     S
C686   C687    1.391   .     A
C687   C221    1.401   1_556 S
C688   C692    1.418   .     A
C688   C221    1.418   1_556 S
C688   C225    1.426   1_556 S
C689   H715    1.077   .     S
C690   H704    1.107   .     S
C691   H708    1.109   .     S
C691   H706    1.111   .     S
C692   C696    1.413   .     A
C693   C697    1.402   .     A
C694   C695    1.392   .     A
C694   C225    1.420   1_556 S
C694   C216    1.405   1_556 S
C695   C696    1.388   .     A
C695   H711    1.084   .     S
C696   H716    1.080   .     S
C697   H713    1.077   .     S
C698   H701    1.083   .     S
Cu699  Cu700   2.695   .     S
Cu699  O722    1.938   .     S
Cu699  O719    1.953   .     S
Cu699  O726    1.918   .     S
Cu699  O724    1.950   .     S
Cu699  N718    2.025   .     S
Cu700  O727    1.938   .     S
Cu700  N717    2.025   .     S
Cu700  O721    1.950   .     S
Cu700  O725    1.953   .     S
Cu700  O723    1.918   .     S
H703   C742    1.112   .     S
H705   C742    1.109   .     S
H707   C223    1.114   1_556 S
H709   C837    1.088   .     S
N717   H762    1.029   .     S
N717   N770    1.285   .     S
O720   C739    1.384   .     S
O720   C223    1.411   1_556 S
O728   C742    1.404   .     S
O728   N770    1.346   .     S
C729   O773    1.290   .     A
C729   O771    1.292   .     A
C729   C731    1.428   .     S
C730   C732    1.475   .     S
C730   C744    1.421   .     A
C730   C738    1.402   .     A
C731   C889    1.330   .     S
C731   H910    1.085   .     S
C732   O774    1.306   .     A
C732   O775    1.298   .     A
C733   C734    1.428   .     S
C734   O776    1.289   .     A
C734   O777    1.293   .     A
C735   O779    1.303   .     A
C735   C737    1.463   .     S
C735   O778    1.296   .     A
C736   C750    1.394   .     A
C736   H660    1.084   1_655 S
C737   C749    1.398   .     A
C737   C750    1.398   .     A
C738   H766    1.084   .     S
C738   C739    1.391   .     A
C739   C273    1.401   1_556 S
C740   C744    1.418   .     A
C740   C273    1.418   1_556 S
C740   C277    1.426   1_556 S
C741   H767    1.077   .     S
C742   H756    1.107   .     S
C743   H760    1.109   .     S
C743   H758    1.111   .     S
C744   C748    1.413   .     A
C745   C749    1.402   .     A
C746   C747    1.392   .     A
C746   C277    1.420   1_556 S
C746   C268    1.405   1_556 S
C747   C748    1.388   .     A
C747   H763    1.084   .     S
C748   H768    1.080   .     S
C749   H765    1.077   .     S
C750   H753    1.083   .     S
Cu751  Cu752   2.695   .     S
Cu751  O774    1.938   .     S
Cu751  O771    1.953   .     S
Cu751  O778    1.918   .     S
Cu751  O776    1.950   .     S
Cu751  N770    2.025   .     S
Cu752  O779    1.938   .     S
Cu752  N769    2.025   .     S
Cu752  O773    1.950   .     S
Cu752  O777    1.953   .     S
Cu752  O775    1.918   .     S
H755   C638    1.112   1_655 S
H757   C638    1.109   1_655 S
H759   C275    1.114   1_556 S
H761   C889    1.088   .     S
N769   H658    1.029   1_655 S
N769   N666    1.285   1_655 S
O772   C635    1.384   1_655 S
O772   C275    1.411   1_556 S
O780   C638    1.404   1_655 S
O780   N666    1.346   1_655 S
C781   O825    1.290   .     A
C781   O823    1.292   .     A
C781   C783    1.428   .     S
C782   C784    1.475   .     S
C782   C796    1.421   .     A
C782   C790    1.402   .     A
C783   C473    1.330   1_565 S
C783   H494    1.085   1_565 S
C784   O826    1.306   .     A
C784   O827    1.298   .     A
C785   C786    1.428   .     S
C786   O828    1.289   .     A
C786   O829    1.293   .     A
C787   O831    1.303   .     A
C787   C789    1.463   .     S
C787   O830    1.296   .     A
C788   C802    1.394   .     A
C788   H868    1.084   .     S
C789   C801    1.398   .     A
C789   C802    1.398   .     A
C790   H818    1.084   .     S
C790   C791    1.391   .     A
C791   C325    1.401   1_556 S
C791   O928    1.384   1_455 S
C792   C796    1.418   .     A
C792   C325    1.418   1_556 S
C792   C329    1.426   1_556 S
C793   H819    1.077   .     S
C794   H808    1.107   .     S
C794   H911    1.112   1_455 S
C794   H913    1.109   1_455 S
C794   O936    1.404   1_455 S
C795   H812    1.109   .     S
C795   H810    1.111   .     S
C796   C800    1.413   .     A
C797   C801    1.402   .     A
C798   C799    1.392   .     A
C798   C329    1.420   1_556 S
C798   C320    1.405   1_556 S
C799   C800    1.388   .     A
C799   H815    1.084   .     S
C800   H820    1.080   .     S
C801   H817    1.077   .     S
C802   H805    1.083   .     S
Cu803  Cu804   2.695   .     S
Cu803  O826    1.938   .     S
Cu803  O823    1.953   .     S
Cu803  O830    1.918   .     S
Cu803  O828    1.950   .     S
Cu803  N822    2.025   .     S
Cu804  O831    1.938   .     S
Cu804  N821    2.025   .     S
Cu804  O825    1.950   .     S
Cu804  O829    1.953   .     S
Cu804  O827    1.918   .     S
H807   C846    1.112   .     S
H809   C846    1.109   .     S
H811   C327    1.114   1_556 S
H813   C473    1.088   1_565 S
H814   N925    1.029   1_455 S
H816   C892    1.084   1_455 S
N821   H866    1.029   .     S
N821   N874    1.285   .     S
N822   N925    1.285   1_455 S
N822   O936    1.346   1_455 S
O824   C843    1.384   .     S
O824   C327    1.411   1_556 S
O832   C846    1.404   .     S
O832   N874    1.346   .     S
C833   O877    1.290   .     A
C833   O875    1.292   .     A
C833   C835    1.428   .     S
C834   C836    1.475   .     S
C834   C848    1.421   .     A
C834   C842    1.402   .     A
C835   C525    1.330   1_565 S
C835   H546    1.085   1_565 S
C836   O878    1.306   .     A
C836   O879    1.298   .     A
C837   C838    1.428   .     S
C838   O880    1.289   .     A
C838   O881    1.293   .     A
C839   O883    1.303   .     A
C839   C841    1.463   .     S
C839   O882    1.296   .     A
C840   C854    1.394   .     A
C840   H920    1.084   .     S
C841   C853    1.398   .     A
C841   C854    1.398   .     A
C842   H870    1.084   .     S
C842   C843    1.391   .     A
C843   C377    1.401   1_556 S
C844   C848    1.418   .     A
C844   C377    1.418   1_556 S
C844   C381    1.426   1_556 S
C845   H871    1.077   .     S
C846   H860    1.107   .     S
C847   H864    1.109   .     S
C847   H862    1.111   .     S
C848   C852    1.413   .     A
C849   C853    1.402   .     A
C850   C851    1.392   .     A
C850   C381    1.420   1_556 S
C850   C372    1.405   1_556 S
C851   C852    1.388   .     A
C851   H867    1.084   .     S
C852   H872    1.080   .     S
C853   H869    1.077   .     S
C854   H857    1.083   .     S
Cu855  Cu856   2.695   .     S
Cu855  O878    1.938   .     S
Cu855  O875    1.953   .     S
Cu855  O882    1.918   .     S
Cu855  O880    1.950   .     S
Cu855  N874    2.025   .     S
Cu856  O883    1.938   .     S
Cu856  N873    2.025   .     S
Cu856  O877    1.950   .     S
Cu856  O881    1.953   .     S
Cu856  O879    1.918   .     S
H859   C898    1.112   .     S
H861   C898    1.109   .     S
H863   C379    1.114   1_556 S
H865   C525    1.088   1_565 S
N873   H918    1.029   .     S
N873   N926    1.285   .     S
O876   C895    1.384   .     S
O876   C379    1.411   1_556 S
O884   C898    1.404   .     S
O884   N926    1.346   .     S
C885   O929    1.290   .     A
C885   O927    1.292   .     A
C885   C887    1.428   .     S
C886   C888    1.475   .     S
C886   C900    1.421   .     A
C886   C894    1.402   .     A
C887   C577    1.330   1_565 S
C887   H598    1.085   1_565 S
C888   O930    1.306   .     A
C888   O931    1.298   .     A
C889   C890    1.428   .     S
C890   O932    1.289   .     A
C890   O933    1.293   .     A
C891   O935    1.303   .     A
C891   C893    1.463   .     S
C891   O934    1.296   .     A
C892   C906    1.394   .     A
C892   H816    1.084   1_655 S
C893   C905    1.398   .     A
C893   C906    1.398   .     A
C894   H922    1.084   .     S
C894   C895    1.391   .     A
C895   C429    1.401   1_556 S
C896   C900    1.418   .     A
C896   C429    1.418   1_556 S
C896   C433    1.426   1_556 S
C897   H923    1.077   .     S
C898   H912    1.107   .     S
C899   H916    1.109   .     S
C899   H914    1.111   .     S
C900   C904    1.413   .     A
C901   C905    1.402   .     A
C902   C903    1.392   .     A
C902   C433    1.420   1_556 S
C902   C424    1.405   1_556 S
C903   C904    1.388   .     A
C903   H919    1.084   .     S
C904   H924    1.080   .     S
C905   H921    1.077   .     S
C906   H909    1.083   .     S
Cu907  Cu908   2.695   .     S
Cu907  O930    1.938   .     S
Cu907  O927    1.953   .     S
Cu907  O934    1.918   .     S
Cu907  O932    1.950   .     S
Cu907  N926    2.025   .     S
Cu908  O935    1.938   .     S
Cu908  N925    2.025   .     S
Cu908  O929    1.950   .     S
Cu908  O933    1.953   .     S
Cu908  O931    1.918   .     S
H911   C794    1.112   1_655 S
H913   C794    1.109   1_655 S
H915   C431    1.114   1_556 S
H917   C577    1.088   1_565 S
N925   H814    1.029   1_655 S
N925   N822    1.285   1_655 S
O928   C791    1.384   1_655 S
O928   C431    1.411   1_556 S
O936   C794    1.404   1_655 S
O936   N822    1.346   1_655 S
