data_str_m3_o10_o16_pcu_sym.2
_audit_creation_date              2020-01-03
_audit_creation_method            'Materials Studio'
_symmetry_space_group_name_H-M    'P1'
_symmetry_Int_Tables_number       1
_symmetry_cell_setting            triclinic
loop_
_symmetry_equiv_pos_as_xyz
  x,y,z
_cell_length_a                    23.6098
_cell_length_b                    25.6891
_cell_length_c                    24.1917
_cell_angle_alpha                 92.8353
_cell_angle_beta                  101.2414
_cell_angle_gamma                 94.0444
loop_
_atom_site_label
_atom_site_type_symbol
_atom_site_fract_x
_atom_site_fract_y
_atom_site_fract_z
_atom_site_U_iso_or_equiv
_atom_site_adp_type
_atom_site_occupancy
C1     C     0.01483   0.26484   0.24880   0.00000  Uiso   1.00
C2     C     0.05316   0.16805   0.41611   0.00000  Uiso   1.00
C3     C     0.02260   0.31944   0.24830   0.00000  Uiso   1.00
C4     C     0.03531   0.16791   0.35512   0.00000  Uiso   1.00
C5     C     0.31099   0.01394   0.25251   0.00000  Uiso   1.00
C6     C     0.31859   0.06850   0.25148   0.00000  Uiso   1.00
C7     C     0.29751   0.16281   0.14485   0.00000  Uiso   1.00
C8     C     0.26993   0.09653   0.00040   0.00000  Uiso   1.00
C9     C     0.27667   0.15265   0.08477   0.00000  Uiso   1.00
C10    C     0.02480   0.19834   0.45037   0.00000  Uiso   1.00
C11    C     0.04881   0.20864   0.00725   0.00000  Uiso   1.00
C12    C     0.13241   0.16175   0.49490   0.00000  Uiso   1.00
C13    C     0.10271   0.19158   0.02938   0.00000  Uiso   1.00
C14    C     0.17753   0.23147   0.28744   0.00000  Uiso   1.00
C15    C     0.10368   0.14470   0.43982   0.00000  Uiso   1.00
C16    C     0.18973   0.14838   0.01312   0.00000  Uiso   1.00
C17    C     0.21387   0.11149   0.48063   0.00000  Uiso   1.00
C18    C     0.18123   0.08935   0.42965   0.00000  Uiso   1.00
C19    C     0.12673   0.10574   0.40937   0.00000  Uiso   1.00
C20    C     0.22406   0.17149   0.06260   0.00000  Uiso   1.00
C21    C     0.30080   0.11613   0.05328   0.00000  Uiso   1.00
H22    H     0.00853   0.10113   0.07050   0.00000  Uiso   1.00
H23    H     0.10254   0.08723   0.36982   0.00000  Uiso   1.00
H24    H     0.06500   0.00318   0.24435   0.00000  Uiso   1.00
H25    H     0.21858   0.25018   0.31325   0.00000  Uiso   1.00
H26    H     0.16306   0.25713   0.25271   0.00000  Uiso   1.00
H27    H     0.14688   0.22818   0.31627   0.00000  Uiso   1.00
H28    H     0.26861   0.33020   0.25655   0.00000  Uiso   1.00
H29    H     0.15665   0.12005   0.21458   0.00000  Uiso   1.00
H30    H     0.19817   0.05998   0.40502   0.00000  Uiso   1.00
H31    H     0.28863   0.06810   0.47623   0.00000  Uiso   1.00
H32    H     0.20955   0.20270   0.08653   0.00000  Uiso   1.00
H33    H     0.31850   0.21555   0.43280   0.00000  Uiso   1.00
H34    H     0.11938   0.20117   0.07376   0.00000  Uiso   1.00
H35    H     0.02663   0.23158   0.03384   0.00000  Uiso   1.00
N36    N     0.14493   0.15223   0.23543   0.00000  Uiso   1.00
N37    N     0.18840   0.18110   0.26458   0.00000  Uiso   1.00
O38    O     0.29769   0.24629   0.25358   0.00000  Uiso   1.00
O39    O     0.05742   0.23704   0.24424   0.00000  Uiso   1.00
O40    O     0.31490   0.17358   0.33380   0.00000  Uiso   1.00
O41    O     0.07463   0.16433   0.32446   0.00000  Uiso   1.00
O42    O     0.27592   0.09629   0.25577   0.00000  Uiso   1.00
O43    O     0.03565   0.08704   0.24643   0.00000  Uiso   1.00
O44    O     0.25870   0.16901   0.17554   0.00000  Uiso   1.00
O45    O     0.01843   0.15976   0.16620   0.00000  Uiso   1.00
Zn46   Zn    0.27119   0.17284   0.25624   0.00000  Uiso   1.00
Zn47   Zn    0.06214   0.16049   0.24377   0.00000  Uiso   1.00
C48    C     0.34817   0.26484   0.24880   0.00000  Uiso   1.00
C49    C     0.38650   0.16805   0.41611   0.00000  Uiso   1.00
C50    C     0.35593   0.31944   0.24830   0.00000  Uiso   1.00
C51    C     0.36865   0.16791   0.35512   0.00000  Uiso   1.00
C52    C     0.64432   0.01394   0.25251   0.00000  Uiso   1.00
C53    C     0.65192   0.06850   0.25148   0.00000  Uiso   1.00
C54    C     0.63084   0.16281   0.14485   0.00000  Uiso   1.00
C55    C     0.60326   0.09653   0.00040   0.00000  Uiso   1.00
C56    C     0.61000   0.15265   0.08477   0.00000  Uiso   1.00
C57    C     0.35813   0.19834   0.45037   0.00000  Uiso   1.00
C58    C     0.38214   0.20864   0.00725   0.00000  Uiso   1.00
C59    C     0.46574   0.16175   0.49490   0.00000  Uiso   1.00
C60    C     0.43604   0.19158   0.02938   0.00000  Uiso   1.00
C61    C     0.51086   0.23147   0.28744   0.00000  Uiso   1.00
C62    C     0.43701   0.14470   0.43982   0.00000  Uiso   1.00
C63    C     0.52306   0.14838   0.01312   0.00000  Uiso   1.00
C64    C     0.54721   0.11149   0.48063   0.00000  Uiso   1.00
C65    C     0.51457   0.08935   0.42965   0.00000  Uiso   1.00
C66    C     0.46006   0.10574   0.40937   0.00000  Uiso   1.00
C67    C     0.55739   0.17149   0.06260   0.00000  Uiso   1.00
C68    C     0.63414   0.11613   0.05328   0.00000  Uiso   1.00
H69    H     0.34187   0.10113   0.07050   0.00000  Uiso   1.00
H70    H     0.43587   0.08723   0.36982   0.00000  Uiso   1.00
H71    H     0.39833   0.00318   0.24435   0.00000  Uiso   1.00
H72    H     0.55191   0.25018   0.31325   0.00000  Uiso   1.00
H73    H     0.49640   0.25713   0.25271   0.00000  Uiso   1.00
H74    H     0.48021   0.22818   0.31627   0.00000  Uiso   1.00
H75    H     0.60195   0.33020   0.25655   0.00000  Uiso   1.00
H76    H     0.48998   0.12005   0.21458   0.00000  Uiso   1.00
H77    H     0.53150   0.05998   0.40502   0.00000  Uiso   1.00
H78    H     0.62197   0.06810   0.47623   0.00000  Uiso   1.00
H79    H     0.54288   0.20270   0.08653   0.00000  Uiso   1.00
H80    H     0.65183   0.21555   0.43280   0.00000  Uiso   1.00
H81    H     0.45271   0.20117   0.07376   0.00000  Uiso   1.00
H82    H     0.35997   0.23158   0.03384   0.00000  Uiso   1.00
N83    N     0.47827   0.15223   0.23543   0.00000  Uiso   1.00
N84    N     0.52173   0.18110   0.26458   0.00000  Uiso   1.00
O85    O     0.63102   0.24629   0.25358   0.00000  Uiso   1.00
O86    O     0.39075   0.23704   0.24424   0.00000  Uiso   1.00
O87    O     0.64823   0.17358   0.33380   0.00000  Uiso   1.00
O88    O     0.40796   0.16433   0.32446   0.00000  Uiso   1.00
O89    O     0.60925   0.09629   0.25577   0.00000  Uiso   1.00
O90    O     0.36898   0.08704   0.24643   0.00000  Uiso   1.00
O91    O     0.59204   0.16901   0.17554   0.00000  Uiso   1.00
O92    O     0.35177   0.15976   0.16620   0.00000  Uiso   1.00
Zn93   Zn    0.60453   0.17284   0.25624   0.00000  Uiso   1.00
Zn94   Zn    0.39547   0.16049   0.24377   0.00000  Uiso   1.00
C95    C     0.68150   0.26484   0.24880   0.00000  Uiso   1.00
C96    C     0.71983   0.16805   0.41611   0.00000  Uiso   1.00
C97    C     0.68927   0.31944   0.24830   0.00000  Uiso   1.00
C98    C     0.70198   0.16791   0.35512   0.00000  Uiso   1.00
C99    C     0.97765   0.01394   0.25251   0.00000  Uiso   1.00
C100   C     0.98525   0.06850   0.25148   0.00000  Uiso   1.00
C101   C     0.96417   0.16281   0.14485   0.00000  Uiso   1.00
C102   C     0.93659   0.09653   0.00040   0.00000  Uiso   1.00
C103   C     0.94333   0.15265   0.08477   0.00000  Uiso   1.00
C104   C     0.69147   0.19834   0.45037   0.00000  Uiso   1.00
C105   C     0.71547   0.20864   0.00725   0.00000  Uiso   1.00
C106   C     0.79908   0.16175   0.49490   0.00000  Uiso   1.00
C107   C     0.76937   0.19158   0.02938   0.00000  Uiso   1.00
C108   C     0.84419   0.23147   0.28744   0.00000  Uiso   1.00
C109   C     0.77035   0.14470   0.43982   0.00000  Uiso   1.00
C110   C     0.85639   0.14838   0.01312   0.00000  Uiso   1.00
C111   C     0.88054   0.11149   0.48063   0.00000  Uiso   1.00
C112   C     0.84790   0.08935   0.42965   0.00000  Uiso   1.00
C113   C     0.79340   0.10574   0.40937   0.00000  Uiso   1.00
C114   C     0.89072   0.17149   0.06260   0.00000  Uiso   1.00
C115   C     0.96747   0.11613   0.05328   0.00000  Uiso   1.00
H116   H     0.67520   0.10113   0.07050   0.00000  Uiso   1.00
H117   H     0.76921   0.08723   0.36982   0.00000  Uiso   1.00
H118   H     0.73167   0.00318   0.24435   0.00000  Uiso   1.00
H119   H     0.88524   0.25018   0.31325   0.00000  Uiso   1.00
H120   H     0.82973   0.25713   0.25271   0.00000  Uiso   1.00
H121   H     0.81354   0.22818   0.31627   0.00000  Uiso   1.00
H122   H     0.93528   0.33020   0.25655   0.00000  Uiso   1.00
H123   H     0.82331   0.12005   0.21458   0.00000  Uiso   1.00
H124   H     0.86483   0.05998   0.40502   0.00000  Uiso   1.00
H125   H     0.95530   0.06810   0.47623   0.00000  Uiso   1.00
H126   H     0.87622   0.20270   0.08653   0.00000  Uiso   1.00
H127   H     0.98516   0.21555   0.43280   0.00000  Uiso   1.00
H128   H     0.78605   0.20117   0.07376   0.00000  Uiso   1.00
H129   H     0.69330   0.23158   0.03384   0.00000  Uiso   1.00
N130   N     0.81160   0.15223   0.23543   0.00000  Uiso   1.00
N131   N     0.85507   0.18110   0.26458   0.00000  Uiso   1.00
O132   O     0.96435   0.24629   0.25358   0.00000  Uiso   1.00
O133   O     0.72408   0.23704   0.24424   0.00000  Uiso   1.00
O134   O     0.98157   0.17358   0.33380   0.00000  Uiso   1.00
O135   O     0.74130   0.16433   0.32446   0.00000  Uiso   1.00
O136   O     0.94258   0.09629   0.25577   0.00000  Uiso   1.00
O137   O     0.70231   0.08704   0.24643   0.00000  Uiso   1.00
O138   O     0.92537   0.16901   0.17554   0.00000  Uiso   1.00
O139   O     0.68510   0.15976   0.16620   0.00000  Uiso   1.00
Zn140  Zn    0.93786   0.17284   0.25624   0.00000  Uiso   1.00
Zn141  Zn    0.72881   0.16049   0.24377   0.00000  Uiso   1.00
C142   C     0.01483   0.59818   0.24880   0.00000  Uiso   1.00
C143   C     0.05316   0.50138   0.41611   0.00000  Uiso   1.00
C144   C     0.02260   0.65277   0.24830   0.00000  Uiso   1.00
C145   C     0.03531   0.50125   0.35512   0.00000  Uiso   1.00
C146   C     0.31099   0.34727   0.25251   0.00000  Uiso   1.00
C147   C     0.31859   0.40184   0.25148   0.00000  Uiso   1.00
C148   C     0.29751   0.49614   0.14485   0.00000  Uiso   1.00
C149   C     0.26993   0.42987   0.00040   0.00000  Uiso   1.00
C150   C     0.27667   0.48599   0.08477   0.00000  Uiso   1.00
C151   C     0.02480   0.53167   0.45037   0.00000  Uiso   1.00
C152   C     0.04881   0.54197   0.00725   0.00000  Uiso   1.00
C153   C     0.13241   0.49508   0.49490   0.00000  Uiso   1.00
C154   C     0.10271   0.52491   0.02938   0.00000  Uiso   1.00
C155   C     0.17753   0.56481   0.28744   0.00000  Uiso   1.00
C156   C     0.10368   0.47803   0.43982   0.00000  Uiso   1.00
C157   C     0.18973   0.48172   0.01312   0.00000  Uiso   1.00
C158   C     0.21387   0.44482   0.48063   0.00000  Uiso   1.00
C159   C     0.18123   0.42268   0.42965   0.00000  Uiso   1.00
C160   C     0.12673   0.43908   0.40937   0.00000  Uiso   1.00
C161   C     0.22406   0.50482   0.06260   0.00000  Uiso   1.00
C162   C     0.30080   0.44947   0.05328   0.00000  Uiso   1.00
H163   H     0.00853   0.43446   0.07050   0.00000  Uiso   1.00
H164   H     0.10254   0.42057   0.36982   0.00000  Uiso   1.00
H165   H     0.06500   0.33652   0.24435   0.00000  Uiso   1.00
H166   H     0.21858   0.58351   0.31325   0.00000  Uiso   1.00
H167   H     0.16306   0.59046   0.25271   0.00000  Uiso   1.00
H168   H     0.14688   0.56152   0.31627   0.00000  Uiso   1.00
H169   H     0.26861   0.66353   0.25655   0.00000  Uiso   1.00
H170   H     0.15665   0.45339   0.21458   0.00000  Uiso   1.00
H171   H     0.19817   0.39332   0.40502   0.00000  Uiso   1.00
H172   H     0.28863   0.40144   0.47623   0.00000  Uiso   1.00
H173   H     0.20955   0.53603   0.08653   0.00000  Uiso   1.00
H174   H     0.31850   0.54888   0.43280   0.00000  Uiso   1.00
H175   H     0.11938   0.53450   0.07376   0.00000  Uiso   1.00
H176   H     0.02663   0.56491   0.03384   0.00000  Uiso   1.00
N177   N     0.14493   0.48556   0.23543   0.00000  Uiso   1.00
N178   N     0.18840   0.51444   0.26458   0.00000  Uiso   1.00
O179   O     0.29769   0.57963   0.25358   0.00000  Uiso   1.00
O180   O     0.05742   0.57038   0.24424   0.00000  Uiso   1.00
O181   O     0.31490   0.50691   0.33380   0.00000  Uiso   1.00
O182   O     0.07463   0.49766   0.32446   0.00000  Uiso   1.00
O183   O     0.27592   0.42962   0.25577   0.00000  Uiso   1.00
O184   O     0.03565   0.42037   0.24643   0.00000  Uiso   1.00
O185   O     0.25870   0.50234   0.17554   0.00000  Uiso   1.00
O186   O     0.01843   0.49309   0.16620   0.00000  Uiso   1.00
Zn187  Zn    0.27119   0.50618   0.25624   0.00000  Uiso   1.00
Zn188  Zn    0.06214   0.49382   0.24377   0.00000  Uiso   1.00
C189   C     0.34817   0.59818   0.24880   0.00000  Uiso   1.00
C190   C     0.38650   0.50138   0.41611   0.00000  Uiso   1.00
C191   C     0.35593   0.65277   0.24830   0.00000  Uiso   1.00
C192   C     0.36865   0.50125   0.35512   0.00000  Uiso   1.00
C193   C     0.64432   0.34727   0.25251   0.00000  Uiso   1.00
C194   C     0.65192   0.40184   0.25148   0.00000  Uiso   1.00
C195   C     0.63084   0.49614   0.14485   0.00000  Uiso   1.00
C196   C     0.60326   0.42987   0.00040   0.00000  Uiso   1.00
C197   C     0.61000   0.48599   0.08477   0.00000  Uiso   1.00
C198   C     0.35813   0.53167   0.45037   0.00000  Uiso   1.00
C199   C     0.38214   0.54197   0.00725   0.00000  Uiso   1.00
C200   C     0.46574   0.49508   0.49490   0.00000  Uiso   1.00
C201   C     0.43604   0.52491   0.02938   0.00000  Uiso   1.00
C202   C     0.51086   0.56481   0.28744   0.00000  Uiso   1.00
C203   C     0.43701   0.47803   0.43982   0.00000  Uiso   1.00
C204   C     0.52306   0.48172   0.01312   0.00000  Uiso   1.00
C205   C     0.54721   0.44482   0.48063   0.00000  Uiso   1.00
C206   C     0.51457   0.42268   0.42965   0.00000  Uiso   1.00
C207   C     0.46006   0.43908   0.40937   0.00000  Uiso   1.00
C208   C     0.55739   0.50482   0.06260   0.00000  Uiso   1.00
C209   C     0.63414   0.44947   0.05328   0.00000  Uiso   1.00
H210   H     0.34187   0.43446   0.07050   0.00000  Uiso   1.00
H211   H     0.43587   0.42057   0.36982   0.00000  Uiso   1.00
H212   H     0.39833   0.33652   0.24435   0.00000  Uiso   1.00
H213   H     0.55191   0.58351   0.31325   0.00000  Uiso   1.00
H214   H     0.49640   0.59046   0.25271   0.00000  Uiso   1.00
H215   H     0.48021   0.56152   0.31627   0.00000  Uiso   1.00
H216   H     0.60195   0.66353   0.25655   0.00000  Uiso   1.00
H217   H     0.48998   0.45339   0.21458   0.00000  Uiso   1.00
H218   H     0.53150   0.39332   0.40502   0.00000  Uiso   1.00
H219   H     0.62197   0.40144   0.47623   0.00000  Uiso   1.00
H220   H     0.54288   0.53603   0.08653   0.00000  Uiso   1.00
H221   H     0.65183   0.54888   0.43280   0.00000  Uiso   1.00
H222   H     0.45271   0.53450   0.07376   0.00000  Uiso   1.00
H223   H     0.35997   0.56491   0.03384   0.00000  Uiso   1.00
N224   N     0.47827   0.48556   0.23543   0.00000  Uiso   1.00
N225   N     0.52173   0.51444   0.26458   0.00000  Uiso   1.00
O226   O     0.63102   0.57963   0.25358   0.00000  Uiso   1.00
O227   O     0.39075   0.57038   0.24424   0.00000  Uiso   1.00
O228   O     0.64823   0.50691   0.33380   0.00000  Uiso   1.00
O229   O     0.40796   0.49766   0.32446   0.00000  Uiso   1.00
O230   O     0.60925   0.42962   0.25577   0.00000  Uiso   1.00
O231   O     0.36898   0.42037   0.24643   0.00000  Uiso   1.00
O232   O     0.59204   0.50234   0.17554   0.00000  Uiso   1.00
O233   O     0.35177   0.49309   0.16620   0.00000  Uiso   1.00
Zn234  Zn    0.60453   0.50618   0.25624   0.00000  Uiso   1.00
Zn235  Zn    0.39547   0.49382   0.24377   0.00000  Uiso   1.00
C236   C     0.68150   0.59818   0.24880   0.00000  Uiso   1.00
C237   C     0.71983   0.50138   0.41611   0.00000  Uiso   1.00
C238   C     0.68927   0.65277   0.24830   0.00000  Uiso   1.00
C239   C     0.70198   0.50125   0.35512   0.00000  Uiso   1.00
C240   C     0.97765   0.34727   0.25251   0.00000  Uiso   1.00
C241   C     0.98525   0.40184   0.25148   0.00000  Uiso   1.00
C242   C     0.96417   0.49614   0.14485   0.00000  Uiso   1.00
C243   C     0.93659   0.42987   0.00040   0.00000  Uiso   1.00
C244   C     0.94333   0.48599   0.08477   0.00000  Uiso   1.00
C245   C     0.69147   0.53167   0.45037   0.00000  Uiso   1.00
C246   C     0.71547   0.54197   0.00725   0.00000  Uiso   1.00
C247   C     0.79908   0.49508   0.49490   0.00000  Uiso   1.00
C248   C     0.76937   0.52491   0.02938   0.00000  Uiso   1.00
C249   C     0.84419   0.56481   0.28744   0.00000  Uiso   1.00
C250   C     0.77035   0.47803   0.43982   0.00000  Uiso   1.00
C251   C     0.85639   0.48172   0.01312   0.00000  Uiso   1.00
C252   C     0.88054   0.44482   0.48063   0.00000  Uiso   1.00
C253   C     0.84790   0.42268   0.42965   0.00000  Uiso   1.00
C254   C     0.79340   0.43908   0.40937   0.00000  Uiso   1.00
C255   C     0.89072   0.50482   0.06260   0.00000  Uiso   1.00
C256   C     0.96747   0.44947   0.05328   0.00000  Uiso   1.00
H257   H     0.67520   0.43446   0.07050   0.00000  Uiso   1.00
H258   H     0.76921   0.42057   0.36982   0.00000  Uiso   1.00
H259   H     0.73167   0.33652   0.24435   0.00000  Uiso   1.00
H260   H     0.88524   0.58351   0.31325   0.00000  Uiso   1.00
H261   H     0.82973   0.59046   0.25271   0.00000  Uiso   1.00
H262   H     0.81354   0.56152   0.31627   0.00000  Uiso   1.00
H263   H     0.93528   0.66353   0.25655   0.00000  Uiso   1.00
H264   H     0.82331   0.45339   0.21458   0.00000  Uiso   1.00
H265   H     0.86483   0.39332   0.40502   0.00000  Uiso   1.00
H266   H     0.95530   0.40144   0.47623   0.00000  Uiso   1.00
H267   H     0.87622   0.53603   0.08653   0.00000  Uiso   1.00
H268   H     0.98516   0.54888   0.43280   0.00000  Uiso   1.00
H269   H     0.78605   0.53450   0.07376   0.00000  Uiso   1.00
H270   H     0.69330   0.56491   0.03384   0.00000  Uiso   1.00
N271   N     0.81160   0.48556   0.23543   0.00000  Uiso   1.00
N272   N     0.85507   0.51444   0.26458   0.00000  Uiso   1.00
O273   O     0.96435   0.57963   0.25358   0.00000  Uiso   1.00
O274   O     0.72408   0.57038   0.24424   0.00000  Uiso   1.00
O275   O     0.98157   0.50691   0.33380   0.00000  Uiso   1.00
O276   O     0.74130   0.49766   0.32446   0.00000  Uiso   1.00
O277   O     0.94258   0.42962   0.25577   0.00000  Uiso   1.00
O278   O     0.70231   0.42037   0.24643   0.00000  Uiso   1.00
O279   O     0.92537   0.50234   0.17554   0.00000  Uiso   1.00
O280   O     0.68510   0.49309   0.16620   0.00000  Uiso   1.00
Zn281  Zn    0.93786   0.50618   0.25624   0.00000  Uiso   1.00
Zn282  Zn    0.72881   0.49382   0.24377   0.00000  Uiso   1.00
C283   C     0.01483   0.93151   0.24880   0.00000  Uiso   1.00
C284   C     0.05316   0.83471   0.41611   0.00000  Uiso   1.00
C285   C     0.02260   0.98611   0.24830   0.00000  Uiso   1.00
C286   C     0.03531   0.83458   0.35512   0.00000  Uiso   1.00
C287   C     0.31099   0.68061   0.25251   0.00000  Uiso   1.00
C288   C     0.31859   0.73517   0.25148   0.00000  Uiso   1.00
C289   C     0.29751   0.82948   0.14485   0.00000  Uiso   1.00
C290   C     0.26993   0.76320   0.00040   0.00000  Uiso   1.00
C291   C     0.27667   0.81932   0.08477   0.00000  Uiso   1.00
C292   C     0.02480   0.86500   0.45037   0.00000  Uiso   1.00
C293   C     0.04881   0.87531   0.00725   0.00000  Uiso   1.00
C294   C     0.13241   0.82842   0.49490   0.00000  Uiso   1.00
C295   C     0.10271   0.85825   0.02938   0.00000  Uiso   1.00
C296   C     0.17753   0.89814   0.28744   0.00000  Uiso   1.00
C297   C     0.10368   0.81137   0.43982   0.00000  Uiso   1.00
C298   C     0.18973   0.81505   0.01312   0.00000  Uiso   1.00
C299   C     0.21387   0.77815   0.48063   0.00000  Uiso   1.00
C300   C     0.18123   0.75601   0.42965   0.00000  Uiso   1.00
C301   C     0.12673   0.77241   0.40937   0.00000  Uiso   1.00
C302   C     0.22406   0.83815   0.06260   0.00000  Uiso   1.00
C303   C     0.30080   0.78280   0.05328   0.00000  Uiso   1.00
H304   H     0.00853   0.76779   0.07050   0.00000  Uiso   1.00
H305   H     0.10254   0.75390   0.36982   0.00000  Uiso   1.00
H306   H     0.06500   0.66985   0.24435   0.00000  Uiso   1.00
H307   H     0.21858   0.91684   0.31325   0.00000  Uiso   1.00
H308   H     0.16306   0.92380   0.25271   0.00000  Uiso   1.00
H309   H     0.14688   0.89485   0.31627   0.00000  Uiso   1.00
H310   H     0.26861   0.99686   0.25655   0.00000  Uiso   1.00
H311   H     0.15665   0.78672   0.21458   0.00000  Uiso   1.00
H312   H     0.19817   0.72665   0.40502   0.00000  Uiso   1.00
H313   H     0.28863   0.73477   0.47623   0.00000  Uiso   1.00
H314   H     0.20955   0.86936   0.08653   0.00000  Uiso   1.00
H315   H     0.31850   0.88221   0.43280   0.00000  Uiso   1.00
H316   H     0.11938   0.86783   0.07376   0.00000  Uiso   1.00
H317   H     0.02663   0.89825   0.03384   0.00000  Uiso   1.00
N318   N     0.14493   0.81890   0.23543   0.00000  Uiso   1.00
N319   N     0.18840   0.84777   0.26458   0.00000  Uiso   1.00
O320   O     0.29769   0.91296   0.25358   0.00000  Uiso   1.00
O321   O     0.05742   0.90371   0.24424   0.00000  Uiso   1.00
O322   O     0.31490   0.84024   0.33380   0.00000  Uiso   1.00
O323   O     0.07463   0.83099   0.32446   0.00000  Uiso   1.00
O324   O     0.27592   0.76296   0.25577   0.00000  Uiso   1.00
O325   O     0.03565   0.75371   0.24643   0.00000  Uiso   1.00
O326   O     0.25870   0.83567   0.17554   0.00000  Uiso   1.00
O327   O     0.01843   0.82642   0.16620   0.00000  Uiso   1.00
Zn328  Zn    0.27119   0.83951   0.25624   0.00000  Uiso   1.00
Zn329  Zn    0.06214   0.82716   0.24377   0.00000  Uiso   1.00
C330   C     0.34817   0.93151   0.24880   0.00000  Uiso   1.00
C331   C     0.38650   0.83471   0.41611   0.00000  Uiso   1.00
C332   C     0.35593   0.98611   0.24830   0.00000  Uiso   1.00
C333   C     0.36865   0.83458   0.35512   0.00000  Uiso   1.00
C334   C     0.64432   0.68061   0.25251   0.00000  Uiso   1.00
C335   C     0.65192   0.73517   0.25148   0.00000  Uiso   1.00
C336   C     0.63084   0.82948   0.14485   0.00000  Uiso   1.00
C337   C     0.60326   0.76320   0.00040   0.00000  Uiso   1.00
C338   C     0.61000   0.81932   0.08477   0.00000  Uiso   1.00
C339   C     0.35813   0.86500   0.45037   0.00000  Uiso   1.00
C340   C     0.38214   0.87531   0.00725   0.00000  Uiso   1.00
C341   C     0.46574   0.82842   0.49490   0.00000  Uiso   1.00
C342   C     0.43604   0.85825   0.02938   0.00000  Uiso   1.00
C343   C     0.51086   0.89814   0.28744   0.00000  Uiso   1.00
C344   C     0.43701   0.81137   0.43982   0.00000  Uiso   1.00
C345   C     0.52306   0.81505   0.01312   0.00000  Uiso   1.00
C346   C     0.54721   0.77815   0.48063   0.00000  Uiso   1.00
C347   C     0.51457   0.75601   0.42965   0.00000  Uiso   1.00
C348   C     0.46006   0.77241   0.40937   0.00000  Uiso   1.00
C349   C     0.55739   0.83815   0.06260   0.00000  Uiso   1.00
C350   C     0.63414   0.78280   0.05328   0.00000  Uiso   1.00
H351   H     0.34187   0.76779   0.07050   0.00000  Uiso   1.00
H352   H     0.43587   0.75390   0.36982   0.00000  Uiso   1.00
H353   H     0.39833   0.66985   0.24435   0.00000  Uiso   1.00
H354   H     0.55191   0.91684   0.31325   0.00000  Uiso   1.00
H355   H     0.49640   0.92380   0.25271   0.00000  Uiso   1.00
H356   H     0.48021   0.89485   0.31627   0.00000  Uiso   1.00
H357   H     0.60195   0.99686   0.25655   0.00000  Uiso   1.00
H358   H     0.48998   0.78672   0.21458   0.00000  Uiso   1.00
H359   H     0.53150   0.72665   0.40502   0.00000  Uiso   1.00
H360   H     0.62197   0.73477   0.47623   0.00000  Uiso   1.00
H361   H     0.54288   0.86936   0.08653   0.00000  Uiso   1.00
H362   H     0.65183   0.88221   0.43280   0.00000  Uiso   1.00
H363   H     0.45271   0.86783   0.07376   0.00000  Uiso   1.00
H364   H     0.35997   0.89825   0.03384   0.00000  Uiso   1.00
N365   N     0.47827   0.81890   0.23543   0.00000  Uiso   1.00
N366   N     0.52173   0.84777   0.26458   0.00000  Uiso   1.00
O367   O     0.63102   0.91296   0.25358   0.00000  Uiso   1.00
O368   O     0.39075   0.90371   0.24424   0.00000  Uiso   1.00
O369   O     0.64823   0.84024   0.33380   0.00000  Uiso   1.00
O370   O     0.40796   0.83099   0.32446   0.00000  Uiso   1.00
O371   O     0.60925   0.76296   0.25577   0.00000  Uiso   1.00
O372   O     0.36898   0.75371   0.24643   0.00000  Uiso   1.00
O373   O     0.59204   0.83567   0.17554   0.00000  Uiso   1.00
O374   O     0.35177   0.82642   0.16620   0.00000  Uiso   1.00
Zn375  Zn    0.60453   0.83951   0.25624   0.00000  Uiso   1.00
Zn376  Zn    0.39547   0.82716   0.24377   0.00000  Uiso   1.00
C377   C     0.68150   0.93151   0.24880   0.00000  Uiso   1.00
C378   C     0.71983   0.83471   0.41611   0.00000  Uiso   1.00
C379   C     0.68927   0.98611   0.24830   0.00000  Uiso   1.00
C380   C     0.70198   0.83458   0.35512   0.00000  Uiso   1.00
C381   C     0.97765   0.68061   0.25251   0.00000  Uiso   1.00
C382   C     0.98525   0.73517   0.25148   0.00000  Uiso   1.00
C383   C     0.96417   0.82948   0.14485   0.00000  Uiso   1.00
C384   C     0.93659   0.76320   0.00040   0.00000  Uiso   1.00
C385   C     0.94333   0.81932   0.08477   0.00000  Uiso   1.00
C386   C     0.69147   0.86500   0.45037   0.00000  Uiso   1.00
C387   C     0.71547   0.87531   0.00725   0.00000  Uiso   1.00
C388   C     0.79908   0.82842   0.49490   0.00000  Uiso   1.00
C389   C     0.76937   0.85825   0.02938   0.00000  Uiso   1.00
C390   C     0.84419   0.89814   0.28744   0.00000  Uiso   1.00
C391   C     0.77035   0.81137   0.43982   0.00000  Uiso   1.00
C392   C     0.85639   0.81505   0.01312   0.00000  Uiso   1.00
C393   C     0.88054   0.77815   0.48063   0.00000  Uiso   1.00
C394   C     0.84790   0.75601   0.42965   0.00000  Uiso   1.00
C395   C     0.79340   0.77241   0.40937   0.00000  Uiso   1.00
C396   C     0.89072   0.83815   0.06260   0.00000  Uiso   1.00
C397   C     0.96747   0.78280   0.05328   0.00000  Uiso   1.00
H398   H     0.67520   0.76779   0.07050   0.00000  Uiso   1.00
H399   H     0.76921   0.75390   0.36982   0.00000  Uiso   1.00
H400   H     0.73167   0.66985   0.24435   0.00000  Uiso   1.00
H401   H     0.88524   0.91684   0.31325   0.00000  Uiso   1.00
H402   H     0.82973   0.92380   0.25271   0.00000  Uiso   1.00
H403   H     0.81354   0.89485   0.31627   0.00000  Uiso   1.00
H404   H     0.93528   0.99686   0.25655   0.00000  Uiso   1.00
H405   H     0.82331   0.78672   0.21458   0.00000  Uiso   1.00
H406   H     0.86483   0.72665   0.40502   0.00000  Uiso   1.00
H407   H     0.95530   0.73477   0.47623   0.00000  Uiso   1.00
H408   H     0.87622   0.86936   0.08653   0.00000  Uiso   1.00
H409   H     0.98516   0.88221   0.43280   0.00000  Uiso   1.00
H410   H     0.78605   0.86783   0.07376   0.00000  Uiso   1.00
H411   H     0.69330   0.89825   0.03384   0.00000  Uiso   1.00
N412   N     0.81160   0.81890   0.23543   0.00000  Uiso   1.00
N413   N     0.85507   0.84777   0.26458   0.00000  Uiso   1.00
O414   O     0.96435   0.91296   0.25358   0.00000  Uiso   1.00
O415   O     0.72408   0.90371   0.24424   0.00000  Uiso   1.00
O416   O     0.98157   0.84024   0.33380   0.00000  Uiso   1.00
O417   O     0.74130   0.83099   0.32446   0.00000  Uiso   1.00
O418   O     0.94258   0.76296   0.25577   0.00000  Uiso   1.00
O419   O     0.70231   0.75371   0.24643   0.00000  Uiso   1.00
O420   O     0.92537   0.83567   0.17554   0.00000  Uiso   1.00
O421   O     0.68510   0.82642   0.16620   0.00000  Uiso   1.00
Zn422  Zn    0.93786   0.83951   0.25624   0.00000  Uiso   1.00
Zn423  Zn    0.72881   0.82716   0.24377   0.00000  Uiso   1.00
C424   C     0.01483   0.26484   0.74880   0.00000  Uiso   1.00
C425   C     0.05316   0.16805   0.91611   0.00000  Uiso   1.00
C426   C     0.02260   0.31944   0.74830   0.00000  Uiso   1.00
C427   C     0.03531   0.16791   0.85512   0.00000  Uiso   1.00
C428   C     0.31099   0.01394   0.75251   0.00000  Uiso   1.00
C429   C     0.31859   0.06850   0.75148   0.00000  Uiso   1.00
C430   C     0.29751   0.16281   0.64485   0.00000  Uiso   1.00
C431   C     0.26993   0.09653   0.50040   0.00000  Uiso   1.00
C432   C     0.27667   0.15265   0.58477   0.00000  Uiso   1.00
C433   C     0.02480   0.19834   0.95037   0.00000  Uiso   1.00
C434   C     0.04881   0.20864   0.50725   0.00000  Uiso   1.00
C435   C     0.13241   0.16175   0.99490   0.00000  Uiso   1.00
C436   C     0.10271   0.19158   0.52938   0.00000  Uiso   1.00
C437   C     0.17753   0.23147   0.78744   0.00000  Uiso   1.00
C438   C     0.10368   0.14470   0.93982   0.00000  Uiso   1.00
C439   C     0.18973   0.14838   0.51312   0.00000  Uiso   1.00
C440   C     0.21387   0.11149   0.98063   0.00000  Uiso   1.00
C441   C     0.18123   0.08935   0.92965   0.00000  Uiso   1.00
C442   C     0.12673   0.10574   0.90937   0.00000  Uiso   1.00
C443   C     0.22406   0.17149   0.56260   0.00000  Uiso   1.00
C444   C     0.30080   0.11613   0.55328   0.00000  Uiso   1.00
H445   H     0.00853   0.10113   0.57050   0.00000  Uiso   1.00
H446   H     0.10254   0.08723   0.86982   0.00000  Uiso   1.00
H447   H     0.06500   0.00318   0.74435   0.00000  Uiso   1.00
H448   H     0.21858   0.25018   0.81325   0.00000  Uiso   1.00
H449   H     0.16306   0.25713   0.75271   0.00000  Uiso   1.00
H450   H     0.14688   0.22818   0.81627   0.00000  Uiso   1.00
H451   H     0.26861   0.33020   0.75655   0.00000  Uiso   1.00
H452   H     0.15665   0.12005   0.71458   0.00000  Uiso   1.00
H453   H     0.19817   0.05998   0.90502   0.00000  Uiso   1.00
H454   H     0.28863   0.06810   0.97623   0.00000  Uiso   1.00
H455   H     0.20955   0.20270   0.58653   0.00000  Uiso   1.00
H456   H     0.31850   0.21555   0.93280   0.00000  Uiso   1.00
H457   H     0.11938   0.20117   0.57376   0.00000  Uiso   1.00
H458   H     0.02663   0.23158   0.53384   0.00000  Uiso   1.00
N459   N     0.14493   0.15223   0.73543   0.00000  Uiso   1.00
N460   N     0.18840   0.18110   0.76458   0.00000  Uiso   1.00
O461   O     0.29769   0.24629   0.75358   0.00000  Uiso   1.00
O462   O     0.05742   0.23704   0.74424   0.00000  Uiso   1.00
O463   O     0.31490   0.17358   0.83380   0.00000  Uiso   1.00
O464   O     0.07463   0.16433   0.82446   0.00000  Uiso   1.00
O465   O     0.27592   0.09629   0.75577   0.00000  Uiso   1.00
O466   O     0.03565   0.08704   0.74643   0.00000  Uiso   1.00
O467   O     0.25870   0.16901   0.67554   0.00000  Uiso   1.00
O468   O     0.01843   0.15976   0.66620   0.00000  Uiso   1.00
Zn469  Zn    0.27119   0.17284   0.75624   0.00000  Uiso   1.00
Zn470  Zn    0.06214   0.16049   0.74377   0.00000  Uiso   1.00
C471   C     0.34817   0.26484   0.74880   0.00000  Uiso   1.00
C472   C     0.38650   0.16805   0.91611   0.00000  Uiso   1.00
C473   C     0.35593   0.31944   0.74830   0.00000  Uiso   1.00
C474   C     0.36865   0.16791   0.85512   0.00000  Uiso   1.00
C475   C     0.64432   0.01394   0.75251   0.00000  Uiso   1.00
C476   C     0.65192   0.06850   0.75148   0.00000  Uiso   1.00
C477   C     0.63084   0.16281   0.64485   0.00000  Uiso   1.00
C478   C     0.60326   0.09653   0.50040   0.00000  Uiso   1.00
C479   C     0.61000   0.15265   0.58477   0.00000  Uiso   1.00
C480   C     0.35813   0.19834   0.95037   0.00000  Uiso   1.00
C481   C     0.38214   0.20864   0.50725   0.00000  Uiso   1.00
C482   C     0.46574   0.16175   0.99490   0.00000  Uiso   1.00
C483   C     0.43604   0.19158   0.52938   0.00000  Uiso   1.00
C484   C     0.51086   0.23147   0.78744   0.00000  Uiso   1.00
C485   C     0.43701   0.14470   0.93982   0.00000  Uiso   1.00
C486   C     0.52306   0.14838   0.51312   0.00000  Uiso   1.00
C487   C     0.54721   0.11149   0.98063   0.00000  Uiso   1.00
C488   C     0.51457   0.08935   0.92965   0.00000  Uiso   1.00
C489   C     0.46006   0.10574   0.90937   0.00000  Uiso   1.00
C490   C     0.55739   0.17149   0.56260   0.00000  Uiso   1.00
C491   C     0.63414   0.11613   0.55328   0.00000  Uiso   1.00
H492   H     0.34187   0.10113   0.57050   0.00000  Uiso   1.00
H493   H     0.43587   0.08723   0.86982   0.00000  Uiso   1.00
H494   H     0.39833   0.00318   0.74435   0.00000  Uiso   1.00
H495   H     0.55191   0.25018   0.81325   0.00000  Uiso   1.00
H496   H     0.49640   0.25713   0.75271   0.00000  Uiso   1.00
H497   H     0.48021   0.22818   0.81627   0.00000  Uiso   1.00
H498   H     0.60195   0.33020   0.75655   0.00000  Uiso   1.00
H499   H     0.48998   0.12005   0.71458   0.00000  Uiso   1.00
H500   H     0.53150   0.05998   0.90502   0.00000  Uiso   1.00
H501   H     0.62197   0.06810   0.97623   0.00000  Uiso   1.00
H502   H     0.54288   0.20270   0.58653   0.00000  Uiso   1.00
H503   H     0.65183   0.21555   0.93280   0.00000  Uiso   1.00
H504   H     0.45271   0.20117   0.57376   0.00000  Uiso   1.00
H505   H     0.35997   0.23158   0.53384   0.00000  Uiso   1.00
N506   N     0.47827   0.15223   0.73543   0.00000  Uiso   1.00
N507   N     0.52173   0.18110   0.76458   0.00000  Uiso   1.00
O508   O     0.63102   0.24629   0.75358   0.00000  Uiso   1.00
O509   O     0.39075   0.23704   0.74424   0.00000  Uiso   1.00
O510   O     0.64823   0.17358   0.83380   0.00000  Uiso   1.00
O511   O     0.40796   0.16433   0.82446   0.00000  Uiso   1.00
O512   O     0.60925   0.09629   0.75577   0.00000  Uiso   1.00
O513   O     0.36898   0.08704   0.74643   0.00000  Uiso   1.00
O514   O     0.59204   0.16901   0.67554   0.00000  Uiso   1.00
O515   O     0.35177   0.15976   0.66620   0.00000  Uiso   1.00
Zn516  Zn    0.60453   0.17284   0.75624   0.00000  Uiso   1.00
Zn517  Zn    0.39547   0.16049   0.74377   0.00000  Uiso   1.00
C518   C     0.68150   0.26484   0.74880   0.00000  Uiso   1.00
C519   C     0.71983   0.16805   0.91611   0.00000  Uiso   1.00
C520   C     0.68927   0.31944   0.74830   0.00000  Uiso   1.00
C521   C     0.70198   0.16791   0.85512   0.00000  Uiso   1.00
C522   C     0.97765   0.01394   0.75251   0.00000  Uiso   1.00
C523   C     0.98525   0.06850   0.75148   0.00000  Uiso   1.00
C524   C     0.96417   0.16281   0.64485   0.00000  Uiso   1.00
C525   C     0.93659   0.09653   0.50040   0.00000  Uiso   1.00
C526   C     0.94333   0.15265   0.58477   0.00000  Uiso   1.00
C527   C     0.69147   0.19834   0.95037   0.00000  Uiso   1.00
C528   C     0.71547   0.20864   0.50725   0.00000  Uiso   1.00
C529   C     0.79908   0.16175   0.99490   0.00000  Uiso   1.00
C530   C     0.76937   0.19158   0.52938   0.00000  Uiso   1.00
C531   C     0.84419   0.23147   0.78744   0.00000  Uiso   1.00
C532   C     0.77035   0.14470   0.93982   0.00000  Uiso   1.00
C533   C     0.85639   0.14838   0.51312   0.00000  Uiso   1.00
C534   C     0.88054   0.11149   0.98063   0.00000  Uiso   1.00
C535   C     0.84790   0.08935   0.92965   0.00000  Uiso   1.00
C536   C     0.79340   0.10574   0.90937   0.00000  Uiso   1.00
C537   C     0.89072   0.17149   0.56260   0.00000  Uiso   1.00
C538   C     0.96747   0.11613   0.55328   0.00000  Uiso   1.00
H539   H     0.67520   0.10113   0.57050   0.00000  Uiso   1.00
H540   H     0.76921   0.08723   0.86982   0.00000  Uiso   1.00
H541   H     0.73167   0.00318   0.74435   0.00000  Uiso   1.00
H542   H     0.88524   0.25018   0.81325   0.00000  Uiso   1.00
H543   H     0.82973   0.25713   0.75271   0.00000  Uiso   1.00
H544   H     0.81354   0.22818   0.81627   0.00000  Uiso   1.00
H545   H     0.93528   0.33020   0.75655   0.00000  Uiso   1.00
H546   H     0.82331   0.12005   0.71458   0.00000  Uiso   1.00
H547   H     0.86483   0.05998   0.90502   0.00000  Uiso   1.00
H548   H     0.95530   0.06810   0.97623   0.00000  Uiso   1.00
H549   H     0.87622   0.20270   0.58653   0.00000  Uiso   1.00
H550   H     0.98516   0.21555   0.93280   0.00000  Uiso   1.00
H551   H     0.78605   0.20117   0.57376   0.00000  Uiso   1.00
H552   H     0.69330   0.23158   0.53384   0.00000  Uiso   1.00
N553   N     0.81160   0.15223   0.73543   0.00000  Uiso   1.00
N554   N     0.85507   0.18110   0.76458   0.00000  Uiso   1.00
O555   O     0.96435   0.24629   0.75358   0.00000  Uiso   1.00
O556   O     0.72408   0.23704   0.74424   0.00000  Uiso   1.00
O557   O     0.98157   0.17358   0.83380   0.00000  Uiso   1.00
O558   O     0.74130   0.16433   0.82446   0.00000  Uiso   1.00
O559   O     0.94258   0.09629   0.75577   0.00000  Uiso   1.00
O560   O     0.70231   0.08704   0.74643   0.00000  Uiso   1.00
O561   O     0.92537   0.16901   0.67554   0.00000  Uiso   1.00
O562   O     0.68510   0.15976   0.66620   0.00000  Uiso   1.00
Zn563  Zn    0.93786   0.17284   0.75624   0.00000  Uiso   1.00
Zn564  Zn    0.72881   0.16049   0.74377   0.00000  Uiso   1.00
C565   C     0.01483   0.59818   0.74880   0.00000  Uiso   1.00
C566   C     0.05316   0.50138   0.91611   0.00000  Uiso   1.00
C567   C     0.02260   0.65277   0.74830   0.00000  Uiso   1.00
C568   C     0.03531   0.50125   0.85512   0.00000  Uiso   1.00
C569   C     0.31099   0.34727   0.75251   0.00000  Uiso   1.00
C570   C     0.31859   0.40184   0.75148   0.00000  Uiso   1.00
C571   C     0.29751   0.49614   0.64485   0.00000  Uiso   1.00
C572   C     0.26993   0.42987   0.50040   0.00000  Uiso   1.00
C573   C     0.27667   0.48599   0.58477   0.00000  Uiso   1.00
C574   C     0.02480   0.53167   0.95037   0.00000  Uiso   1.00
C575   C     0.04881   0.54197   0.50725   0.00000  Uiso   1.00
C576   C     0.13241   0.49508   0.99490   0.00000  Uiso   1.00
C577   C     0.10271   0.52491   0.52938   0.00000  Uiso   1.00
C578   C     0.17753   0.56481   0.78744   0.00000  Uiso   1.00
C579   C     0.10368   0.47803   0.93982   0.00000  Uiso   1.00
C580   C     0.18973   0.48172   0.51312   0.00000  Uiso   1.00
C581   C     0.21387   0.44482   0.98063   0.00000  Uiso   1.00
C582   C     0.18123   0.42268   0.92965   0.00000  Uiso   1.00
C583   C     0.12673   0.43908   0.90937   0.00000  Uiso   1.00
C584   C     0.22406   0.50482   0.56260   0.00000  Uiso   1.00
C585   C     0.30080   0.44947   0.55328   0.00000  Uiso   1.00
H586   H     0.00853   0.43446   0.57050   0.00000  Uiso   1.00
H587   H     0.10254   0.42057   0.86982   0.00000  Uiso   1.00
H588   H     0.06500   0.33652   0.74435   0.00000  Uiso   1.00
H589   H     0.21858   0.58351   0.81325   0.00000  Uiso   1.00
H590   H     0.16306   0.59046   0.75271   0.00000  Uiso   1.00
H591   H     0.14688   0.56152   0.81627   0.00000  Uiso   1.00
H592   H     0.26861   0.66353   0.75655   0.00000  Uiso   1.00
H593   H     0.15665   0.45339   0.71458   0.00000  Uiso   1.00
H594   H     0.19817   0.39332   0.90502   0.00000  Uiso   1.00
H595   H     0.28863   0.40144   0.97623   0.00000  Uiso   1.00
H596   H     0.20955   0.53603   0.58653   0.00000  Uiso   1.00
H597   H     0.31850   0.54888   0.93280   0.00000  Uiso   1.00
H598   H     0.11938   0.53450   0.57376   0.00000  Uiso   1.00
H599   H     0.02663   0.56491   0.53384   0.00000  Uiso   1.00
N600   N     0.14493   0.48556   0.73543   0.00000  Uiso   1.00
N601   N     0.18840   0.51444   0.76458   0.00000  Uiso   1.00
O602   O     0.29769   0.57963   0.75358   0.00000  Uiso   1.00
O603   O     0.05742   0.57038   0.74424   0.00000  Uiso   1.00
O604   O     0.31490   0.50691   0.83380   0.00000  Uiso   1.00
O605   O     0.07463   0.49766   0.82446   0.00000  Uiso   1.00
O606   O     0.27592   0.42962   0.75577   0.00000  Uiso   1.00
O607   O     0.03565   0.42037   0.74643   0.00000  Uiso   1.00
O608   O     0.25870   0.50234   0.67554   0.00000  Uiso   1.00
O609   O     0.01843   0.49309   0.66620   0.00000  Uiso   1.00
Zn610  Zn    0.27119   0.50618   0.75624   0.00000  Uiso   1.00
Zn611  Zn    0.06214   0.49382   0.74377   0.00000  Uiso   1.00
C612   C     0.34817   0.59818   0.74880   0.00000  Uiso   1.00
C613   C     0.38650   0.50138   0.91611   0.00000  Uiso   1.00
C614   C     0.35593   0.65277   0.74830   0.00000  Uiso   1.00
C615   C     0.36865   0.50125   0.85512   0.00000  Uiso   1.00
C616   C     0.64432   0.34727   0.75251   0.00000  Uiso   1.00
C617   C     0.65192   0.40184   0.75148   0.00000  Uiso   1.00
C618   C     0.63084   0.49614   0.64485   0.00000  Uiso   1.00
C619   C     0.60326   0.42987   0.50040   0.00000  Uiso   1.00
C620   C     0.61000   0.48599   0.58477   0.00000  Uiso   1.00
C621   C     0.35813   0.53167   0.95037   0.00000  Uiso   1.00
C622   C     0.38214   0.54197   0.50725   0.00000  Uiso   1.00
C623   C     0.46574   0.49508   0.99490   0.00000  Uiso   1.00
C624   C     0.43604   0.52491   0.52938   0.00000  Uiso   1.00
C625   C     0.51086   0.56481   0.78744   0.00000  Uiso   1.00
C626   C     0.43701   0.47803   0.93982   0.00000  Uiso   1.00
C627   C     0.52306   0.48172   0.51312   0.00000  Uiso   1.00
C628   C     0.54721   0.44482   0.98063   0.00000  Uiso   1.00
C629   C     0.51457   0.42268   0.92965   0.00000  Uiso   1.00
C630   C     0.46006   0.43908   0.90937   0.00000  Uiso   1.00
C631   C     0.55739   0.50482   0.56260   0.00000  Uiso   1.00
C632   C     0.63414   0.44947   0.55328   0.00000  Uiso   1.00
H633   H     0.34187   0.43446   0.57050   0.00000  Uiso   1.00
H634   H     0.43587   0.42057   0.86982   0.00000  Uiso   1.00
H635   H     0.39833   0.33652   0.74435   0.00000  Uiso   1.00
H636   H     0.55191   0.58351   0.81325   0.00000  Uiso   1.00
H637   H     0.49640   0.59046   0.75271   0.00000  Uiso   1.00
H638   H     0.48021   0.56152   0.81627   0.00000  Uiso   1.00
H639   H     0.60195   0.66353   0.75655   0.00000  Uiso   1.00
H640   H     0.48998   0.45339   0.71458   0.00000  Uiso   1.00
H641   H     0.53150   0.39332   0.90502   0.00000  Uiso   1.00
H642   H     0.62197   0.40144   0.97623   0.00000  Uiso   1.00
H643   H     0.54288   0.53603   0.58653   0.00000  Uiso   1.00
H644   H     0.65183   0.54888   0.93280   0.00000  Uiso   1.00
H645   H     0.45271   0.53450   0.57376   0.00000  Uiso   1.00
H646   H     0.35997   0.56491   0.53384   0.00000  Uiso   1.00
N647   N     0.47827   0.48556   0.73543   0.00000  Uiso   1.00
N648   N     0.52173   0.51444   0.76458   0.00000  Uiso   1.00
O649   O     0.63102   0.57963   0.75358   0.00000  Uiso   1.00
O650   O     0.39075   0.57038   0.74424   0.00000  Uiso   1.00
O651   O     0.64823   0.50691   0.83380   0.00000  Uiso   1.00
O652   O     0.40796   0.49766   0.82446   0.00000  Uiso   1.00
O653   O     0.60925   0.42962   0.75577   0.00000  Uiso   1.00
O654   O     0.36898   0.42037   0.74643   0.00000  Uiso   1.00
O655   O     0.59204   0.50234   0.67554   0.00000  Uiso   1.00
O656   O     0.35177   0.49309   0.66620   0.00000  Uiso   1.00
Zn657  Zn    0.60453   0.50618   0.75624   0.00000  Uiso   1.00
Zn658  Zn    0.39547   0.49382   0.74377   0.00000  Uiso   1.00
C659   C     0.68150   0.59818   0.74880   0.00000  Uiso   1.00
C660   C     0.71983   0.50138   0.91611   0.00000  Uiso   1.00
C661   C     0.68927   0.65277   0.74830   0.00000  Uiso   1.00
C662   C     0.70198   0.50125   0.85512   0.00000  Uiso   1.00
C663   C     0.97765   0.34727   0.75251   0.00000  Uiso   1.00
C664   C     0.98525   0.40184   0.75148   0.00000  Uiso   1.00
C665   C     0.96417   0.49614   0.64485   0.00000  Uiso   1.00
C666   C     0.93659   0.42987   0.50040   0.00000  Uiso   1.00
C667   C     0.94333   0.48599   0.58477   0.00000  Uiso   1.00
C668   C     0.69147   0.53167   0.95037   0.00000  Uiso   1.00
C669   C     0.71547   0.54197   0.50725   0.00000  Uiso   1.00
C670   C     0.79908   0.49508   0.99490   0.00000  Uiso   1.00
C671   C     0.76937   0.52491   0.52938   0.00000  Uiso   1.00
C672   C     0.84419   0.56481   0.78744   0.00000  Uiso   1.00
C673   C     0.77035   0.47803   0.93982   0.00000  Uiso   1.00
C674   C     0.85639   0.48172   0.51312   0.00000  Uiso   1.00
C675   C     0.88054   0.44482   0.98063   0.00000  Uiso   1.00
C676   C     0.84790   0.42268   0.92965   0.00000  Uiso   1.00
C677   C     0.79340   0.43908   0.90937   0.00000  Uiso   1.00
C678   C     0.89072   0.50482   0.56260   0.00000  Uiso   1.00
C679   C     0.96747   0.44947   0.55328   0.00000  Uiso   1.00
H680   H     0.67520   0.43446   0.57050   0.00000  Uiso   1.00
H681   H     0.76921   0.42057   0.86982   0.00000  Uiso   1.00
H682   H     0.73167   0.33652   0.74435   0.00000  Uiso   1.00
H683   H     0.88524   0.58351   0.81325   0.00000  Uiso   1.00
H684   H     0.82973   0.59046   0.75271   0.00000  Uiso   1.00
H685   H     0.81354   0.56152   0.81627   0.00000  Uiso   1.00
H686   H     0.93528   0.66353   0.75655   0.00000  Uiso   1.00
H687   H     0.82331   0.45339   0.71458   0.00000  Uiso   1.00
H688   H     0.86483   0.39332   0.90502   0.00000  Uiso   1.00
H689   H     0.95530   0.40144   0.97623   0.00000  Uiso   1.00
H690   H     0.87622   0.53603   0.58653   0.00000  Uiso   1.00
H691   H     0.98516   0.54888   0.93280   0.00000  Uiso   1.00
H692   H     0.78605   0.53450   0.57376   0.00000  Uiso   1.00
H693   H     0.69330   0.56491   0.53384   0.00000  Uiso   1.00
N694   N     0.81160   0.48556   0.73543   0.00000  Uiso   1.00
N695   N     0.85507   0.51444   0.76458   0.00000  Uiso   1.00
O696   O     0.96435   0.57963   0.75358   0.00000  Uiso   1.00
O697   O     0.72408   0.57038   0.74424   0.00000  Uiso   1.00
O698   O     0.98157   0.50691   0.83380   0.00000  Uiso   1.00
O699   O     0.74130   0.49766   0.82446   0.00000  Uiso   1.00
O700   O     0.94258   0.42962   0.75577   0.00000  Uiso   1.00
O701   O     0.70231   0.42037   0.74643   0.00000  Uiso   1.00
O702   O     0.92537   0.50234   0.67554   0.00000  Uiso   1.00
O703   O     0.68510   0.49309   0.66620   0.00000  Uiso   1.00
Zn704  Zn    0.93786   0.50618   0.75624   0.00000  Uiso   1.00
Zn705  Zn    0.72881   0.49382   0.74377   0.00000  Uiso   1.00
C706   C     0.01483   0.93151   0.74880   0.00000  Uiso   1.00
C707   C     0.05316   0.83471   0.91611   0.00000  Uiso   1.00
C708   C     0.02260   0.98611   0.74830   0.00000  Uiso   1.00
C709   C     0.03531   0.83458   0.85512   0.00000  Uiso   1.00
C710   C     0.31099   0.68061   0.75251   0.00000  Uiso   1.00
C711   C     0.31859   0.73517   0.75148   0.00000  Uiso   1.00
C712   C     0.29751   0.82948   0.64485   0.00000  Uiso   1.00
C713   C     0.26993   0.76320   0.50040   0.00000  Uiso   1.00
C714   C     0.27667   0.81932   0.58477   0.00000  Uiso   1.00
C715   C     0.02480   0.86500   0.95037   0.00000  Uiso   1.00
C716   C     0.04881   0.87531   0.50725   0.00000  Uiso   1.00
C717   C     0.13241   0.82842   0.99490   0.00000  Uiso   1.00
C718   C     0.10271   0.85825   0.52938   0.00000  Uiso   1.00
C719   C     0.17753   0.89814   0.78744   0.00000  Uiso   1.00
C720   C     0.10368   0.81137   0.93982   0.00000  Uiso   1.00
C721   C     0.18973   0.81505   0.51312   0.00000  Uiso   1.00
C722   C     0.21387   0.77815   0.98063   0.00000  Uiso   1.00
C723   C     0.18123   0.75601   0.92965   0.00000  Uiso   1.00
C724   C     0.12673   0.77241   0.90937   0.00000  Uiso   1.00
C725   C     0.22406   0.83815   0.56260   0.00000  Uiso   1.00
C726   C     0.30080   0.78280   0.55328   0.00000  Uiso   1.00
H727   H     0.00853   0.76779   0.57050   0.00000  Uiso   1.00
H728   H     0.10254   0.75390   0.86982   0.00000  Uiso   1.00
H729   H     0.06500   0.66985   0.74435   0.00000  Uiso   1.00
H730   H     0.21858   0.91684   0.81325   0.00000  Uiso   1.00
H731   H     0.16306   0.92380   0.75271   0.00000  Uiso   1.00
H732   H     0.14688   0.89485   0.81627   0.00000  Uiso   1.00
H733   H     0.26861   0.99686   0.75655   0.00000  Uiso   1.00
H734   H     0.15665   0.78672   0.71458   0.00000  Uiso   1.00
H735   H     0.19817   0.72665   0.90502   0.00000  Uiso   1.00
H736   H     0.28863   0.73477   0.97623   0.00000  Uiso   1.00
H737   H     0.20955   0.86936   0.58653   0.00000  Uiso   1.00
H738   H     0.31850   0.88221   0.93280   0.00000  Uiso   1.00
H739   H     0.11938   0.86783   0.57376   0.00000  Uiso   1.00
H740   H     0.02663   0.89825   0.53384   0.00000  Uiso   1.00
N741   N     0.14493   0.81890   0.73543   0.00000  Uiso   1.00
N742   N     0.18840   0.84777   0.76458   0.00000  Uiso   1.00
O743   O     0.29769   0.91296   0.75358   0.00000  Uiso   1.00
O744   O     0.05742   0.90371   0.74424   0.00000  Uiso   1.00
O745   O     0.31490   0.84024   0.83380   0.00000  Uiso   1.00
O746   O     0.07463   0.83099   0.82446   0.00000  Uiso   1.00
O747   O     0.27592   0.76296   0.75577   0.00000  Uiso   1.00
O748   O     0.03565   0.75371   0.74643   0.00000  Uiso   1.00
O749   O     0.25870   0.83567   0.67554   0.00000  Uiso   1.00
O750   O     0.01843   0.82642   0.66620   0.00000  Uiso   1.00
Zn751  Zn    0.27119   0.83951   0.75624   0.00000  Uiso   1.00
Zn752  Zn    0.06214   0.82716   0.74377   0.00000  Uiso   1.00
C753   C     0.34817   0.93151   0.74880   0.00000  Uiso   1.00
C754   C     0.38650   0.83471   0.91611   0.00000  Uiso   1.00
C755   C     0.35593   0.98611   0.74830   0.00000  Uiso   1.00
C756   C     0.36865   0.83458   0.85512   0.00000  Uiso   1.00
C757   C     0.64432   0.68061   0.75251   0.00000  Uiso   1.00
C758   C     0.65192   0.73517   0.75148   0.00000  Uiso   1.00
C759   C     0.63084   0.82948   0.64485   0.00000  Uiso   1.00
C760   C     0.60326   0.76320   0.50040   0.00000  Uiso   1.00
C761   C     0.61000   0.81932   0.58477   0.00000  Uiso   1.00
C762   C     0.35813   0.86500   0.95037   0.00000  Uiso   1.00
C763   C     0.38214   0.87531   0.50725   0.00000  Uiso   1.00
C764   C     0.46574   0.82842   0.99490   0.00000  Uiso   1.00
C765   C     0.43604   0.85825   0.52938   0.00000  Uiso   1.00
C766   C     0.51086   0.89814   0.78744   0.00000  Uiso   1.00
C767   C     0.43701   0.81137   0.93982   0.00000  Uiso   1.00
C768   C     0.52306   0.81505   0.51312   0.00000  Uiso   1.00
C769   C     0.54721   0.77815   0.98063   0.00000  Uiso   1.00
C770   C     0.51457   0.75601   0.92965   0.00000  Uiso   1.00
C771   C     0.46006   0.77241   0.90937   0.00000  Uiso   1.00
C772   C     0.55739   0.83815   0.56260   0.00000  Uiso   1.00
C773   C     0.63414   0.78280   0.55328   0.00000  Uiso   1.00
H774   H     0.34187   0.76779   0.57050   0.00000  Uiso   1.00
H775   H     0.43587   0.75390   0.86982   0.00000  Uiso   1.00
H776   H     0.39833   0.66985   0.74435   0.00000  Uiso   1.00
H777   H     0.55191   0.91684   0.81325   0.00000  Uiso   1.00
H778   H     0.49640   0.92380   0.75271   0.00000  Uiso   1.00
H779   H     0.48021   0.89485   0.81627   0.00000  Uiso   1.00
H780   H     0.60195   0.99686   0.75655   0.00000  Uiso   1.00
H781   H     0.48998   0.78672   0.71458   0.00000  Uiso   1.00
H782   H     0.53150   0.72665   0.90502   0.00000  Uiso   1.00
H783   H     0.62197   0.73477   0.97623   0.00000  Uiso   1.00
H784   H     0.54288   0.86936   0.58653   0.00000  Uiso   1.00
H785   H     0.65183   0.88221   0.93280   0.00000  Uiso   1.00
H786   H     0.45271   0.86783   0.57376   0.00000  Uiso   1.00
H787   H     0.35997   0.89825   0.53384   0.00000  Uiso   1.00
N788   N     0.47827   0.81890   0.73543   0.00000  Uiso   1.00
N789   N     0.52173   0.84777   0.76458   0.00000  Uiso   1.00
O790   O     0.63102   0.91296   0.75358   0.00000  Uiso   1.00
O791   O     0.39075   0.90371   0.74424   0.00000  Uiso   1.00
O792   O     0.64823   0.84024   0.83380   0.00000  Uiso   1.00
O793   O     0.40796   0.83099   0.82446   0.00000  Uiso   1.00
O794   O     0.60925   0.76296   0.75577   0.00000  Uiso   1.00
O795   O     0.36898   0.75371   0.74643   0.00000  Uiso   1.00
O796   O     0.59204   0.83567   0.67554   0.00000  Uiso   1.00
O797   O     0.35177   0.82642   0.66620   0.00000  Uiso   1.00
Zn798  Zn    0.60453   0.83951   0.75624   0.00000  Uiso   1.00
Zn799  Zn    0.39547   0.82716   0.74377   0.00000  Uiso   1.00
C800   C     0.68150   0.93151   0.74880   0.00000  Uiso   1.00
C801   C     0.71983   0.83471   0.91611   0.00000  Uiso   1.00
C802   C     0.68927   0.98611   0.74830   0.00000  Uiso   1.00
C803   C     0.70198   0.83458   0.85512   0.00000  Uiso   1.00
C804   C     0.97765   0.68061   0.75251   0.00000  Uiso   1.00
C805   C     0.98525   0.73517   0.75148   0.00000  Uiso   1.00
C806   C     0.96417   0.82948   0.64485   0.00000  Uiso   1.00
C807   C     0.93659   0.76320   0.50040   0.00000  Uiso   1.00
C808   C     0.94333   0.81932   0.58477   0.00000  Uiso   1.00
C809   C     0.69147   0.86500   0.95037   0.00000  Uiso   1.00
C810   C     0.71547   0.87531   0.50725   0.00000  Uiso   1.00
C811   C     0.79908   0.82842   0.99490   0.00000  Uiso   1.00
C812   C     0.76937   0.85825   0.52938   0.00000  Uiso   1.00
C813   C     0.84419   0.89814   0.78744   0.00000  Uiso   1.00
C814   C     0.77035   0.81137   0.93982   0.00000  Uiso   1.00
C815   C     0.85639   0.81505   0.51312   0.00000  Uiso   1.00
C816   C     0.88054   0.77815   0.98063   0.00000  Uiso   1.00
C817   C     0.84790   0.75601   0.92965   0.00000  Uiso   1.00
C818   C     0.79340   0.77241   0.90937   0.00000  Uiso   1.00
C819   C     0.89072   0.83815   0.56260   0.00000  Uiso   1.00
C820   C     0.96747   0.78280   0.55328   0.00000  Uiso   1.00
H821   H     0.67520   0.76779   0.57050   0.00000  Uiso   1.00
H822   H     0.76921   0.75390   0.86982   0.00000  Uiso   1.00
H823   H     0.73167   0.66985   0.74435   0.00000  Uiso   1.00
H824   H     0.88524   0.91684   0.81325   0.00000  Uiso   1.00
H825   H     0.82973   0.92380   0.75271   0.00000  Uiso   1.00
H826   H     0.81354   0.89485   0.81627   0.00000  Uiso   1.00
H827   H     0.93528   0.99686   0.75655   0.00000  Uiso   1.00
H828   H     0.82331   0.78672   0.71458   0.00000  Uiso   1.00
H829   H     0.86483   0.72665   0.90502   0.00000  Uiso   1.00
H830   H     0.95530   0.73477   0.97623   0.00000  Uiso   1.00
H831   H     0.87622   0.86936   0.58653   0.00000  Uiso   1.00
H832   H     0.98516   0.88221   0.93280   0.00000  Uiso   1.00
H833   H     0.78605   0.86783   0.57376   0.00000  Uiso   1.00
H834   H     0.69330   0.89825   0.53384   0.00000  Uiso   1.00
N835   N     0.81160   0.81890   0.73543   0.00000  Uiso   1.00
N836   N     0.85507   0.84777   0.76458   0.00000  Uiso   1.00
O837   O     0.96435   0.91296   0.75358   0.00000  Uiso   1.00
O838   O     0.72408   0.90371   0.74424   0.00000  Uiso   1.00
O839   O     0.98157   0.84024   0.83380   0.00000  Uiso   1.00
O840   O     0.74130   0.83099   0.82446   0.00000  Uiso   1.00
O841   O     0.94258   0.76296   0.75577   0.00000  Uiso   1.00
O842   O     0.70231   0.75371   0.74643   0.00000  Uiso   1.00
O843   O     0.92537   0.83567   0.67554   0.00000  Uiso   1.00
O844   O     0.68510   0.82642   0.66620   0.00000  Uiso   1.00
Zn845  Zn    0.93786   0.83951   0.75624   0.00000  Uiso   1.00
Zn846  Zn    0.72881   0.82716   0.74377   0.00000  Uiso   1.00
loop_
_geom_bond_atom_site_label_1
_geom_bond_atom_site_label_2
_geom_bond_distance
_geom_bond_site_symmetry_2
_ccdc_geom_bond_type
C1     O39     1.292   .     A
C1     C3      1.403   .     S
C1     O132    1.281   1_455 S
C2     C4      1.453   .     S
C2     C15     1.407   .     A
C2     C10     1.402   .     A
C3     C240    1.338   1_455 S
C3     H165    1.088   .     S
C4     O41     1.302   .     A
C4     O134    1.294   1_455 S
C5     C6      1.403   .     S
C5     C332    1.338   1_545 S
C5     H310    1.088   1_545 S
C6     O42     1.292   .     A
C6     O90     1.281   .     S
C7     O44     1.300   .     A
C7     C9      1.445   .     S
C7     O92     1.294   .     S
C8     C21     1.394   .     A
C8     C440    1.404   1_554 S
C8     H454    1.084   1_554 S
C9     C20     1.384   .     A
C9     C21     1.400   .     A
C10    C434    1.387   .     S
C10    H127    1.083   1_455 S
C11    H35     1.083   .     S
C11    C13     1.391   .     A
C11    C433    1.387   1_554 S
C12    C15     1.405   .     A
C12    C436    1.420   .     S
C12    C439    1.411   .     S
C13    H34     1.079   .     S
C13    C435    1.420   1_554 S
C14    H27     1.100   .     S
C14    H26     1.110   .     S
C14    N37     1.441   .     S
C14    H25     1.108   .     S
C15    C19     1.414   .     A
C16    C20     1.388   .     A
C16    C435    1.411   1_554 S
C16    C440    1.421   1_554 S
C17    C18     1.392   .     A
C17    C431    1.404   .     S
C17    C439    1.421   .     S
C18    H30     1.084   .     S
C18    C19     1.387   .     A
C19    H23     1.082   .     S
C20    H32     1.080   .     S
C21    H69     1.083   .     S
H22    C115    1.083   1_455 S
H24    C285    1.088   1_545 S
H28    C146    1.088   .     S
H29    N36     1.029   .     S
H31    C431    1.084   .     S
H33    C57     1.083   .     S
N36    N37     1.288   .     D
N36    Zn47    2.028   .     S
N37    Zn46    2.028   .     S
O38    Zn46    1.954   .     S
O38    C48     1.281   .     S
O39    Zn47    1.977   .     S
O40    Zn46    1.956   .     S
O40    C51     1.294   .     S
O41    Zn47    1.913   .     S
O42    Zn46    1.977   .     S
O43    Zn47    1.954   .     S
O43    C100    1.281   1_455 S
O44    Zn46    1.913   .     S
O45    Zn47    1.956   .     S
O45    C101    1.294   1_455 S
C48    O86     1.292   .     A
C48    C50     1.403   .     S
C49    C51     1.453   .     S
C49    C62     1.407   .     A
C49    C57     1.402   .     A
C50    C146    1.338   .     S
C50    H212    1.088   .     S
C51    O88     1.302   .     A
C52    C53     1.403   .     S
C52    C379    1.338   1_545 S
C52    H357    1.088   1_545 S
C53    O89     1.292   .     A
C53    O137    1.281   .     S
C54    O91     1.300   .     A
C54    C56     1.445   .     S
C54    O139    1.294   .     S
C55    C68     1.394   .     A
C55    C487    1.404   1_554 S
C55    H501    1.084   1_554 S
C56    C67     1.384   .     A
C56    C68     1.400   .     A
C57    C481    1.387   .     S
C58    H82     1.083   .     S
C58    C60     1.391   .     A
C58    C480    1.387   1_554 S
C59    C62     1.405   .     A
C59    C483    1.420   .     S
C59    C486    1.411   .     S
C60    H81     1.079   .     S
C60    C482    1.420   1_554 S
C61    H74     1.100   .     S
C61    H73     1.110   .     S
C61    N84     1.441   .     S
C61    H72     1.108   .     S
C62    C66     1.414   .     A
C63    C67     1.388   .     A
C63    C482    1.411   1_554 S
C63    C487    1.421   1_554 S
C64    C65     1.392   .     A
C64    C478    1.404   .     S
C64    C486    1.421   .     S
C65    H77     1.084   .     S
C65    C66     1.387   .     A
C66    H70     1.082   .     S
C67    H79     1.080   .     S
C68    H116    1.083   .     S
H71    C332    1.088   1_545 S
H75    C193    1.088   .     S
H76    N83     1.029   .     S
H78    C478    1.084   .     S
H80    C104    1.083   .     S
N83    N84     1.288   .     D
N83    Zn94    2.028   .     S
N84    Zn93    2.028   .     S
O85    Zn93    1.954   .     S
O85    C95     1.281   .     S
O86    Zn94    1.977   .     S
O87    Zn93    1.956   .     S
O87    C98     1.294   .     S
O88    Zn94    1.913   .     S
O89    Zn93    1.977   .     S
O90    Zn94    1.954   .     S
O91    Zn93    1.913   .     S
O92    Zn94    1.956   .     S
C95    O133    1.292   .     A
C95    C97     1.403   .     S
C96    C98     1.453   .     S
C96    C109    1.407   .     A
C96    C104    1.402   .     A
C97    C193    1.338   .     S
C97    H259    1.088   .     S
C98    O135    1.302   .     A
C99    C100    1.403   .     S
C99    C285    1.338   1_645 S
C99    H404    1.088   1_545 S
C100   O136    1.292   .     A
C100   O43     1.281   1_655 S
C101   O138    1.300   .     A
C101   C103    1.445   .     S
C101   O45     1.294   1_655 S
C102   C115    1.394   .     A
C102   C534    1.404   1_554 S
C102   H548    1.084   1_554 S
C103   C114    1.384   .     A
C103   C115    1.400   .     A
C104   C528    1.387   .     S
C105   H129    1.083   .     S
C105   C107    1.391   .     A
C105   C527    1.387   1_554 S
C106   C109    1.405   .     A
C106   C530    1.420   .     S
C106   C533    1.411   .     S
C107   H128    1.079   .     S
C107   C529    1.420   1_554 S
C108   H121    1.100   .     S
C108   H120    1.110   .     S
C108   N131    1.441   .     S
C108   H119    1.108   .     S
C109   C113    1.414   .     A
C110   C114    1.388   .     A
C110   C529    1.411   1_554 S
C110   C534    1.421   1_554 S
C111   C112    1.392   .     A
C111   C525    1.404   .     S
C111   C533    1.421   .     S
C112   H124    1.084   .     S
C112   C113    1.387   .     A
C113   H117    1.082   .     S
C114   H126    1.080   .     S
C115   H22     1.083   1_655 S
H118   C379    1.088   1_545 S
H122   C240    1.088   .     S
H123   N130    1.029   .     S
H125   C525    1.084   .     S
H127   C10     1.083   1_655 S
N130   N131    1.288   .     D
N130   Zn141   2.028   .     S
N131   Zn140   2.028   .     S
O132   Zn140   1.954   .     S
O132   C1      1.281   1_655 S
O133   Zn141   1.977   .     S
O134   Zn140   1.956   .     S
O134   C4      1.294   1_655 S
O135   Zn141   1.913   .     S
O136   Zn140   1.977   .     S
O137   Zn141   1.954   .     S
O138   Zn140   1.913   .     S
O139   Zn141   1.956   .     S
C142   O180    1.292   .     A
C142   C144    1.403   .     S
C142   O273    1.281   1_455 S
C143   C145    1.453   .     S
C143   C156    1.407   .     A
C143   C151    1.402   .     A
C144   C381    1.338   1_455 S
C144   H306    1.088   .     S
C145   O182    1.302   .     A
C145   O275    1.294   1_455 S
C146   C147    1.403   .     S
C147   O183    1.292   .     A
C147   O231    1.281   .     S
C148   O185    1.300   .     A
C148   C150    1.445   .     S
C148   O233    1.294   .     S
C149   C162    1.394   .     A
C149   C581    1.404   1_554 S
C149   H595    1.084   1_554 S
C150   C161    1.384   .     A
C150   C162    1.400   .     A
C151   C575    1.387   .     S
C151   H268    1.083   1_455 S
C152   H176    1.083   .     S
C152   C154    1.391   .     A
C152   C574    1.387   1_554 S
C153   C156    1.405   .     A
C153   C577    1.420   .     S
C153   C580    1.411   .     S
C154   H175    1.079   .     S
C154   C576    1.420   1_554 S
C155   H168    1.100   .     S
C155   H167    1.110   .     S
C155   N178    1.441   .     S
C155   H166    1.108   .     S
C156   C160    1.414   .     A
C157   C161    1.388   .     A
C157   C576    1.411   1_554 S
C157   C581    1.421   1_554 S
C158   C159    1.392   .     A
C158   C572    1.404   .     S
C158   C580    1.421   .     S
C159   H171    1.084   .     S
C159   C160    1.387   .     A
C160   H164    1.082   .     S
C161   H173    1.080   .     S
C162   H210    1.083   .     S
H163   C256    1.083   1_455 S
H169   C287    1.088   .     S
H170   N177    1.029   .     S
H172   C572    1.084   .     S
H174   C198    1.083   .     S
N177   N178    1.288   .     D
N177   Zn188   2.028   .     S
N178   Zn187   2.028   .     S
O179   Zn187   1.954   .     S
O179   C189    1.281   .     S
O180   Zn188   1.977   .     S
O181   Zn187   1.956   .     S
O181   C192    1.294   .     S
O182   Zn188   1.913   .     S
O183   Zn187   1.977   .     S
O184   Zn188   1.954   .     S
O184   C241    1.281   1_455 S
O185   Zn187   1.913   .     S
O186   Zn188   1.956   .     S
O186   C242    1.294   1_455 S
C189   O227    1.292   .     A
C189   C191    1.403   .     S
C190   C192    1.453   .     S
C190   C203    1.407   .     A
C190   C198    1.402   .     A
C191   C287    1.338   .     S
C191   H353    1.088   .     S
C192   O229    1.302   .     A
C193   C194    1.403   .     S
C194   O230    1.292   .     A
C194   O278    1.281   .     S
C195   O232    1.300   .     A
C195   C197    1.445   .     S
C195   O280    1.294   .     S
C196   C209    1.394   .     A
C196   C628    1.404   1_554 S
C196   H642    1.084   1_554 S
C197   C208    1.384   .     A
C197   C209    1.400   .     A
C198   C622    1.387   .     S
C199   H223    1.083   .     S
C199   C201    1.391   .     A
C199   C621    1.387   1_554 S
C200   C203    1.405   .     A
C200   C624    1.420   .     S
C200   C627    1.411   .     S
C201   H222    1.079   .     S
C201   C623    1.420   1_554 S
C202   H215    1.100   .     S
C202   H214    1.110   .     S
C202   N225    1.441   .     S
C202   H213    1.108   .     S
C203   C207    1.414   .     A
C204   C208    1.388   .     A
C204   C623    1.411   1_554 S
C204   C628    1.421   1_554 S
C205   C206    1.392   .     A
C205   C619    1.404   .     S
C205   C627    1.421   .     S
C206   H218    1.084   .     S
C206   C207    1.387   .     A
C207   H211    1.082   .     S
C208   H220    1.080   .     S
C209   H257    1.083   .     S
H216   C334    1.088   .     S
H217   N224    1.029   .     S
H219   C619    1.084   .     S
H221   C245    1.083   .     S
N224   N225    1.288   .     D
N224   Zn235   2.028   .     S
N225   Zn234   2.028   .     S
O226   Zn234   1.954   .     S
O226   C236    1.281   .     S
O227   Zn235   1.977   .     S
O228   Zn234   1.956   .     S
O228   C239    1.294   .     S
O229   Zn235   1.913   .     S
O230   Zn234   1.977   .     S
O231   Zn235   1.954   .     S
O232   Zn234   1.913   .     S
O233   Zn235   1.956   .     S
C236   O274    1.292   .     A
C236   C238    1.403   .     S
C237   C239    1.453   .     S
C237   C250    1.407   .     A
C237   C245    1.402   .     A
C238   C334    1.338   .     S
C238   H400    1.088   .     S
C239   O276    1.302   .     A
C240   C241    1.403   .     S
C240   C3      1.338   1_655 S
C241   O277    1.292   .     A
C241   O184    1.281   1_655 S
C242   O279    1.300   .     A
C242   C244    1.445   .     S
C242   O186    1.294   1_655 S
C243   C256    1.394   .     A
C243   C675    1.404   1_554 S
C243   H689    1.084   1_554 S
C244   C255    1.384   .     A
C244   C256    1.400   .     A
C245   C669    1.387   .     S
C246   H270    1.083   .     S
C246   C248    1.391   .     A
C246   C668    1.387   1_554 S
C247   C250    1.405   .     A
C247   C671    1.420   .     S
C247   C674    1.411   .     S
C248   H269    1.079   .     S
C248   C670    1.420   1_554 S
C249   H262    1.100   .     S
C249   H261    1.110   .     S
C249   N272    1.441   .     S
C249   H260    1.108   .     S
C250   C254    1.414   .     A
C251   C255    1.388   .     A
C251   C670    1.411   1_554 S
C251   C675    1.421   1_554 S
C252   C253    1.392   .     A
C252   C666    1.404   .     S
C252   C674    1.421   .     S
C253   H265    1.084   .     S
C253   C254    1.387   .     A
C254   H258    1.082   .     S
C255   H267    1.080   .     S
C256   H163    1.083   1_655 S
H263   C381    1.088   .     S
H264   N271    1.029   .     S
H266   C666    1.084   .     S
H268   C151    1.083   1_655 S
N271   N272    1.288   .     D
N271   Zn282   2.028   .     S
N272   Zn281   2.028   .     S
O273   Zn281   1.954   .     S
O273   C142    1.281   1_655 S
O274   Zn282   1.977   .     S
O275   Zn281   1.956   .     S
O275   C145    1.294   1_655 S
O276   Zn282   1.913   .     S
O277   Zn281   1.977   .     S
O278   Zn282   1.954   .     S
O279   Zn281   1.913   .     S
O280   Zn282   1.956   .     S
C283   O321    1.292   .     A
C283   C285    1.403   .     S
C283   O414    1.281   1_455 S
C284   C286    1.453   .     S
C284   C297    1.407   .     A
C284   C292    1.402   .     A
C285   C99     1.338   1_465 S
C285   H24     1.088   1_565 S
C286   O323    1.302   .     A
C286   O416    1.294   1_455 S
C287   C288    1.403   .     S
C288   O324    1.292   .     A
C288   O372    1.281   .     S
C289   O326    1.300   .     A
C289   C291    1.445   .     S
C289   O374    1.294   .     S
C290   C303    1.394   .     A
C290   C722    1.404   1_554 S
C290   H736    1.084   1_554 S
C291   C302    1.384   .     A
C291   C303    1.400   .     A
C292   C716    1.387   .     S
C292   H409    1.083   1_455 S
C293   H317    1.083   .     S
C293   C295    1.391   .     A
C293   C715    1.387   1_554 S
C294   C297    1.405   .     A
C294   C718    1.420   .     S
C294   C721    1.411   .     S
C295   H316    1.079   .     S
C295   C717    1.420   1_554 S
C296   H309    1.100   .     S
C296   H308    1.110   .     S
C296   N319    1.441   .     S
C296   H307    1.108   .     S
C297   C301    1.414   .     A
C298   C302    1.388   .     A
C298   C717    1.411   1_554 S
C298   C722    1.421   1_554 S
C299   C300    1.392   .     A
C299   C713    1.404   .     S
C299   C721    1.421   .     S
C300   H312    1.084   .     S
C300   C301    1.387   .     A
C301   H305    1.082   .     S
C302   H314    1.080   .     S
C303   H351    1.083   .     S
H304   C397    1.083   1_455 S
H310   C5      1.088   1_565 S
H311   N318    1.029   .     S
H313   C713    1.084   .     S
H315   C339    1.083   .     S
N318   N319    1.288   .     D
N318   Zn329   2.028   .     S
N319   Zn328   2.028   .     S
O320   Zn328   1.954   .     S
O320   C330    1.281   .     S
O321   Zn329   1.977   .     S
O322   Zn328   1.956   .     S
O322   C333    1.294   .     S
O323   Zn329   1.913   .     S
O324   Zn328   1.977   .     S
O325   Zn329   1.954   .     S
O325   C382    1.281   1_455 S
O326   Zn328   1.913   .     S
O327   Zn329   1.956   .     S
O327   C383    1.294   1_455 S
C330   O368    1.292   .     A
C330   C332    1.403   .     S
C331   C333    1.453   .     S
C331   C344    1.407   .     A
C331   C339    1.402   .     A
C332   C5      1.338   1_565 S
C332   H71     1.088   1_565 S
C333   O370    1.302   .     A
C334   C335    1.403   .     S
C335   O371    1.292   .     A
C335   O419    1.281   .     S
C336   O373    1.300   .     A
C336   C338    1.445   .     S
C336   O421    1.294   .     S
C337   C350    1.394   .     A
C337   C769    1.404   1_554 S
C337   H783    1.084   1_554 S
C338   C349    1.384   .     A
C338   C350    1.400   .     A
C339   C763    1.387   .     S
C340   H364    1.083   .     S
C340   C342    1.391   .     A
C340   C762    1.387   1_554 S
C341   C344    1.405   .     A
C341   C765    1.420   .     S
C341   C768    1.411   .     S
C342   H363    1.079   .     S
C342   C764    1.420   1_554 S
C343   H356    1.100   .     S
C343   H355    1.110   .     S
C343   N366    1.441   .     S
C343   H354    1.108   .     S
C344   C348    1.414   .     A
C345   C349    1.388   .     A
C345   C764    1.411   1_554 S
C345   C769    1.421   1_554 S
C346   C347    1.392   .     A
C346   C760    1.404   .     S
C346   C768    1.421   .     S
C347   H359    1.084   .     S
C347   C348    1.387   .     A
C348   H352    1.082   .     S
C349   H361    1.080   .     S
C350   H398    1.083   .     S
H357   C52     1.088   1_565 S
H358   N365    1.029   .     S
H360   C760    1.084   .     S
H362   C386    1.083   .     S
N365   N366    1.288   .     D
N365   Zn376   2.028   .     S
N366   Zn375   2.028   .     S
O367   Zn375   1.954   .     S
O367   C377    1.281   .     S
O368   Zn376   1.977   .     S
O369   Zn375   1.956   .     S
O369   C380    1.294   .     S
O370   Zn376   1.913   .     S
O371   Zn375   1.977   .     S
O372   Zn376   1.954   .     S
O373   Zn375   1.913   .     S
O374   Zn376   1.956   .     S
C377   O415    1.292   .     A
C377   C379    1.403   .     S
C378   C380    1.453   .     S
C378   C391    1.407   .     A
C378   C386    1.402   .     A
C379   C52     1.338   1_565 S
C379   H118    1.088   1_565 S
C380   O417    1.302   .     A
C381   C382    1.403   .     S
C381   C144    1.338   1_655 S
C382   O418    1.292   .     A
C382   O325    1.281   1_655 S
C383   O420    1.300   .     A
C383   C385    1.445   .     S
C383   O327    1.294   1_655 S
C384   C397    1.394   .     A
C384   C816    1.404   1_554 S
C384   H830    1.084   1_554 S
C385   C396    1.384   .     A
C385   C397    1.400   .     A
C386   C810    1.387   .     S
C387   H411    1.083   .     S
C387   C389    1.391   .     A
C387   C809    1.387   1_554 S
C388   C391    1.405   .     A
C388   C812    1.420   .     S
C388   C815    1.411   .     S
C389   H410    1.079   .     S
C389   C811    1.420   1_554 S
C390   H403    1.100   .     S
C390   H402    1.110   .     S
C390   N413    1.441   .     S
C390   H401    1.108   .     S
C391   C395    1.414   .     A
C392   C396    1.388   .     A
C392   C811    1.411   1_554 S
C392   C816    1.421   1_554 S
C393   C394    1.392   .     A
C393   C807    1.404   .     S
C393   C815    1.421   .     S
C394   H406    1.084   .     S
C394   C395    1.387   .     A
C395   H399    1.082   .     S
C396   H408    1.080   .     S
C397   H304    1.083   1_655 S
H404   C99     1.088   1_565 S
H405   N412    1.029   .     S
H407   C807    1.084   .     S
H409   C292    1.083   1_655 S
N412   N413    1.288   .     D
N412   Zn423   2.028   .     S
N413   Zn422   2.028   .     S
O414   Zn422   1.954   .     S
O414   C283    1.281   1_655 S
O415   Zn423   1.977   .     S
O416   Zn422   1.956   .     S
O416   C286    1.294   1_655 S
O417   Zn423   1.913   .     S
O418   Zn422   1.977   .     S
O419   Zn423   1.954   .     S
O420   Zn422   1.913   .     S
O421   Zn423   1.956   .     S
C424   O462    1.292   .     A
C424   C426    1.403   .     S
C424   O555    1.281   1_455 S
C425   C427    1.453   .     S
C425   C438    1.407   .     A
C425   C433    1.402   .     A
C426   C663    1.338   1_455 S
C426   H588    1.088   .     S
C427   O464    1.302   .     A
C427   O557    1.294   1_455 S
C428   C429    1.403   .     S
C428   C755    1.338   1_545 S
C428   H733    1.088   1_545 S
C429   O465    1.292   .     A
C429   O513    1.281   .     S
C430   O467    1.300   .     A
C430   C432    1.445   .     S
C430   O515    1.294   .     S
C431   C444    1.394   .     A
C432   C443    1.384   .     A
C432   C444    1.400   .     A
C433   C11     1.387   1_556 S
C433   H550    1.083   1_455 S
C434   H458    1.083   .     S
C434   C436    1.391   .     A
C435   C438    1.405   .     A
C435   C13     1.420   1_556 S
C435   C16     1.411   1_556 S
C436   H457    1.079   .     S
C437   H450    1.100   .     S
C437   H449    1.110   .     S
C437   N460    1.441   .     S
C437   H448    1.108   .     S
C438   C442    1.414   .     A
C439   C443    1.388   .     A
C440   C441    1.392   .     A
C440   C8      1.404   1_556 S
C440   C16     1.421   1_556 S
C441   H453    1.084   .     S
C441   C442    1.387   .     A
C442   H446    1.082   .     S
C443   H455    1.080   .     S
C444   H492    1.083   .     S
H445   C538    1.083   1_455 S
H447   C708    1.088   1_545 S
H451   C569    1.088   .     S
H452   N459    1.029   .     S
H454   C8      1.084   1_556 S
H456   C480    1.083   .     S
N459   N460    1.288   .     D
N459   Zn470   2.028   .     S
N460   Zn469   2.028   .     S
O461   Zn469   1.954   .     S
O461   C471    1.281   .     S
O462   Zn470   1.977   .     S
O463   Zn469   1.956   .     S
O463   C474    1.294   .     S
O464   Zn470   1.913   .     S
O465   Zn469   1.977   .     S
O466   Zn470   1.954   .     S
O466   C523    1.281   1_455 S
O467   Zn469   1.913   .     S
O468   Zn470   1.956   .     S
O468   C524    1.294   1_455 S
C471   O509    1.292   .     A
C471   C473    1.403   .     S
C472   C474    1.453   .     S
C472   C485    1.407   .     A
C472   C480    1.402   .     A
C473   C569    1.338   .     S
C473   H635    1.088   .     S
C474   O511    1.302   .     A
C475   C476    1.403   .     S
C475   C802    1.338   1_545 S
C475   H780    1.088   1_545 S
C476   O512    1.292   .     A
C476   O560    1.281   .     S
C477   O514    1.300   .     A
C477   C479    1.445   .     S
C477   O562    1.294   .     S
C478   C491    1.394   .     A
C479   C490    1.384   .     A
C479   C491    1.400   .     A
C480   C58     1.387   1_556 S
C481   H505    1.083   .     S
C481   C483    1.391   .     A
C482   C485    1.405   .     A
C482   C60     1.420   1_556 S
C482   C63     1.411   1_556 S
C483   H504    1.079   .     S
C484   H497    1.100   .     S
C484   H496    1.110   .     S
C484   N507    1.441   .     S
C484   H495    1.108   .     S
C485   C489    1.414   .     A
C486   C490    1.388   .     A
C487   C488    1.392   .     A
C487   C55     1.404   1_556 S
C487   C63     1.421   1_556 S
C488   H500    1.084   .     S
C488   C489    1.387   .     A
C489   H493    1.082   .     S
C490   H502    1.080   .     S
C491   H539    1.083   .     S
H494   C755    1.088   1_545 S
H498   C616    1.088   .     S
H499   N506    1.029   .     S
H501   C55     1.084   1_556 S
H503   C527    1.083   .     S
N506   N507    1.288   .     D
N506   Zn517   2.028   .     S
N507   Zn516   2.028   .     S
O508   Zn516   1.954   .     S
O508   C518    1.281   .     S
O509   Zn517   1.977   .     S
O510   Zn516   1.956   .     S
O510   C521    1.294   .     S
O511   Zn517   1.913   .     S
O512   Zn516   1.977   .     S
O513   Zn517   1.954   .     S
O514   Zn516   1.913   .     S
O515   Zn517   1.956   .     S
C518   O556    1.292   .     A
C518   C520    1.403   .     S
C519   C521    1.453   .     S
C519   C532    1.407   .     A
C519   C527    1.402   .     A
C520   C616    1.338   .     S
C520   H682    1.088   .     S
C521   O558    1.302   .     A
C522   C523    1.403   .     S
C522   C708    1.338   1_645 S
C522   H827    1.088   1_545 S
C523   O559    1.292   .     A
C523   O466    1.281   1_655 S
C524   O561    1.300   .     A
C524   C526    1.445   .     S
C524   O468    1.294   1_655 S
C525   C538    1.394   .     A
C526   C537    1.384   .     A
C526   C538    1.400   .     A
C527   C105    1.387   1_556 S
C528   H552    1.083   .     S
C528   C530    1.391   .     A
C529   C532    1.405   .     A
C529   C107    1.420   1_556 S
C529   C110    1.411   1_556 S
C530   H551    1.079   .     S
C531   H544    1.100   .     S
C531   H543    1.110   .     S
C531   N554    1.441   .     S
C531   H542    1.108   .     S
C532   C536    1.414   .     A
C533   C537    1.388   .     A
C534   C535    1.392   .     A
C534   C102    1.404   1_556 S
C534   C110    1.421   1_556 S
C535   H547    1.084   .     S
C535   C536    1.387   .     A
C536   H540    1.082   .     S
C537   H549    1.080   .     S
C538   H445    1.083   1_655 S
H541   C802    1.088   1_545 S
H545   C663    1.088   .     S
H546   N553    1.029   .     S
H548   C102    1.084   1_556 S
H550   C433    1.083   1_655 S
N553   N554    1.288   .     D
N553   Zn564   2.028   .     S
N554   Zn563   2.028   .     S
O555   Zn563   1.954   .     S
O555   C424    1.281   1_655 S
O556   Zn564   1.977   .     S
O557   Zn563   1.956   .     S
O557   C427    1.294   1_655 S
O558   Zn564   1.913   .     S
O559   Zn563   1.977   .     S
O560   Zn564   1.954   .     S
O561   Zn563   1.913   .     S
O562   Zn564   1.956   .     S
C565   O603    1.292   .     A
C565   C567    1.403   .     S
C565   O696    1.281   1_455 S
C566   C568    1.453   .     S
C566   C579    1.407   .     A
C566   C574    1.402   .     A
C567   C804    1.338   1_455 S
C567   H729    1.088   .     S
C568   O605    1.302   .     A
C568   O698    1.294   1_455 S
C569   C570    1.403   .     S
C570   O606    1.292   .     A
C570   O654    1.281   .     S
C571   O608    1.300   .     A
C571   C573    1.445   .     S
C571   O656    1.294   .     S
C572   C585    1.394   .     A
C573   C584    1.384   .     A
C573   C585    1.400   .     A
C574   C152    1.387   1_556 S
C574   H691    1.083   1_455 S
C575   H599    1.083   .     S
C575   C577    1.391   .     A
C576   C579    1.405   .     A
C576   C154    1.420   1_556 S
C576   C157    1.411   1_556 S
C577   H598    1.079   .     S
C578   H591    1.100   .     S
C578   H590    1.110   .     S
C578   N601    1.441   .     S
C578   H589    1.108   .     S
C579   C583    1.414   .     A
C580   C584    1.388   .     A
C581   C582    1.392   .     A
C581   C149    1.404   1_556 S
C581   C157    1.421   1_556 S
C582   H594    1.084   .     S
C582   C583    1.387   .     A
C583   H587    1.082   .     S
C584   H596    1.080   .     S
C585   H633    1.083   .     S
H586   C679    1.083   1_455 S
H592   C710    1.088   .     S
H593   N600    1.029   .     S
H595   C149    1.084   1_556 S
H597   C621    1.083   .     S
N600   N601    1.288   .     D
N600   Zn611   2.028   .     S
N601   Zn610   2.028   .     S
O602   Zn610   1.954   .     S
O602   C612    1.281   .     S
O603   Zn611   1.977   .     S
O604   Zn610   1.956   .     S
O604   C615    1.294   .     S
O605   Zn611   1.913   .     S
O606   Zn610   1.977   .     S
O607   Zn611   1.954   .     S
O607   C664    1.281   1_455 S
O608   Zn610   1.913   .     S
O609   Zn611   1.956   .     S
O609   C665    1.294   1_455 S
C612   O650    1.292   .     A
C612   C614    1.403   .     S
C613   C615    1.453   .     S
C613   C626    1.407   .     A
C613   C621    1.402   .     A
C614   C710    1.338   .     S
C614   H776    1.088   .     S
C615   O652    1.302   .     A
C616   C617    1.403   .     S
C617   O653    1.292   .     A
C617   O701    1.281   .     S
C618   O655    1.300   .     A
C618   C620    1.445   .     S
C618   O703    1.294   .     S
C619   C632    1.394   .     A
C620   C631    1.384   .     A
C620   C632    1.400   .     A
C621   C199    1.387   1_556 S
C622   H646    1.083   .     S
C622   C624    1.391   .     A
C623   C626    1.405   .     A
C623   C201    1.420   1_556 S
C623   C204    1.411   1_556 S
C624   H645    1.079   .     S
C625   H638    1.100   .     S
C625   H637    1.110   .     S
C625   N648    1.441   .     S
C625   H636    1.108   .     S
C626   C630    1.414   .     A
C627   C631    1.388   .     A
C628   C629    1.392   .     A
C628   C196    1.404   1_556 S
C628   C204    1.421   1_556 S
C629   H641    1.084   .     S
C629   C630    1.387   .     A
C630   H634    1.082   .     S
C631   H643    1.080   .     S
C632   H680    1.083   .     S
H639   C757    1.088   .     S
H640   N647    1.029   .     S
H642   C196    1.084   1_556 S
H644   C668    1.083   .     S
N647   N648    1.288   .     D
N647   Zn658   2.028   .     S
N648   Zn657   2.028   .     S
O649   Zn657   1.954   .     S
O649   C659    1.281   .     S
O650   Zn658   1.977   .     S
O651   Zn657   1.956   .     S
O651   C662    1.294   .     S
O652   Zn658   1.913   .     S
O653   Zn657   1.977   .     S
O654   Zn658   1.954   .     S
O655   Zn657   1.913   .     S
O656   Zn658   1.956   .     S
C659   O697    1.292   .     A
C659   C661    1.403   .     S
C660   C662    1.453   .     S
C660   C673    1.407   .     A
C660   C668    1.402   .     A
C661   C757    1.338   .     S
C661   H823    1.088   .     S
C662   O699    1.302   .     A
C663   C664    1.403   .     S
C663   C426    1.338   1_655 S
C664   O700    1.292   .     A
C664   O607    1.281   1_655 S
C665   O702    1.300   .     A
C665   C667    1.445   .     S
C665   O609    1.294   1_655 S
C666   C679    1.394   .     A
C667   C678    1.384   .     A
C667   C679    1.400   .     A
C668   C246    1.387   1_556 S
C669   H693    1.083   .     S
C669   C671    1.391   .     A
C670   C673    1.405   .     A
C670   C248    1.420   1_556 S
C670   C251    1.411   1_556 S
C671   H692    1.079   .     S
C672   H685    1.100   .     S
C672   H684    1.110   .     S
C672   N695    1.441   .     S
C672   H683    1.108   .     S
C673   C677    1.414   .     A
C674   C678    1.388   .     A
C675   C676    1.392   .     A
C675   C243    1.404   1_556 S
C675   C251    1.421   1_556 S
C676   H688    1.084   .     S
C676   C677    1.387   .     A
C677   H681    1.082   .     S
C678   H690    1.080   .     S
C679   H586    1.083   1_655 S
H686   C804    1.088   .     S
H687   N694    1.029   .     S
H689   C243    1.084   1_556 S
H691   C574    1.083   1_655 S
N694   N695    1.288   .     D
N694   Zn705   2.028   .     S
N695   Zn704   2.028   .     S
O696   Zn704   1.954   .     S
O696   C565    1.281   1_655 S
O697   Zn705   1.977   .     S
O698   Zn704   1.956   .     S
O698   C568    1.294   1_655 S
O699   Zn705   1.913   .     S
O700   Zn704   1.977   .     S
O701   Zn705   1.954   .     S
O702   Zn704   1.913   .     S
O703   Zn705   1.956   .     S
C706   O744    1.292   .     A
C706   C708    1.403   .     S
C706   O837    1.281   1_455 S
C707   C709    1.453   .     S
C707   C720    1.407   .     A
C707   C715    1.402   .     A
C708   C522    1.338   1_465 S
C708   H447    1.088   1_565 S
C709   O746    1.302   .     A
C709   O839    1.294   1_455 S
C710   C711    1.403   .     S
C711   O747    1.292   .     A
C711   O795    1.281   .     S
C712   O749    1.300   .     A
C712   C714    1.445   .     S
C712   O797    1.294   .     S
C713   C726    1.394   .     A
C714   C725    1.384   .     A
C714   C726    1.400   .     A
C715   C293    1.387   1_556 S
C715   H832    1.083   1_455 S
C716   H740    1.083   .     S
C716   C718    1.391   .     A
C717   C720    1.405   .     A
C717   C295    1.420   1_556 S
C717   C298    1.411   1_556 S
C718   H739    1.079   .     S
C719   H732    1.100   .     S
C719   H731    1.110   .     S
C719   N742    1.441   .     S
C719   H730    1.108   .     S
C720   C724    1.414   .     A
C721   C725    1.388   .     A
C722   C723    1.392   .     A
C722   C290    1.404   1_556 S
C722   C298    1.421   1_556 S
C723   H735    1.084   .     S
C723   C724    1.387   .     A
C724   H728    1.082   .     S
C725   H737    1.080   .     S
C726   H774    1.083   .     S
H727   C820    1.083   1_455 S
H733   C428    1.088   1_565 S
H734   N741    1.029   .     S
H736   C290    1.084   1_556 S
H738   C762    1.083   .     S
N741   N742    1.288   .     D
N741   Zn752   2.028   .     S
N742   Zn751   2.028   .     S
O743   Zn751   1.954   .     S
O743   C753    1.281   .     S
O744   Zn752   1.977   .     S
O745   Zn751   1.956   .     S
O745   C756    1.294   .     S
O746   Zn752   1.913   .     S
O747   Zn751   1.977   .     S
O748   Zn752   1.954   .     S
O748   C805    1.281   1_455 S
O749   Zn751   1.913   .     S
O750   Zn752   1.956   .     S
O750   C806    1.294   1_455 S
C753   O791    1.292   .     A
C753   C755    1.403   .     S
C754   C756    1.453   .     S
C754   C767    1.407   .     A
C754   C762    1.402   .     A
C755   C428    1.338   1_565 S
C755   H494    1.088   1_565 S
C756   O793    1.302   .     A
C757   C758    1.403   .     S
C758   O794    1.292   .     A
C758   O842    1.281   .     S
C759   O796    1.300   .     A
C759   C761    1.445   .     S
C759   O844    1.294   .     S
C760   C773    1.394   .     A
C761   C772    1.384   .     A
C761   C773    1.400   .     A
C762   C340    1.387   1_556 S
C763   H787    1.083   .     S
C763   C765    1.391   .     A
C764   C767    1.405   .     A
C764   C342    1.420   1_556 S
C764   C345    1.411   1_556 S
C765   H786    1.079   .     S
C766   H779    1.100   .     S
C766   H778    1.110   .     S
C766   N789    1.441   .     S
C766   H777    1.108   .     S
C767   C771    1.414   .     A
C768   C772    1.388   .     A
C769   C770    1.392   .     A
C769   C337    1.404   1_556 S
C769   C345    1.421   1_556 S
C770   H782    1.084   .     S
C770   C771    1.387   .     A
C771   H775    1.082   .     S
C772   H784    1.080   .     S
C773   H821    1.083   .     S
H780   C475    1.088   1_565 S
H781   N788    1.029   .     S
H783   C337    1.084   1_556 S
H785   C809    1.083   .     S
N788   N789    1.288   .     D
N788   Zn799   2.028   .     S
N789   Zn798   2.028   .     S
O790   Zn798   1.954   .     S
O790   C800    1.281   .     S
O791   Zn799   1.977   .     S
O792   Zn798   1.956   .     S
O792   C803    1.294   .     S
O793   Zn799   1.913   .     S
O794   Zn798   1.977   .     S
O795   Zn799   1.954   .     S
O796   Zn798   1.913   .     S
O797   Zn799   1.956   .     S
C800   O838    1.292   .     A
C800   C802    1.403   .     S
C801   C803    1.453   .     S
C801   C814    1.407   .     A
C801   C809    1.402   .     A
C802   C475    1.338   1_565 S
C802   H541    1.088   1_565 S
C803   O840    1.302   .     A
C804   C805    1.403   .     S
C804   C567    1.338   1_655 S
C805   O841    1.292   .     A
C805   O748    1.281   1_655 S
C806   O843    1.300   .     A
C806   C808    1.445   .     S
C806   O750    1.294   1_655 S
C807   C820    1.394   .     A
C808   C819    1.384   .     A
C808   C820    1.400   .     A
C809   C387    1.387   1_556 S
C810   H834    1.083   .     S
C810   C812    1.391   .     A
C811   C814    1.405   .     A
C811   C389    1.420   1_556 S
C811   C392    1.411   1_556 S
C812   H833    1.079   .     S
C813   H826    1.100   .     S
C813   H825    1.110   .     S
C813   N836    1.441   .     S
C813   H824    1.108   .     S
C814   C818    1.414   .     A
C815   C819    1.388   .     A
C816   C817    1.392   .     A
C816   C384    1.404   1_556 S
C816   C392    1.421   1_556 S
C817   H829    1.084   .     S
C817   C818    1.387   .     A
C818   H822    1.082   .     S
C819   H831    1.080   .     S
C820   H727    1.083   1_655 S
H827   C522    1.088   1_565 S
H828   N835    1.029   .     S
H830   C384    1.084   1_556 S
H832   C715    1.083   1_655 S
N835   N836    1.288   .     D
N835   Zn846   2.028   .     S
N836   Zn845   2.028   .     S
O837   Zn845   1.954   .     S
O837   C706    1.281   1_655 S
O838   Zn846   1.977   .     S
O839   Zn845   1.956   .     S
O839   C709    1.294   1_655 S
O840   Zn846   1.913   .     S
O841   Zn845   1.977   .     S
O842   Zn846   1.954   .     S
O843   Zn845   1.913   .     S
O844   Zn846   1.956   .     S
