data_str_m3_o10_o18_pcu_sym.136
_audit_creation_date              2020-01-03
_audit_creation_method            'Materials Studio'
_symmetry_space_group_name_H-M    'P1'
_symmetry_Int_Tables_number       1
_symmetry_cell_setting            triclinic
loop_
_symmetry_equiv_pos_as_xyz
  x,y,z
_cell_length_a                    23.5378
_cell_length_b                    25.6696
_cell_length_c                    27.2460
_cell_angle_alpha                 93.3671
_cell_angle_beta                  92.8695
_cell_angle_gamma                 94.3230
loop_
_atom_site_label
_atom_site_type_symbol
_atom_site_fract_x
_atom_site_fract_y
_atom_site_fract_z
_atom_site_U_iso_or_equiv
_atom_site_adp_type
_atom_site_occupancy
C1     C     0.01508   0.26490   0.24878   0.00000  Uiso   1.00
C2     C     0.31253   0.16305   0.15881   0.00000  Uiso   1.00
C3     C     0.03058   0.17560   0.39418   0.00000  Uiso   1.00
C4     C     0.30277   0.15761   0.10583   0.00000  Uiso   1.00
C5     C     0.02121   0.22454   0.47130   0.00000  Uiso   1.00
C6     C     0.31209   0.10849   0.02878   0.00000  Uiso   1.00
C7     C     0.00368   0.21315   0.42211   0.00000  Uiso   1.00
C8     C     0.32959   0.11994   0.07798   0.00000  Uiso   1.00
C9     C     0.07264   0.14762   0.41589   0.00000  Uiso   1.00
C10    C     0.26077   0.18560   0.08404   0.00000  Uiso   1.00
C11    C     0.09991   0.16870   0.46058   0.00000  Uiso   1.00
C12    C     0.31825   0.06843   0.25118   0.00000  Uiso   1.00
C13    C     0.23352   0.16449   0.03938   0.00000  Uiso   1.00
C14    C     0.07023   0.20355   0.49043   0.00000  Uiso   1.00
C15    C     0.26316   0.12956   0.00958   0.00000  Uiso   1.00
C16    C     0.15606   0.15820   0.47583   0.00000  Uiso   1.00
C17    C     0.17740   0.17501   0.02412   0.00000  Uiso   1.00
C18    C     0.14075   0.19888   0.05649   0.00000  Uiso   1.00
C19    C     0.19270   0.13430   0.44348   0.00000  Uiso   1.00
C20    C     0.08960   0.21616   0.03903   0.00000  Uiso   1.00
C21    C     0.24382   0.11695   0.46097   0.00000  Uiso   1.00
C22    C     0.02289   0.31951   0.24803   0.00000  Uiso   1.00
C23    C     0.31042   0.01381   0.25181   0.00000  Uiso   1.00
C24    C     0.02080   0.17028   0.34119   0.00000  Uiso   1.00
H25    H     0.06483   0.23869   0.06373   0.00000  Uiso   1.00
H26    H     0.11334   0.03764   0.33607   0.00000  Uiso   1.00
H27    H     0.33210   0.25196   0.49340   0.00000  Uiso   1.00
H28    H     0.00115   0.08098   0.00675   0.00000  Uiso   1.00
H29    H     0.06600   0.00343   0.24440   0.00000  Uiso   1.00
H30    H     0.26730   0.32989   0.25540   0.00000  Uiso   1.00
H31    H     0.26858   0.09436   0.43630   0.00000  Uiso   1.00
H32    H     0.03024   0.09934   0.09433   0.00000  Uiso   1.00
H33    H     0.30295   0.23370   0.40583   0.00000  Uiso   1.00
H34    H     0.15142   0.20506   0.09536   0.00000  Uiso   1.00
H35    H     0.18199   0.12806   0.40463   0.00000  Uiso   1.00
H36    H     0.16226   0.12455   0.21363   0.00000  Uiso   1.00
H37    H     0.17107   0.20877   0.28638   0.00000  Uiso   1.00
H38    H     0.23438   0.32359   0.07188   0.00000  Uiso   1.00
N39    N     0.14695   0.15216   0.23739   0.00000  Uiso   1.00
N40    N     0.18638   0.18117   0.26260   0.00000  Uiso   1.00
O41    O     0.29719   0.24631   0.25309   0.00000  Uiso   1.00
O42    O     0.31759   0.27593   0.11886   0.00000  Uiso   1.00
O43    O     0.23110   0.28665   0.05865   0.00000  Uiso   1.00
O44    O     0.09951   0.04994   0.43577   0.00000  Uiso   1.00
O45    O     0.01627   0.05744   0.38001   0.00000  Uiso   1.00
O46    O     0.11605   0.07549   0.34618   0.00000  Uiso   1.00
O47    O     0.03614   0.08702   0.24690   0.00000  Uiso   1.00
O48    O     0.05822   0.23702   0.24501   0.00000  Uiso   1.00
O49    O     0.27512   0.09632   0.25498   0.00000  Uiso   1.00
O50    O     0.30328   0.17397   0.32247   0.00000  Uiso   1.00
O51    O     0.03005   0.15937   0.17753   0.00000  Uiso   1.00
O52    O     0.06431   0.16467   0.31439   0.00000  Uiso   1.00
O53    O     0.26902   0.16866   0.18561   0.00000  Uiso   1.00
O54    O     0.22232   0.25784   0.14822   0.00000  Uiso   1.00
S55    S     0.25812   0.25288   0.10426   0.00000  Uiso   1.00
S56    S     0.07560   0.08050   0.39518   0.00000  Uiso   1.00
Zn57   Zn    0.27033   0.17287   0.25539   0.00000  Uiso   1.00
Zn58   Zn    0.06300   0.16046   0.24460   0.00000  Uiso   1.00
C59    C     0.34841   0.26490   0.24878   0.00000  Uiso   1.00
C60    C     0.64587   0.16305   0.15881   0.00000  Uiso   1.00
C61    C     0.36391   0.17560   0.39418   0.00000  Uiso   1.00
C62    C     0.63610   0.15761   0.10583   0.00000  Uiso   1.00
C63    C     0.35455   0.22454   0.47130   0.00000  Uiso   1.00
C64    C     0.64542   0.10849   0.02878   0.00000  Uiso   1.00
C65    C     0.33701   0.21315   0.42211   0.00000  Uiso   1.00
C66    C     0.66293   0.11994   0.07798   0.00000  Uiso   1.00
C67    C     0.40597   0.14762   0.41589   0.00000  Uiso   1.00
C68    C     0.59410   0.18560   0.08404   0.00000  Uiso   1.00
C69    C     0.43325   0.16870   0.46058   0.00000  Uiso   1.00
C70    C     0.65158   0.06843   0.25118   0.00000  Uiso   1.00
C71    C     0.56685   0.16449   0.03938   0.00000  Uiso   1.00
C72    C     0.40356   0.20355   0.49043   0.00000  Uiso   1.00
C73    C     0.59649   0.12956   0.00958   0.00000  Uiso   1.00
C74    C     0.48939   0.15820   0.47583   0.00000  Uiso   1.00
C75    C     0.51073   0.17501   0.02412   0.00000  Uiso   1.00
C76    C     0.47409   0.19888   0.05649   0.00000  Uiso   1.00
C77    C     0.52604   0.13430   0.44348   0.00000  Uiso   1.00
C78    C     0.42293   0.21616   0.03903   0.00000  Uiso   1.00
C79    C     0.57715   0.11695   0.46097   0.00000  Uiso   1.00
C80    C     0.35622   0.31951   0.24803   0.00000  Uiso   1.00
C81    C     0.64375   0.01381   0.25181   0.00000  Uiso   1.00
C82    C     0.35414   0.17028   0.34119   0.00000  Uiso   1.00
H83    H     0.39816   0.23869   0.06373   0.00000  Uiso   1.00
H84    H     0.44667   0.03764   0.33607   0.00000  Uiso   1.00
H85    H     0.66543   0.25196   0.49340   0.00000  Uiso   1.00
H86    H     0.33448   0.08098   0.00675   0.00000  Uiso   1.00
H87    H     0.39933   0.00343   0.24440   0.00000  Uiso   1.00
H88    H     0.60063   0.32989   0.25540   0.00000  Uiso   1.00
H89    H     0.60191   0.09436   0.43630   0.00000  Uiso   1.00
H90    H     0.36358   0.09934   0.09433   0.00000  Uiso   1.00
H91    H     0.63628   0.23370   0.40583   0.00000  Uiso   1.00
H92    H     0.48476   0.20506   0.09536   0.00000  Uiso   1.00
H93    H     0.51532   0.12806   0.40463   0.00000  Uiso   1.00
H94    H     0.49559   0.12455   0.21363   0.00000  Uiso   1.00
H95    H     0.50440   0.20877   0.28638   0.00000  Uiso   1.00
H96    H     0.56772   0.32359   0.07188   0.00000  Uiso   1.00
N97    N     0.48029   0.15216   0.23739   0.00000  Uiso   1.00
N98    N     0.51971   0.18117   0.26260   0.00000  Uiso   1.00
O99    O     0.63052   0.24631   0.25309   0.00000  Uiso   1.00
O100   O     0.65093   0.27593   0.11886   0.00000  Uiso   1.00
O101   O     0.56443   0.28665   0.05865   0.00000  Uiso   1.00
O102   O     0.43284   0.04994   0.43577   0.00000  Uiso   1.00
O103   O     0.34960   0.05744   0.38001   0.00000  Uiso   1.00
O104   O     0.44938   0.07549   0.34618   0.00000  Uiso   1.00
O105   O     0.36948   0.08702   0.24690   0.00000  Uiso   1.00
O106   O     0.39155   0.23702   0.24501   0.00000  Uiso   1.00
O107   O     0.60845   0.09632   0.25498   0.00000  Uiso   1.00
O108   O     0.63662   0.17397   0.32247   0.00000  Uiso   1.00
O109   O     0.36338   0.15937   0.17753   0.00000  Uiso   1.00
O110   O     0.39764   0.16467   0.31439   0.00000  Uiso   1.00
O111   O     0.60236   0.16866   0.18561   0.00000  Uiso   1.00
O112   O     0.55565   0.25784   0.14822   0.00000  Uiso   1.00
S113   S     0.59145   0.25288   0.10426   0.00000  Uiso   1.00
S114   S     0.40893   0.08050   0.39518   0.00000  Uiso   1.00
Zn115  Zn    0.60366   0.17287   0.25539   0.00000  Uiso   1.00
Zn116  Zn    0.39634   0.16046   0.24460   0.00000  Uiso   1.00
C117   C     0.68174   0.26490   0.24878   0.00000  Uiso   1.00
C118   C     0.97920   0.16305   0.15881   0.00000  Uiso   1.00
C119   C     0.69724   0.17560   0.39418   0.00000  Uiso   1.00
C120   C     0.96944   0.15761   0.10583   0.00000  Uiso   1.00
C121   C     0.68788   0.22454   0.47130   0.00000  Uiso   1.00
C122   C     0.97876   0.10849   0.02878   0.00000  Uiso   1.00
C123   C     0.67034   0.21315   0.42211   0.00000  Uiso   1.00
C124   C     0.99626   0.11994   0.07798   0.00000  Uiso   1.00
C125   C     0.73930   0.14762   0.41589   0.00000  Uiso   1.00
C126   C     0.92744   0.18560   0.08404   0.00000  Uiso   1.00
C127   C     0.76658   0.16870   0.46058   0.00000  Uiso   1.00
C128   C     0.98492   0.06843   0.25118   0.00000  Uiso   1.00
C129   C     0.90019   0.16449   0.03938   0.00000  Uiso   1.00
C130   C     0.73690   0.20355   0.49043   0.00000  Uiso   1.00
C131   C     0.92983   0.12956   0.00958   0.00000  Uiso   1.00
C132   C     0.82273   0.15820   0.47583   0.00000  Uiso   1.00
C133   C     0.84406   0.17501   0.02412   0.00000  Uiso   1.00
C134   C     0.80742   0.19888   0.05649   0.00000  Uiso   1.00
C135   C     0.85937   0.13430   0.44348   0.00000  Uiso   1.00
C136   C     0.75626   0.21616   0.03903   0.00000  Uiso   1.00
C137   C     0.91049   0.11695   0.46097   0.00000  Uiso   1.00
C138   C     0.68955   0.31951   0.24803   0.00000  Uiso   1.00
C139   C     0.97708   0.01381   0.25181   0.00000  Uiso   1.00
C140   C     0.68747   0.17028   0.34119   0.00000  Uiso   1.00
H141   H     0.73150   0.23869   0.06373   0.00000  Uiso   1.00
H142   H     0.78001   0.03764   0.33607   0.00000  Uiso   1.00
H143   H     0.99877   0.25196   0.49340   0.00000  Uiso   1.00
H144   H     0.66782   0.08098   0.00675   0.00000  Uiso   1.00
H145   H     0.73266   0.00343   0.24440   0.00000  Uiso   1.00
H146   H     0.93397   0.32989   0.25540   0.00000  Uiso   1.00
H147   H     0.93524   0.09436   0.43630   0.00000  Uiso   1.00
H148   H     0.69691   0.09934   0.09433   0.00000  Uiso   1.00
H149   H     0.96962   0.23370   0.40583   0.00000  Uiso   1.00
H150   H     0.81809   0.20506   0.09536   0.00000  Uiso   1.00
H151   H     0.84865   0.12806   0.40463   0.00000  Uiso   1.00
H152   H     0.82893   0.12455   0.21363   0.00000  Uiso   1.00
H153   H     0.83774   0.20877   0.28638   0.00000  Uiso   1.00
H154   H     0.90105   0.32359   0.07188   0.00000  Uiso   1.00
N155   N     0.81362   0.15216   0.23739   0.00000  Uiso   1.00
N156   N     0.85305   0.18117   0.26260   0.00000  Uiso   1.00
O157   O     0.96386   0.24631   0.25309   0.00000  Uiso   1.00
O158   O     0.98426   0.27593   0.11886   0.00000  Uiso   1.00
O159   O     0.89776   0.28665   0.05865   0.00000  Uiso   1.00
O160   O     0.76618   0.04994   0.43577   0.00000  Uiso   1.00
O161   O     0.68294   0.05744   0.38001   0.00000  Uiso   1.00
O162   O     0.78271   0.07549   0.34618   0.00000  Uiso   1.00
O163   O     0.70281   0.08702   0.24690   0.00000  Uiso   1.00
O164   O     0.72488   0.23702   0.24501   0.00000  Uiso   1.00
O165   O     0.94178   0.09632   0.25498   0.00000  Uiso   1.00
O166   O     0.96995   0.17397   0.32247   0.00000  Uiso   1.00
O167   O     0.69672   0.15937   0.17753   0.00000  Uiso   1.00
O168   O     0.73098   0.16467   0.31439   0.00000  Uiso   1.00
O169   O     0.93569   0.16866   0.18561   0.00000  Uiso   1.00
O170   O     0.88898   0.25784   0.14822   0.00000  Uiso   1.00
S171   S     0.92479   0.25288   0.10426   0.00000  Uiso   1.00
S172   S     0.74227   0.08050   0.39518   0.00000  Uiso   1.00
Zn173  Zn    0.93700   0.17287   0.25539   0.00000  Uiso   1.00
Zn174  Zn    0.72967   0.16046   0.24460   0.00000  Uiso   1.00
C175   C     0.01508   0.59823   0.24878   0.00000  Uiso   1.00
C176   C     0.31253   0.49638   0.15881   0.00000  Uiso   1.00
C177   C     0.03058   0.50894   0.39418   0.00000  Uiso   1.00
C178   C     0.30277   0.49095   0.10583   0.00000  Uiso   1.00
C179   C     0.02121   0.55788   0.47130   0.00000  Uiso   1.00
C180   C     0.31209   0.44182   0.02878   0.00000  Uiso   1.00
C181   C     0.00368   0.54648   0.42211   0.00000  Uiso   1.00
C182   C     0.32959   0.45327   0.07798   0.00000  Uiso   1.00
C183   C     0.07264   0.48095   0.41589   0.00000  Uiso   1.00
C184   C     0.26077   0.51894   0.08404   0.00000  Uiso   1.00
C185   C     0.09991   0.50204   0.46058   0.00000  Uiso   1.00
C186   C     0.31825   0.40176   0.25118   0.00000  Uiso   1.00
C187   C     0.23352   0.49782   0.03938   0.00000  Uiso   1.00
C188   C     0.07023   0.53688   0.49043   0.00000  Uiso   1.00
C189   C     0.26316   0.46290   0.00958   0.00000  Uiso   1.00
C190   C     0.15606   0.49153   0.47583   0.00000  Uiso   1.00
C191   C     0.17740   0.50835   0.02412   0.00000  Uiso   1.00
C192   C     0.14075   0.53221   0.05649   0.00000  Uiso   1.00
C193   C     0.19270   0.46763   0.44348   0.00000  Uiso   1.00
C194   C     0.08960   0.54949   0.03903   0.00000  Uiso   1.00
C195   C     0.24382   0.45029   0.46097   0.00000  Uiso   1.00
C196   C     0.02289   0.65284   0.24803   0.00000  Uiso   1.00
C197   C     0.31042   0.34715   0.25181   0.00000  Uiso   1.00
C198   C     0.02080   0.50361   0.34119   0.00000  Uiso   1.00
H199   H     0.06483   0.57203   0.06373   0.00000  Uiso   1.00
H200   H     0.11334   0.37098   0.33607   0.00000  Uiso   1.00
H201   H     0.33210   0.58529   0.49340   0.00000  Uiso   1.00
H202   H     0.00115   0.41431   0.00675   0.00000  Uiso   1.00
H203   H     0.06600   0.33676   0.24440   0.00000  Uiso   1.00
H204   H     0.26730   0.66322   0.25540   0.00000  Uiso   1.00
H205   H     0.26858   0.42769   0.43630   0.00000  Uiso   1.00
H206   H     0.03024   0.43267   0.09433   0.00000  Uiso   1.00
H207   H     0.30295   0.56704   0.40583   0.00000  Uiso   1.00
H208   H     0.15142   0.53839   0.09536   0.00000  Uiso   1.00
H209   H     0.18199   0.46139   0.40463   0.00000  Uiso   1.00
H210   H     0.16226   0.45789   0.21363   0.00000  Uiso   1.00
H211   H     0.17107   0.54211   0.28638   0.00000  Uiso   1.00
H212   H     0.23438   0.65693   0.07188   0.00000  Uiso   1.00
N213   N     0.14695   0.48550   0.23739   0.00000  Uiso   1.00
N214   N     0.18638   0.51450   0.26260   0.00000  Uiso   1.00
O215   O     0.29719   0.57964   0.25309   0.00000  Uiso   1.00
O216   O     0.31759   0.60927   0.11886   0.00000  Uiso   1.00
O217   O     0.23110   0.61998   0.05865   0.00000  Uiso   1.00
O218   O     0.09951   0.38327   0.43577   0.00000  Uiso   1.00
O219   O     0.01627   0.39078   0.38001   0.00000  Uiso   1.00
O220   O     0.11605   0.40882   0.34618   0.00000  Uiso   1.00
O221   O     0.03614   0.42036   0.24690   0.00000  Uiso   1.00
O222   O     0.05822   0.57035   0.24501   0.00000  Uiso   1.00
O223   O     0.27512   0.42965   0.25498   0.00000  Uiso   1.00
O224   O     0.30328   0.50730   0.32247   0.00000  Uiso   1.00
O225   O     0.03005   0.49270   0.17753   0.00000  Uiso   1.00
O226   O     0.06431   0.49801   0.31439   0.00000  Uiso   1.00
O227   O     0.26902   0.50199   0.18561   0.00000  Uiso   1.00
O228   O     0.22232   0.59117   0.14822   0.00000  Uiso   1.00
S229   S     0.25812   0.58621   0.10426   0.00000  Uiso   1.00
S230   S     0.07560   0.41383   0.39518   0.00000  Uiso   1.00
Zn231  Zn    0.27033   0.50621   0.25539   0.00000  Uiso   1.00
Zn232  Zn    0.06300   0.49379   0.24460   0.00000  Uiso   1.00
C233   C     0.34841   0.59823   0.24878   0.00000  Uiso   1.00
C234   C     0.64587   0.49638   0.15881   0.00000  Uiso   1.00
C235   C     0.36391   0.50894   0.39418   0.00000  Uiso   1.00
C236   C     0.63610   0.49095   0.10583   0.00000  Uiso   1.00
C237   C     0.35455   0.55788   0.47130   0.00000  Uiso   1.00
C238   C     0.64542   0.44182   0.02878   0.00000  Uiso   1.00
C239   C     0.33701   0.54648   0.42211   0.00000  Uiso   1.00
C240   C     0.66293   0.45327   0.07798   0.00000  Uiso   1.00
C241   C     0.40597   0.48095   0.41589   0.00000  Uiso   1.00
C242   C     0.59410   0.51894   0.08404   0.00000  Uiso   1.00
C243   C     0.43325   0.50204   0.46058   0.00000  Uiso   1.00
C244   C     0.65158   0.40176   0.25118   0.00000  Uiso   1.00
C245   C     0.56685   0.49782   0.03938   0.00000  Uiso   1.00
C246   C     0.40356   0.53688   0.49043   0.00000  Uiso   1.00
C247   C     0.59649   0.46290   0.00958   0.00000  Uiso   1.00
C248   C     0.48939   0.49153   0.47583   0.00000  Uiso   1.00
C249   C     0.51073   0.50835   0.02412   0.00000  Uiso   1.00
C250   C     0.47409   0.53221   0.05649   0.00000  Uiso   1.00
C251   C     0.52604   0.46763   0.44348   0.00000  Uiso   1.00
C252   C     0.42293   0.54949   0.03903   0.00000  Uiso   1.00
C253   C     0.57715   0.45029   0.46097   0.00000  Uiso   1.00
C254   C     0.35622   0.65284   0.24803   0.00000  Uiso   1.00
C255   C     0.64375   0.34715   0.25181   0.00000  Uiso   1.00
C256   C     0.35414   0.50361   0.34119   0.00000  Uiso   1.00
H257   H     0.39816   0.57203   0.06373   0.00000  Uiso   1.00
H258   H     0.44667   0.37098   0.33607   0.00000  Uiso   1.00
H259   H     0.66543   0.58529   0.49340   0.00000  Uiso   1.00
H260   H     0.33448   0.41431   0.00675   0.00000  Uiso   1.00
H261   H     0.39933   0.33676   0.24440   0.00000  Uiso   1.00
H262   H     0.60063   0.66322   0.25540   0.00000  Uiso   1.00
H263   H     0.60191   0.42769   0.43630   0.00000  Uiso   1.00
H264   H     0.36358   0.43267   0.09433   0.00000  Uiso   1.00
H265   H     0.63628   0.56704   0.40583   0.00000  Uiso   1.00
H266   H     0.48476   0.53839   0.09536   0.00000  Uiso   1.00
H267   H     0.51532   0.46139   0.40463   0.00000  Uiso   1.00
H268   H     0.49559   0.45789   0.21363   0.00000  Uiso   1.00
H269   H     0.50440   0.54211   0.28638   0.00000  Uiso   1.00
H270   H     0.56772   0.65693   0.07188   0.00000  Uiso   1.00
N271   N     0.48029   0.48550   0.23739   0.00000  Uiso   1.00
N272   N     0.51971   0.51450   0.26260   0.00000  Uiso   1.00
O273   O     0.63052   0.57964   0.25309   0.00000  Uiso   1.00
O274   O     0.65093   0.60927   0.11886   0.00000  Uiso   1.00
O275   O     0.56443   0.61998   0.05865   0.00000  Uiso   1.00
O276   O     0.43284   0.38327   0.43577   0.00000  Uiso   1.00
O277   O     0.34960   0.39078   0.38001   0.00000  Uiso   1.00
O278   O     0.44938   0.40882   0.34618   0.00000  Uiso   1.00
O279   O     0.36948   0.42036   0.24690   0.00000  Uiso   1.00
O280   O     0.39155   0.57035   0.24501   0.00000  Uiso   1.00
O281   O     0.60845   0.42965   0.25498   0.00000  Uiso   1.00
O282   O     0.63662   0.50730   0.32247   0.00000  Uiso   1.00
O283   O     0.36338   0.49270   0.17753   0.00000  Uiso   1.00
O284   O     0.39764   0.49801   0.31439   0.00000  Uiso   1.00
O285   O     0.60236   0.50199   0.18561   0.00000  Uiso   1.00
O286   O     0.55565   0.59117   0.14822   0.00000  Uiso   1.00
S287   S     0.59145   0.58621   0.10426   0.00000  Uiso   1.00
S288   S     0.40893   0.41383   0.39518   0.00000  Uiso   1.00
Zn289  Zn    0.60366   0.50621   0.25539   0.00000  Uiso   1.00
Zn290  Zn    0.39634   0.49379   0.24460   0.00000  Uiso   1.00
C291   C     0.68174   0.59823   0.24878   0.00000  Uiso   1.00
C292   C     0.97920   0.49638   0.15881   0.00000  Uiso   1.00
C293   C     0.69724   0.50894   0.39418   0.00000  Uiso   1.00
C294   C     0.96944   0.49095   0.10583   0.00000  Uiso   1.00
C295   C     0.68788   0.55788   0.47130   0.00000  Uiso   1.00
C296   C     0.97876   0.44182   0.02878   0.00000  Uiso   1.00
C297   C     0.67034   0.54648   0.42211   0.00000  Uiso   1.00
C298   C     0.99626   0.45327   0.07798   0.00000  Uiso   1.00
C299   C     0.73930   0.48095   0.41589   0.00000  Uiso   1.00
C300   C     0.92744   0.51894   0.08404   0.00000  Uiso   1.00
C301   C     0.76658   0.50204   0.46058   0.00000  Uiso   1.00
C302   C     0.98492   0.40176   0.25118   0.00000  Uiso   1.00
C303   C     0.90019   0.49782   0.03938   0.00000  Uiso   1.00
C304   C     0.73690   0.53688   0.49043   0.00000  Uiso   1.00
C305   C     0.92983   0.46290   0.00958   0.00000  Uiso   1.00
C306   C     0.82273   0.49153   0.47583   0.00000  Uiso   1.00
C307   C     0.84406   0.50835   0.02412   0.00000  Uiso   1.00
C308   C     0.80742   0.53221   0.05649   0.00000  Uiso   1.00
C309   C     0.85937   0.46763   0.44348   0.00000  Uiso   1.00
C310   C     0.75626   0.54949   0.03903   0.00000  Uiso   1.00
C311   C     0.91049   0.45029   0.46097   0.00000  Uiso   1.00
C312   C     0.68955   0.65284   0.24803   0.00000  Uiso   1.00
C313   C     0.97708   0.34715   0.25181   0.00000  Uiso   1.00
C314   C     0.68747   0.50361   0.34119   0.00000  Uiso   1.00
H315   H     0.73150   0.57203   0.06373   0.00000  Uiso   1.00
H316   H     0.78001   0.37098   0.33607   0.00000  Uiso   1.00
H317   H     0.99877   0.58529   0.49340   0.00000  Uiso   1.00
H318   H     0.66782   0.41431   0.00675   0.00000  Uiso   1.00
H319   H     0.73266   0.33676   0.24440   0.00000  Uiso   1.00
H320   H     0.93397   0.66322   0.25540   0.00000  Uiso   1.00
H321   H     0.93524   0.42769   0.43630   0.00000  Uiso   1.00
H322   H     0.69691   0.43267   0.09433   0.00000  Uiso   1.00
H323   H     0.96962   0.56704   0.40583   0.00000  Uiso   1.00
H324   H     0.81809   0.53839   0.09536   0.00000  Uiso   1.00
H325   H     0.84865   0.46139   0.40463   0.00000  Uiso   1.00
H326   H     0.82893   0.45789   0.21363   0.00000  Uiso   1.00
H327   H     0.83774   0.54211   0.28638   0.00000  Uiso   1.00
H328   H     0.90105   0.65693   0.07188   0.00000  Uiso   1.00
N329   N     0.81362   0.48550   0.23739   0.00000  Uiso   1.00
N330   N     0.85305   0.51450   0.26260   0.00000  Uiso   1.00
O331   O     0.96386   0.57964   0.25309   0.00000  Uiso   1.00
O332   O     0.98426   0.60927   0.11886   0.00000  Uiso   1.00
O333   O     0.89776   0.61998   0.05865   0.00000  Uiso   1.00
O334   O     0.76618   0.38327   0.43577   0.00000  Uiso   1.00
O335   O     0.68294   0.39078   0.38001   0.00000  Uiso   1.00
O336   O     0.78271   0.40882   0.34618   0.00000  Uiso   1.00
O337   O     0.70281   0.42036   0.24690   0.00000  Uiso   1.00
O338   O     0.72488   0.57035   0.24501   0.00000  Uiso   1.00
O339   O     0.94178   0.42965   0.25498   0.00000  Uiso   1.00
O340   O     0.96995   0.50730   0.32247   0.00000  Uiso   1.00
O341   O     0.69672   0.49270   0.17753   0.00000  Uiso   1.00
O342   O     0.73098   0.49801   0.31439   0.00000  Uiso   1.00
O343   O     0.93569   0.50199   0.18561   0.00000  Uiso   1.00
O344   O     0.88898   0.59117   0.14822   0.00000  Uiso   1.00
S345   S     0.92479   0.58621   0.10426   0.00000  Uiso   1.00
S346   S     0.74227   0.41383   0.39518   0.00000  Uiso   1.00
Zn347  Zn    0.93700   0.50621   0.25539   0.00000  Uiso   1.00
Zn348  Zn    0.72967   0.49379   0.24460   0.00000  Uiso   1.00
C349   C     0.01508   0.93157   0.24878   0.00000  Uiso   1.00
C350   C     0.31253   0.82971   0.15881   0.00000  Uiso   1.00
C351   C     0.03058   0.84227   0.39418   0.00000  Uiso   1.00
C352   C     0.30277   0.82428   0.10583   0.00000  Uiso   1.00
C353   C     0.02121   0.89121   0.47130   0.00000  Uiso   1.00
C354   C     0.31209   0.77515   0.02878   0.00000  Uiso   1.00
C355   C     0.00368   0.87982   0.42211   0.00000  Uiso   1.00
C356   C     0.32959   0.78660   0.07798   0.00000  Uiso   1.00
C357   C     0.07264   0.81429   0.41589   0.00000  Uiso   1.00
C358   C     0.26077   0.85227   0.08404   0.00000  Uiso   1.00
C359   C     0.09991   0.83537   0.46058   0.00000  Uiso   1.00
C360   C     0.31825   0.73510   0.25118   0.00000  Uiso   1.00
C361   C     0.23352   0.83116   0.03938   0.00000  Uiso   1.00
C362   C     0.07023   0.87021   0.49043   0.00000  Uiso   1.00
C363   C     0.26316   0.79623   0.00958   0.00000  Uiso   1.00
C364   C     0.15606   0.82486   0.47583   0.00000  Uiso   1.00
C365   C     0.17740   0.84168   0.02412   0.00000  Uiso   1.00
C366   C     0.14075   0.86554   0.05649   0.00000  Uiso   1.00
C367   C     0.19270   0.80097   0.44348   0.00000  Uiso   1.00
C368   C     0.08960   0.88282   0.03903   0.00000  Uiso   1.00
C369   C     0.24382   0.78362   0.46097   0.00000  Uiso   1.00
C370   C     0.02289   0.98618   0.24803   0.00000  Uiso   1.00
C371   C     0.31042   0.68048   0.25181   0.00000  Uiso   1.00
C372   C     0.02080   0.83695   0.34119   0.00000  Uiso   1.00
H373   H     0.06483   0.90536   0.06373   0.00000  Uiso   1.00
H374   H     0.11334   0.70431   0.33607   0.00000  Uiso   1.00
H375   H     0.33210   0.91863   0.49340   0.00000  Uiso   1.00
H376   H     0.00115   0.74764   0.00675   0.00000  Uiso   1.00
H377   H     0.06600   0.67010   0.24440   0.00000  Uiso   1.00
H378   H     0.26730   0.99655   0.25540   0.00000  Uiso   1.00
H379   H     0.26858   0.76102   0.43630   0.00000  Uiso   1.00
H380   H     0.03024   0.76601   0.09433   0.00000  Uiso   1.00
H381   H     0.30295   0.90037   0.40583   0.00000  Uiso   1.00
H382   H     0.15142   0.87172   0.09536   0.00000  Uiso   1.00
H383   H     0.18199   0.79473   0.40463   0.00000  Uiso   1.00
H384   H     0.16226   0.79122   0.21363   0.00000  Uiso   1.00
H385   H     0.17107   0.87544   0.28638   0.00000  Uiso   1.00
H386   H     0.23438   0.99026   0.07188   0.00000  Uiso   1.00
N387   N     0.14695   0.81883   0.23739   0.00000  Uiso   1.00
N388   N     0.18638   0.84784   0.26260   0.00000  Uiso   1.00
O389   O     0.29719   0.91298   0.25309   0.00000  Uiso   1.00
O390   O     0.31759   0.94260   0.11886   0.00000  Uiso   1.00
O391   O     0.23110   0.95332   0.05865   0.00000  Uiso   1.00
O392   O     0.09951   0.71660   0.43577   0.00000  Uiso   1.00
O393   O     0.01627   0.72411   0.38001   0.00000  Uiso   1.00
O394   O     0.11605   0.74215   0.34618   0.00000  Uiso   1.00
O395   O     0.03614   0.75369   0.24690   0.00000  Uiso   1.00
O396   O     0.05822   0.90368   0.24501   0.00000  Uiso   1.00
O397   O     0.27512   0.76298   0.25498   0.00000  Uiso   1.00
O398   O     0.30328   0.84063   0.32247   0.00000  Uiso   1.00
O399   O     0.03005   0.82603   0.17753   0.00000  Uiso   1.00
O400   O     0.06431   0.83134   0.31439   0.00000  Uiso   1.00
O401   O     0.26902   0.83533   0.18561   0.00000  Uiso   1.00
O402   O     0.22232   0.92450   0.14822   0.00000  Uiso   1.00
S403   S     0.25812   0.91954   0.10426   0.00000  Uiso   1.00
S404   S     0.07560   0.74716   0.39518   0.00000  Uiso   1.00
Zn405  Zn    0.27033   0.83954   0.25539   0.00000  Uiso   1.00
Zn406  Zn    0.06300   0.82713   0.24460   0.00000  Uiso   1.00
C407   C     0.34841   0.93157   0.24878   0.00000  Uiso   1.00
C408   C     0.64587   0.82971   0.15881   0.00000  Uiso   1.00
C409   C     0.36391   0.84227   0.39418   0.00000  Uiso   1.00
C410   C     0.63610   0.82428   0.10583   0.00000  Uiso   1.00
C411   C     0.35455   0.89121   0.47130   0.00000  Uiso   1.00
C412   C     0.64542   0.77515   0.02878   0.00000  Uiso   1.00
C413   C     0.33701   0.87982   0.42211   0.00000  Uiso   1.00
C414   C     0.66293   0.78660   0.07798   0.00000  Uiso   1.00
C415   C     0.40597   0.81429   0.41589   0.00000  Uiso   1.00
C416   C     0.59410   0.85227   0.08404   0.00000  Uiso   1.00
C417   C     0.43325   0.83537   0.46058   0.00000  Uiso   1.00
C418   C     0.65158   0.73510   0.25118   0.00000  Uiso   1.00
C419   C     0.56685   0.83116   0.03938   0.00000  Uiso   1.00
C420   C     0.40356   0.87021   0.49043   0.00000  Uiso   1.00
C421   C     0.59649   0.79623   0.00958   0.00000  Uiso   1.00
C422   C     0.48939   0.82486   0.47583   0.00000  Uiso   1.00
C423   C     0.51073   0.84168   0.02412   0.00000  Uiso   1.00
C424   C     0.47409   0.86554   0.05649   0.00000  Uiso   1.00
C425   C     0.52604   0.80097   0.44348   0.00000  Uiso   1.00
C426   C     0.42293   0.88282   0.03903   0.00000  Uiso   1.00
C427   C     0.57715   0.78362   0.46097   0.00000  Uiso   1.00
C428   C     0.35622   0.98618   0.24803   0.00000  Uiso   1.00
C429   C     0.64375   0.68048   0.25181   0.00000  Uiso   1.00
C430   C     0.35414   0.83695   0.34119   0.00000  Uiso   1.00
H431   H     0.39816   0.90536   0.06373   0.00000  Uiso   1.00
H432   H     0.44667   0.70431   0.33607   0.00000  Uiso   1.00
H433   H     0.66543   0.91863   0.49340   0.00000  Uiso   1.00
H434   H     0.33448   0.74764   0.00675   0.00000  Uiso   1.00
H435   H     0.39933   0.67010   0.24440   0.00000  Uiso   1.00
H436   H     0.60063   0.99655   0.25540   0.00000  Uiso   1.00
H437   H     0.60191   0.76102   0.43630   0.00000  Uiso   1.00
H438   H     0.36358   0.76601   0.09433   0.00000  Uiso   1.00
H439   H     0.63628   0.90037   0.40583   0.00000  Uiso   1.00
H440   H     0.48476   0.87172   0.09536   0.00000  Uiso   1.00
H441   H     0.51532   0.79473   0.40463   0.00000  Uiso   1.00
H442   H     0.49559   0.79122   0.21363   0.00000  Uiso   1.00
H443   H     0.50440   0.87544   0.28638   0.00000  Uiso   1.00
H444   H     0.56772   0.99026   0.07188   0.00000  Uiso   1.00
N445   N     0.48029   0.81883   0.23739   0.00000  Uiso   1.00
N446   N     0.51971   0.84784   0.26260   0.00000  Uiso   1.00
O447   O     0.63052   0.91298   0.25309   0.00000  Uiso   1.00
O448   O     0.65093   0.94260   0.11886   0.00000  Uiso   1.00
O449   O     0.56443   0.95332   0.05865   0.00000  Uiso   1.00
O450   O     0.43284   0.71660   0.43577   0.00000  Uiso   1.00
O451   O     0.34960   0.72411   0.38001   0.00000  Uiso   1.00
O452   O     0.44938   0.74215   0.34618   0.00000  Uiso   1.00
O453   O     0.36948   0.75369   0.24690   0.00000  Uiso   1.00
O454   O     0.39155   0.90368   0.24501   0.00000  Uiso   1.00
O455   O     0.60845   0.76298   0.25498   0.00000  Uiso   1.00
O456   O     0.63662   0.84063   0.32247   0.00000  Uiso   1.00
O457   O     0.36338   0.82603   0.17753   0.00000  Uiso   1.00
O458   O     0.39764   0.83134   0.31439   0.00000  Uiso   1.00
O459   O     0.60236   0.83533   0.18561   0.00000  Uiso   1.00
O460   O     0.55565   0.92450   0.14822   0.00000  Uiso   1.00
S461   S     0.59145   0.91954   0.10426   0.00000  Uiso   1.00
S462   S     0.40893   0.74716   0.39518   0.00000  Uiso   1.00
Zn463  Zn    0.60366   0.83954   0.25539   0.00000  Uiso   1.00
Zn464  Zn    0.39634   0.82713   0.24460   0.00000  Uiso   1.00
C465   C     0.68174   0.93157   0.24878   0.00000  Uiso   1.00
C466   C     0.97920   0.82971   0.15881   0.00000  Uiso   1.00
C467   C     0.69724   0.84227   0.39418   0.00000  Uiso   1.00
C468   C     0.96944   0.82428   0.10583   0.00000  Uiso   1.00
C469   C     0.68788   0.89121   0.47130   0.00000  Uiso   1.00
C470   C     0.97876   0.77515   0.02878   0.00000  Uiso   1.00
C471   C     0.67034   0.87982   0.42211   0.00000  Uiso   1.00
C472   C     0.99626   0.78660   0.07798   0.00000  Uiso   1.00
C473   C     0.73930   0.81429   0.41589   0.00000  Uiso   1.00
C474   C     0.92744   0.85227   0.08404   0.00000  Uiso   1.00
C475   C     0.76658   0.83537   0.46058   0.00000  Uiso   1.00
C476   C     0.98492   0.73510   0.25118   0.00000  Uiso   1.00
C477   C     0.90019   0.83116   0.03938   0.00000  Uiso   1.00
C478   C     0.73690   0.87021   0.49043   0.00000  Uiso   1.00
C479   C     0.92983   0.79623   0.00958   0.00000  Uiso   1.00
C480   C     0.82273   0.82486   0.47583   0.00000  Uiso   1.00
C481   C     0.84406   0.84168   0.02412   0.00000  Uiso   1.00
C482   C     0.80742   0.86554   0.05649   0.00000  Uiso   1.00
C483   C     0.85937   0.80097   0.44348   0.00000  Uiso   1.00
C484   C     0.75626   0.88282   0.03903   0.00000  Uiso   1.00
C485   C     0.91049   0.78362   0.46097   0.00000  Uiso   1.00
C486   C     0.68955   0.98618   0.24803   0.00000  Uiso   1.00
C487   C     0.97708   0.68048   0.25181   0.00000  Uiso   1.00
C488   C     0.68747   0.83695   0.34119   0.00000  Uiso   1.00
H489   H     0.73150   0.90536   0.06373   0.00000  Uiso   1.00
H490   H     0.78001   0.70431   0.33607   0.00000  Uiso   1.00
H491   H     0.99877   0.91863   0.49340   0.00000  Uiso   1.00
H492   H     0.66782   0.74764   0.00675   0.00000  Uiso   1.00
H493   H     0.73266   0.67010   0.24440   0.00000  Uiso   1.00
H494   H     0.93397   0.99655   0.25540   0.00000  Uiso   1.00
H495   H     0.93524   0.76102   0.43630   0.00000  Uiso   1.00
H496   H     0.69691   0.76601   0.09433   0.00000  Uiso   1.00
H497   H     0.96962   0.90037   0.40583   0.00000  Uiso   1.00
H498   H     0.81809   0.87172   0.09536   0.00000  Uiso   1.00
H499   H     0.84865   0.79473   0.40463   0.00000  Uiso   1.00
H500   H     0.82893   0.79122   0.21363   0.00000  Uiso   1.00
H501   H     0.83774   0.87544   0.28638   0.00000  Uiso   1.00
H502   H     0.90105   0.99026   0.07188   0.00000  Uiso   1.00
N503   N     0.81362   0.81883   0.23739   0.00000  Uiso   1.00
N504   N     0.85305   0.84784   0.26260   0.00000  Uiso   1.00
O505   O     0.96386   0.91298   0.25309   0.00000  Uiso   1.00
O506   O     0.98426   0.94260   0.11886   0.00000  Uiso   1.00
O507   O     0.89776   0.95332   0.05865   0.00000  Uiso   1.00
O508   O     0.76618   0.71660   0.43577   0.00000  Uiso   1.00
O509   O     0.68294   0.72411   0.38001   0.00000  Uiso   1.00
O510   O     0.78271   0.74215   0.34618   0.00000  Uiso   1.00
O511   O     0.70281   0.75369   0.24690   0.00000  Uiso   1.00
O512   O     0.72488   0.90368   0.24501   0.00000  Uiso   1.00
O513   O     0.94178   0.76298   0.25498   0.00000  Uiso   1.00
O514   O     0.96995   0.84063   0.32247   0.00000  Uiso   1.00
O515   O     0.69672   0.82603   0.17753   0.00000  Uiso   1.00
O516   O     0.73098   0.83134   0.31439   0.00000  Uiso   1.00
O517   O     0.93569   0.83533   0.18561   0.00000  Uiso   1.00
O518   O     0.88898   0.92450   0.14822   0.00000  Uiso   1.00
S519   S     0.92479   0.91954   0.10426   0.00000  Uiso   1.00
S520   S     0.74227   0.74716   0.39518   0.00000  Uiso   1.00
Zn521  Zn    0.93700   0.83954   0.25539   0.00000  Uiso   1.00
Zn522  Zn    0.72967   0.82713   0.24460   0.00000  Uiso   1.00
C523   C     0.01508   0.26490   0.74878   0.00000  Uiso   1.00
C524   C     0.31253   0.16305   0.65881   0.00000  Uiso   1.00
C525   C     0.03058   0.17560   0.89418   0.00000  Uiso   1.00
C526   C     0.30277   0.15761   0.60583   0.00000  Uiso   1.00
C527   C     0.02121   0.22454   0.97130   0.00000  Uiso   1.00
C528   C     0.31209   0.10849   0.52878   0.00000  Uiso   1.00
C529   C     0.00368   0.21315   0.92211   0.00000  Uiso   1.00
C530   C     0.32959   0.11994   0.57798   0.00000  Uiso   1.00
C531   C     0.07264   0.14762   0.91589   0.00000  Uiso   1.00
C532   C     0.26077   0.18560   0.58404   0.00000  Uiso   1.00
C533   C     0.09991   0.16870   0.96058   0.00000  Uiso   1.00
C534   C     0.31825   0.06843   0.75118   0.00000  Uiso   1.00
C535   C     0.23352   0.16449   0.53938   0.00000  Uiso   1.00
C536   C     0.07023   0.20355   0.99043   0.00000  Uiso   1.00
C537   C     0.26316   0.12956   0.50958   0.00000  Uiso   1.00
C538   C     0.15606   0.15820   0.97583   0.00000  Uiso   1.00
C539   C     0.17740   0.17501   0.52412   0.00000  Uiso   1.00
C540   C     0.14075   0.19888   0.55649   0.00000  Uiso   1.00
C541   C     0.19270   0.13430   0.94348   0.00000  Uiso   1.00
C542   C     0.08960   0.21616   0.53903   0.00000  Uiso   1.00
C543   C     0.24382   0.11695   0.96097   0.00000  Uiso   1.00
C544   C     0.02289   0.31951   0.74803   0.00000  Uiso   1.00
C545   C     0.31042   0.01381   0.75181   0.00000  Uiso   1.00
C546   C     0.02080   0.17028   0.84119   0.00000  Uiso   1.00
H547   H     0.06483   0.23869   0.56373   0.00000  Uiso   1.00
H548   H     0.11334   0.03764   0.83607   0.00000  Uiso   1.00
H549   H     0.33210   0.25196   0.99340   0.00000  Uiso   1.00
H550   H     0.00115   0.08098   0.50675   0.00000  Uiso   1.00
H551   H     0.06600   0.00343   0.74440   0.00000  Uiso   1.00
H552   H     0.26730   0.32989   0.75540   0.00000  Uiso   1.00
H553   H     0.26858   0.09436   0.93630   0.00000  Uiso   1.00
H554   H     0.03024   0.09934   0.59433   0.00000  Uiso   1.00
H555   H     0.30295   0.23370   0.90583   0.00000  Uiso   1.00
H556   H     0.15142   0.20506   0.59536   0.00000  Uiso   1.00
H557   H     0.18199   0.12806   0.90463   0.00000  Uiso   1.00
H558   H     0.16226   0.12455   0.71363   0.00000  Uiso   1.00
H559   H     0.17107   0.20877   0.78638   0.00000  Uiso   1.00
H560   H     0.23438   0.32359   0.57188   0.00000  Uiso   1.00
N561   N     0.14695   0.15216   0.73739   0.00000  Uiso   1.00
N562   N     0.18638   0.18117   0.76260   0.00000  Uiso   1.00
O563   O     0.29719   0.24631   0.75309   0.00000  Uiso   1.00
O564   O     0.31759   0.27593   0.61886   0.00000  Uiso   1.00
O565   O     0.23110   0.28665   0.55865   0.00000  Uiso   1.00
O566   O     0.09951   0.04994   0.93577   0.00000  Uiso   1.00
O567   O     0.01627   0.05744   0.88001   0.00000  Uiso   1.00
O568   O     0.11605   0.07549   0.84618   0.00000  Uiso   1.00
O569   O     0.03614   0.08702   0.74690   0.00000  Uiso   1.00
O570   O     0.05822   0.23702   0.74501   0.00000  Uiso   1.00
O571   O     0.27512   0.09632   0.75498   0.00000  Uiso   1.00
O572   O     0.30328   0.17397   0.82247   0.00000  Uiso   1.00
O573   O     0.03005   0.15937   0.67753   0.00000  Uiso   1.00
O574   O     0.06431   0.16467   0.81439   0.00000  Uiso   1.00
O575   O     0.26902   0.16866   0.68561   0.00000  Uiso   1.00
O576   O     0.22232   0.25784   0.64822   0.00000  Uiso   1.00
S577   S     0.25812   0.25288   0.60426   0.00000  Uiso   1.00
S578   S     0.07560   0.08050   0.89518   0.00000  Uiso   1.00
Zn579  Zn    0.27033   0.17287   0.75539   0.00000  Uiso   1.00
Zn580  Zn    0.06300   0.16046   0.74460   0.00000  Uiso   1.00
C581   C     0.34841   0.26490   0.74878   0.00000  Uiso   1.00
C582   C     0.64587   0.16305   0.65881   0.00000  Uiso   1.00
C583   C     0.36391   0.17560   0.89418   0.00000  Uiso   1.00
C584   C     0.63610   0.15761   0.60583   0.00000  Uiso   1.00
C585   C     0.35455   0.22454   0.97130   0.00000  Uiso   1.00
C586   C     0.64542   0.10849   0.52878   0.00000  Uiso   1.00
C587   C     0.33701   0.21315   0.92211   0.00000  Uiso   1.00
C588   C     0.66293   0.11994   0.57798   0.00000  Uiso   1.00
C589   C     0.40597   0.14762   0.91589   0.00000  Uiso   1.00
C590   C     0.59410   0.18560   0.58404   0.00000  Uiso   1.00
C591   C     0.43325   0.16870   0.96058   0.00000  Uiso   1.00
C592   C     0.65158   0.06843   0.75118   0.00000  Uiso   1.00
C593   C     0.56685   0.16449   0.53938   0.00000  Uiso   1.00
C594   C     0.40356   0.20355   0.99043   0.00000  Uiso   1.00
C595   C     0.59649   0.12956   0.50958   0.00000  Uiso   1.00
C596   C     0.48939   0.15820   0.97583   0.00000  Uiso   1.00
C597   C     0.51073   0.17501   0.52412   0.00000  Uiso   1.00
C598   C     0.47409   0.19888   0.55649   0.00000  Uiso   1.00
C599   C     0.52604   0.13430   0.94348   0.00000  Uiso   1.00
C600   C     0.42293   0.21616   0.53903   0.00000  Uiso   1.00
C601   C     0.57715   0.11695   0.96097   0.00000  Uiso   1.00
C602   C     0.35622   0.31951   0.74803   0.00000  Uiso   1.00
C603   C     0.64375   0.01381   0.75181   0.00000  Uiso   1.00
C604   C     0.35414   0.17028   0.84119   0.00000  Uiso   1.00
H605   H     0.39816   0.23869   0.56373   0.00000  Uiso   1.00
H606   H     0.44667   0.03764   0.83607   0.00000  Uiso   1.00
H607   H     0.66543   0.25196   0.99340   0.00000  Uiso   1.00
H608   H     0.33448   0.08098   0.50675   0.00000  Uiso   1.00
H609   H     0.39933   0.00343   0.74440   0.00000  Uiso   1.00
H610   H     0.60063   0.32989   0.75540   0.00000  Uiso   1.00
H611   H     0.60191   0.09436   0.93630   0.00000  Uiso   1.00
H612   H     0.36358   0.09934   0.59433   0.00000  Uiso   1.00
H613   H     0.63628   0.23370   0.90583   0.00000  Uiso   1.00
H614   H     0.48476   0.20506   0.59536   0.00000  Uiso   1.00
H615   H     0.51532   0.12806   0.90463   0.00000  Uiso   1.00
H616   H     0.49559   0.12455   0.71363   0.00000  Uiso   1.00
H617   H     0.50440   0.20877   0.78638   0.00000  Uiso   1.00
H618   H     0.56772   0.32359   0.57188   0.00000  Uiso   1.00
N619   N     0.48029   0.15216   0.73739   0.00000  Uiso   1.00
N620   N     0.51971   0.18117   0.76260   0.00000  Uiso   1.00
O621   O     0.63052   0.24631   0.75309   0.00000  Uiso   1.00
O622   O     0.65093   0.27593   0.61886   0.00000  Uiso   1.00
O623   O     0.56443   0.28665   0.55865   0.00000  Uiso   1.00
O624   O     0.43284   0.04994   0.93577   0.00000  Uiso   1.00
O625   O     0.34960   0.05744   0.88001   0.00000  Uiso   1.00
O626   O     0.44938   0.07549   0.84618   0.00000  Uiso   1.00
O627   O     0.36948   0.08702   0.74690   0.00000  Uiso   1.00
O628   O     0.39155   0.23702   0.74501   0.00000  Uiso   1.00
O629   O     0.60845   0.09632   0.75498   0.00000  Uiso   1.00
O630   O     0.63662   0.17397   0.82247   0.00000  Uiso   1.00
O631   O     0.36338   0.15937   0.67753   0.00000  Uiso   1.00
O632   O     0.39764   0.16467   0.81439   0.00000  Uiso   1.00
O633   O     0.60236   0.16866   0.68561   0.00000  Uiso   1.00
O634   O     0.55565   0.25784   0.64822   0.00000  Uiso   1.00
S635   S     0.59145   0.25288   0.60426   0.00000  Uiso   1.00
S636   S     0.40893   0.08050   0.89518   0.00000  Uiso   1.00
Zn637  Zn    0.60366   0.17287   0.75539   0.00000  Uiso   1.00
Zn638  Zn    0.39634   0.16046   0.74460   0.00000  Uiso   1.00
C639   C     0.68174   0.26490   0.74878   0.00000  Uiso   1.00
C640   C     0.97920   0.16305   0.65881   0.00000  Uiso   1.00
C641   C     0.69724   0.17560   0.89418   0.00000  Uiso   1.00
C642   C     0.96944   0.15761   0.60583   0.00000  Uiso   1.00
C643   C     0.68788   0.22454   0.97130   0.00000  Uiso   1.00
C644   C     0.97876   0.10849   0.52878   0.00000  Uiso   1.00
C645   C     0.67034   0.21315   0.92211   0.00000  Uiso   1.00
C646   C     0.99626   0.11994   0.57798   0.00000  Uiso   1.00
C647   C     0.73930   0.14762   0.91589   0.00000  Uiso   1.00
C648   C     0.92744   0.18560   0.58404   0.00000  Uiso   1.00
C649   C     0.76658   0.16870   0.96058   0.00000  Uiso   1.00
C650   C     0.98492   0.06843   0.75118   0.00000  Uiso   1.00
C651   C     0.90019   0.16449   0.53938   0.00000  Uiso   1.00
C652   C     0.73690   0.20355   0.99043   0.00000  Uiso   1.00
C653   C     0.92983   0.12956   0.50958   0.00000  Uiso   1.00
C654   C     0.82273   0.15820   0.97583   0.00000  Uiso   1.00
C655   C     0.84406   0.17501   0.52412   0.00000  Uiso   1.00
C656   C     0.80742   0.19888   0.55649   0.00000  Uiso   1.00
C657   C     0.85937   0.13430   0.94348   0.00000  Uiso   1.00
C658   C     0.75626   0.21616   0.53903   0.00000  Uiso   1.00
C659   C     0.91049   0.11695   0.96097   0.00000  Uiso   1.00
C660   C     0.68955   0.31951   0.74803   0.00000  Uiso   1.00
C661   C     0.97708   0.01381   0.75181   0.00000  Uiso   1.00
C662   C     0.68747   0.17028   0.84119   0.00000  Uiso   1.00
H663   H     0.73150   0.23869   0.56373   0.00000  Uiso   1.00
H664   H     0.78001   0.03764   0.83607   0.00000  Uiso   1.00
H665   H     0.99877   0.25196   0.99340   0.00000  Uiso   1.00
H666   H     0.66782   0.08098   0.50675   0.00000  Uiso   1.00
H667   H     0.73266   0.00343   0.74440   0.00000  Uiso   1.00
H668   H     0.93397   0.32989   0.75540   0.00000  Uiso   1.00
H669   H     0.93524   0.09436   0.93630   0.00000  Uiso   1.00
H670   H     0.69691   0.09934   0.59433   0.00000  Uiso   1.00
H671   H     0.96962   0.23370   0.90583   0.00000  Uiso   1.00
H672   H     0.81809   0.20506   0.59536   0.00000  Uiso   1.00
H673   H     0.84865   0.12806   0.90463   0.00000  Uiso   1.00
H674   H     0.82893   0.12455   0.71363   0.00000  Uiso   1.00
H675   H     0.83774   0.20877   0.78638   0.00000  Uiso   1.00
H676   H     0.90105   0.32359   0.57188   0.00000  Uiso   1.00
N677   N     0.81362   0.15216   0.73739   0.00000  Uiso   1.00
N678   N     0.85305   0.18117   0.76260   0.00000  Uiso   1.00
O679   O     0.96386   0.24631   0.75309   0.00000  Uiso   1.00
O680   O     0.98426   0.27593   0.61886   0.00000  Uiso   1.00
O681   O     0.89776   0.28665   0.55865   0.00000  Uiso   1.00
O682   O     0.76618   0.04994   0.93577   0.00000  Uiso   1.00
O683   O     0.68294   0.05744   0.88001   0.00000  Uiso   1.00
O684   O     0.78271   0.07549   0.84618   0.00000  Uiso   1.00
O685   O     0.70281   0.08702   0.74690   0.00000  Uiso   1.00
O686   O     0.72488   0.23702   0.74501   0.00000  Uiso   1.00
O687   O     0.94178   0.09632   0.75498   0.00000  Uiso   1.00
O688   O     0.96995   0.17397   0.82247   0.00000  Uiso   1.00
O689   O     0.69672   0.15937   0.67753   0.00000  Uiso   1.00
O690   O     0.73098   0.16467   0.81439   0.00000  Uiso   1.00
O691   O     0.93569   0.16866   0.68561   0.00000  Uiso   1.00
O692   O     0.88898   0.25784   0.64822   0.00000  Uiso   1.00
S693   S     0.92479   0.25288   0.60426   0.00000  Uiso   1.00
S694   S     0.74227   0.08050   0.89518   0.00000  Uiso   1.00
Zn695  Zn    0.93700   0.17287   0.75539   0.00000  Uiso   1.00
Zn696  Zn    0.72967   0.16046   0.74460   0.00000  Uiso   1.00
C697   C     0.01508   0.59823   0.74878   0.00000  Uiso   1.00
C698   C     0.31253   0.49638   0.65881   0.00000  Uiso   1.00
C699   C     0.03058   0.50894   0.89418   0.00000  Uiso   1.00
C700   C     0.30277   0.49095   0.60583   0.00000  Uiso   1.00
C701   C     0.02121   0.55788   0.97130   0.00000  Uiso   1.00
C702   C     0.31209   0.44182   0.52878   0.00000  Uiso   1.00
C703   C     0.00368   0.54648   0.92211   0.00000  Uiso   1.00
C704   C     0.32959   0.45327   0.57798   0.00000  Uiso   1.00
C705   C     0.07264   0.48095   0.91589   0.00000  Uiso   1.00
C706   C     0.26077   0.51894   0.58404   0.00000  Uiso   1.00
C707   C     0.09991   0.50204   0.96058   0.00000  Uiso   1.00
C708   C     0.31825   0.40176   0.75118   0.00000  Uiso   1.00
C709   C     0.23352   0.49782   0.53938   0.00000  Uiso   1.00
C710   C     0.07023   0.53688   0.99043   0.00000  Uiso   1.00
C711   C     0.26316   0.46290   0.50958   0.00000  Uiso   1.00
C712   C     0.15606   0.49153   0.97583   0.00000  Uiso   1.00
C713   C     0.17740   0.50835   0.52412   0.00000  Uiso   1.00
C714   C     0.14075   0.53221   0.55649   0.00000  Uiso   1.00
C715   C     0.19270   0.46763   0.94348   0.00000  Uiso   1.00
C716   C     0.08960   0.54949   0.53903   0.00000  Uiso   1.00
C717   C     0.24382   0.45029   0.96097   0.00000  Uiso   1.00
C718   C     0.02289   0.65284   0.74803   0.00000  Uiso   1.00
C719   C     0.31042   0.34715   0.75181   0.00000  Uiso   1.00
C720   C     0.02080   0.50361   0.84119   0.00000  Uiso   1.00
H721   H     0.06483   0.57203   0.56373   0.00000  Uiso   1.00
H722   H     0.11334   0.37098   0.83607   0.00000  Uiso   1.00
H723   H     0.33210   0.58529   0.99340   0.00000  Uiso   1.00
H724   H     0.00115   0.41431   0.50675   0.00000  Uiso   1.00
H725   H     0.06600   0.33676   0.74440   0.00000  Uiso   1.00
H726   H     0.26730   0.66322   0.75540   0.00000  Uiso   1.00
H727   H     0.26858   0.42769   0.93630   0.00000  Uiso   1.00
H728   H     0.03024   0.43267   0.59433   0.00000  Uiso   1.00
H729   H     0.30295   0.56704   0.90583   0.00000  Uiso   1.00
H730   H     0.15142   0.53839   0.59536   0.00000  Uiso   1.00
H731   H     0.18199   0.46139   0.90463   0.00000  Uiso   1.00
H732   H     0.16226   0.45789   0.71363   0.00000  Uiso   1.00
H733   H     0.17107   0.54211   0.78638   0.00000  Uiso   1.00
H734   H     0.23438   0.65693   0.57188   0.00000  Uiso   1.00
N735   N     0.14695   0.48550   0.73739   0.00000  Uiso   1.00
N736   N     0.18638   0.51450   0.76260   0.00000  Uiso   1.00
O737   O     0.29719   0.57964   0.75309   0.00000  Uiso   1.00
O738   O     0.31759   0.60927   0.61886   0.00000  Uiso   1.00
O739   O     0.23110   0.61998   0.55865   0.00000  Uiso   1.00
O740   O     0.09951   0.38327   0.93577   0.00000  Uiso   1.00
O741   O     0.01627   0.39078   0.88001   0.00000  Uiso   1.00
O742   O     0.11605   0.40882   0.84618   0.00000  Uiso   1.00
O743   O     0.03614   0.42036   0.74690   0.00000  Uiso   1.00
O744   O     0.05822   0.57035   0.74501   0.00000  Uiso   1.00
O745   O     0.27512   0.42965   0.75498   0.00000  Uiso   1.00
O746   O     0.30328   0.50730   0.82247   0.00000  Uiso   1.00
O747   O     0.03005   0.49270   0.67753   0.00000  Uiso   1.00
O748   O     0.06431   0.49801   0.81439   0.00000  Uiso   1.00
O749   O     0.26902   0.50199   0.68561   0.00000  Uiso   1.00
O750   O     0.22232   0.59117   0.64822   0.00000  Uiso   1.00
S751   S     0.25812   0.58621   0.60426   0.00000  Uiso   1.00
S752   S     0.07560   0.41383   0.89518   0.00000  Uiso   1.00
Zn753  Zn    0.27033   0.50621   0.75539   0.00000  Uiso   1.00
Zn754  Zn    0.06300   0.49379   0.74460   0.00000  Uiso   1.00
C755   C     0.34841   0.59823   0.74878   0.00000  Uiso   1.00
C756   C     0.64587   0.49638   0.65881   0.00000  Uiso   1.00
C757   C     0.36391   0.50894   0.89418   0.00000  Uiso   1.00
C758   C     0.63610   0.49095   0.60583   0.00000  Uiso   1.00
C759   C     0.35455   0.55788   0.97130   0.00000  Uiso   1.00
C760   C     0.64542   0.44182   0.52878   0.00000  Uiso   1.00
C761   C     0.33701   0.54648   0.92211   0.00000  Uiso   1.00
C762   C     0.66293   0.45327   0.57798   0.00000  Uiso   1.00
C763   C     0.40597   0.48095   0.91589   0.00000  Uiso   1.00
C764   C     0.59410   0.51894   0.58404   0.00000  Uiso   1.00
C765   C     0.43325   0.50204   0.96058   0.00000  Uiso   1.00
C766   C     0.65158   0.40176   0.75118   0.00000  Uiso   1.00
C767   C     0.56685   0.49782   0.53938   0.00000  Uiso   1.00
C768   C     0.40356   0.53688   0.99043   0.00000  Uiso   1.00
C769   C     0.59649   0.46290   0.50958   0.00000  Uiso   1.00
C770   C     0.48939   0.49153   0.97583   0.00000  Uiso   1.00
C771   C     0.51073   0.50835   0.52412   0.00000  Uiso   1.00
C772   C     0.47409   0.53221   0.55649   0.00000  Uiso   1.00
C773   C     0.52604   0.46763   0.94348   0.00000  Uiso   1.00
C774   C     0.42293   0.54949   0.53903   0.00000  Uiso   1.00
C775   C     0.57715   0.45029   0.96097   0.00000  Uiso   1.00
C776   C     0.35622   0.65284   0.74803   0.00000  Uiso   1.00
C777   C     0.64375   0.34715   0.75181   0.00000  Uiso   1.00
C778   C     0.35414   0.50361   0.84119   0.00000  Uiso   1.00
H779   H     0.39816   0.57203   0.56373   0.00000  Uiso   1.00
H780   H     0.44667   0.37098   0.83607   0.00000  Uiso   1.00
H781   H     0.66543   0.58529   0.99340   0.00000  Uiso   1.00
H782   H     0.33448   0.41431   0.50675   0.00000  Uiso   1.00
H783   H     0.39933   0.33676   0.74440   0.00000  Uiso   1.00
H784   H     0.60063   0.66322   0.75540   0.00000  Uiso   1.00
H785   H     0.60191   0.42769   0.93630   0.00000  Uiso   1.00
H786   H     0.36358   0.43267   0.59433   0.00000  Uiso   1.00
H787   H     0.63628   0.56704   0.90583   0.00000  Uiso   1.00
H788   H     0.48476   0.53839   0.59536   0.00000  Uiso   1.00
H789   H     0.51532   0.46139   0.90463   0.00000  Uiso   1.00
H790   H     0.49559   0.45789   0.71363   0.00000  Uiso   1.00
H791   H     0.50440   0.54211   0.78638   0.00000  Uiso   1.00
H792   H     0.56772   0.65693   0.57188   0.00000  Uiso   1.00
N793   N     0.48029   0.48550   0.73739   0.00000  Uiso   1.00
N794   N     0.51971   0.51450   0.76260   0.00000  Uiso   1.00
O795   O     0.63052   0.57964   0.75309   0.00000  Uiso   1.00
O796   O     0.65093   0.60927   0.61886   0.00000  Uiso   1.00
O797   O     0.56443   0.61998   0.55865   0.00000  Uiso   1.00
O798   O     0.43284   0.38327   0.93577   0.00000  Uiso   1.00
O799   O     0.34960   0.39078   0.88001   0.00000  Uiso   1.00
O800   O     0.44938   0.40882   0.84618   0.00000  Uiso   1.00
O801   O     0.36948   0.42036   0.74690   0.00000  Uiso   1.00
O802   O     0.39155   0.57035   0.74501   0.00000  Uiso   1.00
O803   O     0.60845   0.42965   0.75498   0.00000  Uiso   1.00
O804   O     0.63662   0.50730   0.82247   0.00000  Uiso   1.00
O805   O     0.36338   0.49270   0.67753   0.00000  Uiso   1.00
O806   O     0.39764   0.49801   0.81439   0.00000  Uiso   1.00
O807   O     0.60236   0.50199   0.68561   0.00000  Uiso   1.00
O808   O     0.55565   0.59117   0.64822   0.00000  Uiso   1.00
S809   S     0.59145   0.58621   0.60426   0.00000  Uiso   1.00
S810   S     0.40893   0.41383   0.89518   0.00000  Uiso   1.00
Zn811  Zn    0.60366   0.50621   0.75539   0.00000  Uiso   1.00
Zn812  Zn    0.39634   0.49379   0.74460   0.00000  Uiso   1.00
C813   C     0.68174   0.59823   0.74878   0.00000  Uiso   1.00
C814   C     0.97920   0.49638   0.65881   0.00000  Uiso   1.00
C815   C     0.69724   0.50894   0.89418   0.00000  Uiso   1.00
C816   C     0.96944   0.49095   0.60583   0.00000  Uiso   1.00
C817   C     0.68788   0.55788   0.97130   0.00000  Uiso   1.00
C818   C     0.97876   0.44182   0.52878   0.00000  Uiso   1.00
C819   C     0.67034   0.54648   0.92211   0.00000  Uiso   1.00
C820   C     0.99626   0.45327   0.57798   0.00000  Uiso   1.00
C821   C     0.73930   0.48095   0.91589   0.00000  Uiso   1.00
C822   C     0.92744   0.51894   0.58404   0.00000  Uiso   1.00
C823   C     0.76658   0.50204   0.96058   0.00000  Uiso   1.00
C824   C     0.98492   0.40176   0.75118   0.00000  Uiso   1.00
C825   C     0.90019   0.49782   0.53938   0.00000  Uiso   1.00
C826   C     0.73690   0.53688   0.99043   0.00000  Uiso   1.00
C827   C     0.92983   0.46290   0.50958   0.00000  Uiso   1.00
C828   C     0.82273   0.49153   0.97583   0.00000  Uiso   1.00
C829   C     0.84406   0.50835   0.52412   0.00000  Uiso   1.00
C830   C     0.80742   0.53221   0.55649   0.00000  Uiso   1.00
C831   C     0.85937   0.46763   0.94348   0.00000  Uiso   1.00
C832   C     0.75626   0.54949   0.53903   0.00000  Uiso   1.00
C833   C     0.91049   0.45029   0.96097   0.00000  Uiso   1.00
C834   C     0.68955   0.65284   0.74803   0.00000  Uiso   1.00
C835   C     0.97708   0.34715   0.75181   0.00000  Uiso   1.00
C836   C     0.68747   0.50361   0.84119   0.00000  Uiso   1.00
H837   H     0.73150   0.57203   0.56373   0.00000  Uiso   1.00
H838   H     0.78001   0.37098   0.83607   0.00000  Uiso   1.00
H839   H     0.99877   0.58529   0.99340   0.00000  Uiso   1.00
H840   H     0.66782   0.41431   0.50675   0.00000  Uiso   1.00
H841   H     0.73266   0.33676   0.74440   0.00000  Uiso   1.00
H842   H     0.93397   0.66322   0.75540   0.00000  Uiso   1.00
H843   H     0.93524   0.42769   0.93630   0.00000  Uiso   1.00
H844   H     0.69691   0.43267   0.59433   0.00000  Uiso   1.00
H845   H     0.96962   0.56704   0.90583   0.00000  Uiso   1.00
H846   H     0.81809   0.53839   0.59536   0.00000  Uiso   1.00
H847   H     0.84865   0.46139   0.90463   0.00000  Uiso   1.00
H848   H     0.82893   0.45789   0.71363   0.00000  Uiso   1.00
H849   H     0.83774   0.54211   0.78638   0.00000  Uiso   1.00
H850   H     0.90105   0.65693   0.57188   0.00000  Uiso   1.00
N851   N     0.81362   0.48550   0.73739   0.00000  Uiso   1.00
N852   N     0.85305   0.51450   0.76260   0.00000  Uiso   1.00
O853   O     0.96386   0.57964   0.75309   0.00000  Uiso   1.00
O854   O     0.98426   0.60927   0.61886   0.00000  Uiso   1.00
O855   O     0.89776   0.61998   0.55865   0.00000  Uiso   1.00
O856   O     0.76618   0.38327   0.93577   0.00000  Uiso   1.00
O857   O     0.68294   0.39078   0.88001   0.00000  Uiso   1.00
O858   O     0.78271   0.40882   0.84618   0.00000  Uiso   1.00
O859   O     0.70281   0.42036   0.74690   0.00000  Uiso   1.00
O860   O     0.72488   0.57035   0.74501   0.00000  Uiso   1.00
O861   O     0.94178   0.42965   0.75498   0.00000  Uiso   1.00
O862   O     0.96995   0.50730   0.82247   0.00000  Uiso   1.00
O863   O     0.69672   0.49270   0.67753   0.00000  Uiso   1.00
O864   O     0.73098   0.49801   0.81439   0.00000  Uiso   1.00
O865   O     0.93569   0.50199   0.68561   0.00000  Uiso   1.00
O866   O     0.88898   0.59117   0.64822   0.00000  Uiso   1.00
S867   S     0.92479   0.58621   0.60426   0.00000  Uiso   1.00
S868   S     0.74227   0.41383   0.89518   0.00000  Uiso   1.00
Zn869  Zn    0.93700   0.50621   0.75539   0.00000  Uiso   1.00
Zn870  Zn    0.72967   0.49379   0.74460   0.00000  Uiso   1.00
C871   C     0.01508   0.93157   0.74878   0.00000  Uiso   1.00
C872   C     0.31253   0.82971   0.65881   0.00000  Uiso   1.00
C873   C     0.03058   0.84227   0.89418   0.00000  Uiso   1.00
C874   C     0.30277   0.82428   0.60583   0.00000  Uiso   1.00
C875   C     0.02121   0.89121   0.97130   0.00000  Uiso   1.00
C876   C     0.31209   0.77515   0.52878   0.00000  Uiso   1.00
C877   C     0.00368   0.87982   0.92211   0.00000  Uiso   1.00
C878   C     0.32959   0.78660   0.57798   0.00000  Uiso   1.00
C879   C     0.07264   0.81429   0.91589   0.00000  Uiso   1.00
C880   C     0.26077   0.85227   0.58404   0.00000  Uiso   1.00
C881   C     0.09991   0.83537   0.96058   0.00000  Uiso   1.00
C882   C     0.31825   0.73510   0.75118   0.00000  Uiso   1.00
C883   C     0.23352   0.83116   0.53938   0.00000  Uiso   1.00
C884   C     0.07023   0.87021   0.99043   0.00000  Uiso   1.00
C885   C     0.26316   0.79623   0.50958   0.00000  Uiso   1.00
C886   C     0.15606   0.82486   0.97583   0.00000  Uiso   1.00
C887   C     0.17740   0.84168   0.52412   0.00000  Uiso   1.00
C888   C     0.14075   0.86554   0.55649   0.00000  Uiso   1.00
C889   C     0.19270   0.80097   0.94348   0.00000  Uiso   1.00
C890   C     0.08960   0.88282   0.53903   0.00000  Uiso   1.00
C891   C     0.24382   0.78362   0.96097   0.00000  Uiso   1.00
C892   C     0.02289   0.98618   0.74803   0.00000  Uiso   1.00
C893   C     0.31042   0.68048   0.75181   0.00000  Uiso   1.00
C894   C     0.02080   0.83695   0.84119   0.00000  Uiso   1.00
H895   H     0.06483   0.90536   0.56373   0.00000  Uiso   1.00
H896   H     0.11334   0.70431   0.83607   0.00000  Uiso   1.00
H897   H     0.33210   0.91863   0.99340   0.00000  Uiso   1.00
H898   H     0.00115   0.74764   0.50675   0.00000  Uiso   1.00
H899   H     0.06600   0.67010   0.74440   0.00000  Uiso   1.00
H900   H     0.26730   0.99655   0.75540   0.00000  Uiso   1.00
H901   H     0.26858   0.76102   0.93630   0.00000  Uiso   1.00
H902   H     0.03024   0.76601   0.59433   0.00000  Uiso   1.00
H903   H     0.30295   0.90037   0.90583   0.00000  Uiso   1.00
H904   H     0.15142   0.87172   0.59536   0.00000  Uiso   1.00
H905   H     0.18199   0.79473   0.90463   0.00000  Uiso   1.00
H906   H     0.16226   0.79122   0.71363   0.00000  Uiso   1.00
H907   H     0.17107   0.87544   0.78638   0.00000  Uiso   1.00
H908   H     0.23438   0.99026   0.57188   0.00000  Uiso   1.00
N909   N     0.14695   0.81883   0.73739   0.00000  Uiso   1.00
N910   N     0.18638   0.84784   0.76260   0.00000  Uiso   1.00
O911   O     0.29719   0.91298   0.75309   0.00000  Uiso   1.00
O912   O     0.31759   0.94260   0.61886   0.00000  Uiso   1.00
O913   O     0.23110   0.95332   0.55865   0.00000  Uiso   1.00
O914   O     0.09951   0.71660   0.93577   0.00000  Uiso   1.00
O915   O     0.01627   0.72411   0.88001   0.00000  Uiso   1.00
O916   O     0.11605   0.74215   0.84618   0.00000  Uiso   1.00
O917   O     0.03614   0.75369   0.74690   0.00000  Uiso   1.00
O918   O     0.05822   0.90368   0.74501   0.00000  Uiso   1.00
O919   O     0.27512   0.76298   0.75498   0.00000  Uiso   1.00
O920   O     0.30328   0.84063   0.82247   0.00000  Uiso   1.00
O921   O     0.03005   0.82603   0.67753   0.00000  Uiso   1.00
O922   O     0.06431   0.83134   0.81439   0.00000  Uiso   1.00
O923   O     0.26902   0.83533   0.68561   0.00000  Uiso   1.00
O924   O     0.22232   0.92450   0.64822   0.00000  Uiso   1.00
S925   S     0.25812   0.91954   0.60426   0.00000  Uiso   1.00
S926   S     0.07560   0.74716   0.89518   0.00000  Uiso   1.00
Zn927  Zn    0.27033   0.83954   0.75539   0.00000  Uiso   1.00
Zn928  Zn    0.06300   0.82713   0.74460   0.00000  Uiso   1.00
C929   C     0.34841   0.93157   0.74878   0.00000  Uiso   1.00
C930   C     0.64587   0.82971   0.65881   0.00000  Uiso   1.00
C931   C     0.36391   0.84227   0.89418   0.00000  Uiso   1.00
C932   C     0.63610   0.82428   0.60583   0.00000  Uiso   1.00
C933   C     0.35455   0.89121   0.97130   0.00000  Uiso   1.00
C934   C     0.64542   0.77515   0.52878   0.00000  Uiso   1.00
C935   C     0.33701   0.87982   0.92211   0.00000  Uiso   1.00
C936   C     0.66293   0.78660   0.57798   0.00000  Uiso   1.00
C937   C     0.40597   0.81429   0.91589   0.00000  Uiso   1.00
C938   C     0.59410   0.85227   0.58404   0.00000  Uiso   1.00
C939   C     0.43325   0.83537   0.96058   0.00000  Uiso   1.00
C940   C     0.65158   0.73510   0.75118   0.00000  Uiso   1.00
C941   C     0.56685   0.83116   0.53938   0.00000  Uiso   1.00
C942   C     0.40356   0.87021   0.99043   0.00000  Uiso   1.00
C943   C     0.59649   0.79623   0.50958   0.00000  Uiso   1.00
C944   C     0.48939   0.82486   0.97583   0.00000  Uiso   1.00
C945   C     0.51073   0.84168   0.52412   0.00000  Uiso   1.00
C946   C     0.47409   0.86554   0.55649   0.00000  Uiso   1.00
C947   C     0.52604   0.80097   0.94348   0.00000  Uiso   1.00
C948   C     0.42293   0.88282   0.53903   0.00000  Uiso   1.00
C949   C     0.57715   0.78362   0.96097   0.00000  Uiso   1.00
C950   C     0.35622   0.98618   0.74803   0.00000  Uiso   1.00
C951   C     0.64375   0.68048   0.75181   0.00000  Uiso   1.00
C952   C     0.35414   0.83695   0.84119   0.00000  Uiso   1.00
H953   H     0.39816   0.90536   0.56373   0.00000  Uiso   1.00
H954   H     0.44667   0.70431   0.83607   0.00000  Uiso   1.00
H955   H     0.66543   0.91863   0.99340   0.00000  Uiso   1.00
H956   H     0.33448   0.74764   0.50675   0.00000  Uiso   1.00
H957   H     0.39933   0.67010   0.74440   0.00000  Uiso   1.00
H958   H     0.60063   0.99655   0.75540   0.00000  Uiso   1.00
H959   H     0.60191   0.76102   0.93630   0.00000  Uiso   1.00
H960   H     0.36358   0.76601   0.59433   0.00000  Uiso   1.00
H961   H     0.63628   0.90037   0.90583   0.00000  Uiso   1.00
H962   H     0.48476   0.87172   0.59536   0.00000  Uiso   1.00
H963   H     0.51532   0.79473   0.90463   0.00000  Uiso   1.00
H964   H     0.49559   0.79122   0.71363   0.00000  Uiso   1.00
H965   H     0.50440   0.87544   0.78638   0.00000  Uiso   1.00
H966   H     0.56772   0.99026   0.57188   0.00000  Uiso   1.00
N967   N     0.48029   0.81883   0.73739   0.00000  Uiso   1.00
N968   N     0.51971   0.84784   0.76260   0.00000  Uiso   1.00
O969   O     0.63052   0.91298   0.75309   0.00000  Uiso   1.00
O970   O     0.65093   0.94260   0.61886   0.00000  Uiso   1.00
O971   O     0.56443   0.95332   0.55865   0.00000  Uiso   1.00
O972   O     0.43284   0.71660   0.93577   0.00000  Uiso   1.00
O973   O     0.34960   0.72411   0.88001   0.00000  Uiso   1.00
O974   O     0.44938   0.74215   0.84618   0.00000  Uiso   1.00
O975   O     0.36948   0.75369   0.74690   0.00000  Uiso   1.00
O976   O     0.39155   0.90368   0.74501   0.00000  Uiso   1.00
O977   O     0.60845   0.76298   0.75498   0.00000  Uiso   1.00
O978   O     0.63662   0.84063   0.82247   0.00000  Uiso   1.00
O979   O     0.36338   0.82603   0.67753   0.00000  Uiso   1.00
O980   O     0.39764   0.83134   0.81439   0.00000  Uiso   1.00
O981   O     0.60236   0.83533   0.68561   0.00000  Uiso   1.00
O982   O     0.55565   0.92450   0.64822   0.00000  Uiso   1.00
S983   S     0.59145   0.91954   0.60426   0.00000  Uiso   1.00
S984   S     0.40893   0.74716   0.89518   0.00000  Uiso   1.00
Zn985  Zn    0.60366   0.83954   0.75539   0.00000  Uiso   1.00
Zn986  Zn    0.39634   0.82713   0.74460   0.00000  Uiso   1.00
C987   C     0.68174   0.93157   0.74878   0.00000  Uiso   1.00
C988   C     0.97920   0.82971   0.65881   0.00000  Uiso   1.00
C989   C     0.69724   0.84227   0.89418   0.00000  Uiso   1.00
C990   C     0.96944   0.82428   0.60583   0.00000  Uiso   1.00
C991   C     0.68788   0.89121   0.97130   0.00000  Uiso   1.00
C992   C     0.97876   0.77515   0.52878   0.00000  Uiso   1.00
C993   C     0.67034   0.87982   0.92211   0.00000  Uiso   1.00
C994   C     0.99626   0.78660   0.57798   0.00000  Uiso   1.00
C995   C     0.73930   0.81429   0.91589   0.00000  Uiso   1.00
C996   C     0.92744   0.85227   0.58404   0.00000  Uiso   1.00
C997   C     0.76658   0.83537   0.96058   0.00000  Uiso   1.00
C998   C     0.98492   0.73510   0.75118   0.00000  Uiso   1.00
C999   C     0.90019   0.83116   0.53938   0.00000  Uiso   1.00
C1000  C     0.73690   0.87021   0.99043   0.00000  Uiso   1.00
C1001  C     0.92983   0.79623   0.50958   0.00000  Uiso   1.00
C1002  C     0.82273   0.82486   0.97583   0.00000  Uiso   1.00
C1003  C     0.84406   0.84168   0.52412   0.00000  Uiso   1.00
C1004  C     0.80742   0.86554   0.55649   0.00000  Uiso   1.00
C1005  C     0.85937   0.80097   0.94348   0.00000  Uiso   1.00
C1006  C     0.75626   0.88282   0.53903   0.00000  Uiso   1.00
C1007  C     0.91049   0.78362   0.96097   0.00000  Uiso   1.00
C1008  C     0.68955   0.98618   0.74803   0.00000  Uiso   1.00
C1009  C     0.97708   0.68048   0.75181   0.00000  Uiso   1.00
C1010  C     0.68747   0.83695   0.84119   0.00000  Uiso   1.00
H1011  H     0.73150   0.90536   0.56373   0.00000  Uiso   1.00
H1012  H     0.78001   0.70431   0.83607   0.00000  Uiso   1.00
H1013  H     0.99877   0.91863   0.99340   0.00000  Uiso   1.00
H1014  H     0.66782   0.74764   0.50675   0.00000  Uiso   1.00
H1015  H     0.73266   0.67010   0.74440   0.00000  Uiso   1.00
H1016  H     0.93397   0.99655   0.75540   0.00000  Uiso   1.00
H1017  H     0.93524   0.76102   0.93630   0.00000  Uiso   1.00
H1018  H     0.69691   0.76601   0.59433   0.00000  Uiso   1.00
H1019  H     0.96962   0.90037   0.90583   0.00000  Uiso   1.00
H1020  H     0.81809   0.87172   0.59536   0.00000  Uiso   1.00
H1021  H     0.84865   0.79473   0.90463   0.00000  Uiso   1.00
H1022  H     0.82893   0.79122   0.71363   0.00000  Uiso   1.00
H1023  H     0.83774   0.87544   0.78638   0.00000  Uiso   1.00
H1024  H     0.90105   0.99026   0.57188   0.00000  Uiso   1.00
N1025  N     0.81362   0.81883   0.73739   0.00000  Uiso   1.00
N1026  N     0.85305   0.84784   0.76260   0.00000  Uiso   1.00
O1027  O     0.96386   0.91298   0.75309   0.00000  Uiso   1.00
O1028  O     0.98426   0.94260   0.61886   0.00000  Uiso   1.00
O1029  O     0.89776   0.95332   0.55865   0.00000  Uiso   1.00
O1030  O     0.76618   0.71660   0.93577   0.00000  Uiso   1.00
O1031  O     0.68294   0.72411   0.88001   0.00000  Uiso   1.00
O1032  O     0.78271   0.74215   0.84618   0.00000  Uiso   1.00
O1033  O     0.70281   0.75369   0.74690   0.00000  Uiso   1.00
O1034  O     0.72488   0.90368   0.74501   0.00000  Uiso   1.00
O1035  O     0.94178   0.76298   0.75498   0.00000  Uiso   1.00
O1036  O     0.96995   0.84063   0.82247   0.00000  Uiso   1.00
O1037  O     0.69672   0.82603   0.67753   0.00000  Uiso   1.00
O1038  O     0.73098   0.83134   0.81439   0.00000  Uiso   1.00
O1039  O     0.93569   0.83533   0.68561   0.00000  Uiso   1.00
O1040  O     0.88898   0.92450   0.64822   0.00000  Uiso   1.00
S1041  S     0.92479   0.91954   0.60426   0.00000  Uiso   1.00
S1042  S     0.74227   0.74716   0.89518   0.00000  Uiso   1.00
Zn1043 Zn    0.93700   0.83954   0.75539   0.00000  Uiso   1.00
Zn1044 Zn    0.72967   0.82713   0.74460   0.00000  Uiso   1.00
loop_
_geom_bond_atom_site_label_1
_geom_bond_atom_site_label_2
_geom_bond_distance
_geom_bond_site_symmetry_2
_ccdc_geom_bond_type
C1     O48     1.290   .     A
C1     C22     1.401   .     S
C1     O157    1.276   1_455 S
C2     C4      1.447   .     S
C2     O53     1.299   .     A
C2     O109    1.290   .     S
C3     C9      1.394   .     A
C3     C24     1.447   .     S
C3     C7      1.401   .     A
C4     C8      1.401   .     A
C4     C10     1.394   .     A
C5     C14     1.400   .     A
C5     C7      1.390   .     A
C5     H143    1.084   1_455 S
C6     C8      1.390   .     A
C6     C15     1.400   .     A
C6     H86     1.084   .     S
C7     H149    1.083   1_455 S
C8     H90     1.083   .     S
C9     C11     1.407   .     A
C9     S56     1.789   .     S
C10    C13     1.406   .     A
C10    S55     1.788   .     S
C11    C16     1.416   .     A
C11    C14     1.420   .     A
C12    C23     1.402   .     S
C12    O49     1.290   .     A
C12    O105    1.276   .     S
C13    C17     1.415   .     A
C13    C15     1.420   .     A
C14    C542    1.390   .     S
C15    C543    1.390   1_554 S
C16    C19     1.411   .     A
C16    C539    1.415   .     S
C17    C18     1.411   .     A
C17    C538    1.415   1_554 S
C18    C20     1.386   .     A
C18    H34     1.076   .     S
C19    H35     1.076   .     S
C19    C21     1.386   .     A
C20    H25     1.082   .     S
C20    C536    1.390   1_554 S
C21    H31     1.083   .     S
C21    C537    1.390   .     S
C22    C313    1.339   1_455 S
C22    H203    1.088   .     S
C23    C428    1.339   1_545 S
C23    H378    1.088   1_545 S
C24    O52     1.299   .     A
C24    O166    1.290   1_455 S
H26    O46     0.990   .     S
H27    C63     1.084   .     S
H28    C122    1.084   1_455 S
H29    C370    1.088   1_545 S
H30    C197    1.088   .     S
H32    C124    1.083   1_455 S
H33    C65     1.083   .     S
H36    N39     1.029   .     S
H37    N40     1.029   .     S
H38    O43     0.991   .     S
N39    Zn58    2.021   .     S
N39    N40     1.288   .     D
N40    Zn57    2.021   .     S
O41    Zn57    1.948   .     S
O41    C59     1.276   .     S
O42    S55     1.503   .     D
O43    S55     1.683   .     S
O44    S56     1.504   .     D
O45    S56     1.503   .     D
O46    S56     1.683   .     S
O47    Zn58    1.948   .     S
O47    C128    1.276   1_455 S
O48    Zn58    1.976   .     S
O49    Zn57    1.976   .     S
O50    Zn57    1.947   .     S
O50    C82     1.290   .     S
O51    Zn58    1.947   .     S
O51    C118    1.290   1_455 S
O52    Zn58    1.897   .     S
O53    Zn57    1.897   .     S
O54    S55     1.503   .     D
C59    O106    1.290   .     A
C59    C80     1.401   .     S
C60    C62     1.447   .     S
C60    O111    1.299   .     A
C60    O167    1.290   .     S
C61    C67     1.394   .     A
C61    C82     1.447   .     S
C61    C65     1.401   .     A
C62    C66     1.401   .     A
C62    C68     1.394   .     A
C63    C72     1.400   .     A
C63    C65     1.390   .     A
C64    C66     1.390   .     A
C64    C73     1.400   .     A
C64    H144    1.084   .     S
C66    H148    1.083   .     S
C67    C69     1.407   .     A
C67    S114    1.789   .     S
C68    C71     1.406   .     A
C68    S113    1.788   .     S
C69    C74     1.416   .     A
C69    C72     1.420   .     A
C70    C81     1.402   .     S
C70    O107    1.290   .     A
C70    O163    1.276   .     S
C71    C75     1.415   .     A
C71    C73     1.420   .     A
C72    C600    1.390   .     S
C73    C601    1.390   1_554 S
C74    C77     1.411   .     A
C74    C597    1.415   .     S
C75    C76     1.411   .     A
C75    C596    1.415   1_554 S
C76    C78     1.386   .     A
C76    H92     1.076   .     S
C77    H93     1.076   .     S
C77    C79     1.386   .     A
C78    H83     1.082   .     S
C78    C594    1.390   1_554 S
C79    H89     1.083   .     S
C79    C595    1.390   .     S
C80    C197    1.339   .     S
C80    H261    1.088   .     S
C81    C486    1.339   1_545 S
C81    H436    1.088   1_545 S
C82    O110    1.299   .     A
H84    O104    0.990   .     S
H85    C121    1.084   .     S
H87    C428    1.088   1_545 S
H88    C255    1.088   .     S
H91    C123    1.083   .     S
H94    N97     1.029   .     S
H95    N98     1.029   .     S
H96    O101    0.991   .     S
N97    Zn116   2.021   .     S
N97    N98     1.288   .     D
N98    Zn115   2.021   .     S
O99    Zn115   1.948   .     S
O99    C117    1.276   .     S
O100   S113    1.503   .     D
O101   S113    1.683   .     S
O102   S114    1.504   .     D
O103   S114    1.503   .     D
O104   S114    1.683   .     S
O105   Zn116   1.948   .     S
O106   Zn116   1.976   .     S
O107   Zn115   1.976   .     S
O108   Zn115   1.947   .     S
O108   C140    1.290   .     S
O109   Zn116   1.947   .     S
O110   Zn116   1.897   .     S
O111   Zn115   1.897   .     S
O112   S113    1.503   .     D
C117   O164    1.290   .     A
C117   C138    1.401   .     S
C118   C120    1.447   .     S
C118   O169    1.299   .     A
C118   O51     1.290   1_655 S
C119   C125    1.394   .     A
C119   C140    1.447   .     S
C119   C123    1.401   .     A
C120   C124    1.401   .     A
C120   C126    1.394   .     A
C121   C130    1.400   .     A
C121   C123    1.390   .     A
C122   C124    1.390   .     A
C122   C131    1.400   .     A
C122   H28     1.084   1_655 S
C124   H32     1.083   1_655 S
C125   C127    1.407   .     A
C125   S172    1.789   .     S
C126   C129    1.406   .     A
C126   S171    1.788   .     S
C127   C132    1.416   .     A
C127   C130    1.420   .     A
C128   C139    1.402   .     S
C128   O165    1.290   .     A
C128   O47     1.276   1_655 S
C129   C133    1.415   .     A
C129   C131    1.420   .     A
C130   C658    1.390   .     S
C131   C659    1.390   1_554 S
C132   C135    1.411   .     A
C132   C655    1.415   .     S
C133   C134    1.411   .     A
C133   C654    1.415   1_554 S
C134   C136    1.386   .     A
C134   H150    1.076   .     S
C135   H151    1.076   .     S
C135   C137    1.386   .     A
C136   H141    1.082   .     S
C136   C652    1.390   1_554 S
C137   H147    1.083   .     S
C137   C653    1.390   .     S
C138   C255    1.339   .     S
C138   H319    1.088   .     S
C139   C370    1.339   1_645 S
C139   H494    1.088   1_545 S
C140   O168    1.299   .     A
H142   O162    0.990   .     S
H143   C5      1.084   1_655 S
H145   C486    1.088   1_545 S
H146   C313    1.088   .     S
H149   C7      1.083   1_655 S
H152   N155    1.029   .     S
H153   N156    1.029   .     S
H154   O159    0.991   .     S
N155   Zn174   2.021   .     S
N155   N156    1.288   .     D
N156   Zn173   2.021   .     S
O157   Zn173   1.948   .     S
O157   C1      1.276   1_655 S
O158   S171    1.503   .     D
O159   S171    1.683   .     S
O160   S172    1.504   .     D
O161   S172    1.503   .     D
O162   S172    1.683   .     S
O163   Zn174   1.948   .     S
O164   Zn174   1.976   .     S
O165   Zn173   1.976   .     S
O166   Zn173   1.947   .     S
O166   C24     1.290   1_655 S
O167   Zn174   1.947   .     S
O168   Zn174   1.897   .     S
O169   Zn173   1.897   .     S
O170   S171    1.503   .     D
C175   O222    1.290   .     A
C175   C196    1.401   .     S
C175   O331    1.276   1_455 S
C176   C178    1.447   .     S
C176   O227    1.299   .     A
C176   O283    1.290   .     S
C177   C183    1.394   .     A
C177   C198    1.447   .     S
C177   C181    1.401   .     A
C178   C182    1.401   .     A
C178   C184    1.394   .     A
C179   C188    1.400   .     A
C179   C181    1.390   .     A
C179   H317    1.084   1_455 S
C180   C182    1.390   .     A
C180   C189    1.400   .     A
C180   H260    1.084   .     S
C181   H323    1.083   1_455 S
C182   H264    1.083   .     S
C183   C185    1.407   .     A
C183   S230    1.789   .     S
C184   C187    1.406   .     A
C184   S229    1.788   .     S
C185   C190    1.416   .     A
C185   C188    1.420   .     A
C186   C197    1.402   .     S
C186   O223    1.290   .     A
C186   O279    1.276   .     S
C187   C191    1.415   .     A
C187   C189    1.420   .     A
C188   C716    1.390   .     S
C189   C717    1.390   1_554 S
C190   C193    1.411   .     A
C190   C713    1.415   .     S
C191   C192    1.411   .     A
C191   C712    1.415   1_554 S
C192   C194    1.386   .     A
C192   H208    1.076   .     S
C193   H209    1.076   .     S
C193   C195    1.386   .     A
C194   H199    1.082   .     S
C194   C710    1.390   1_554 S
C195   H205    1.083   .     S
C195   C711    1.390   .     S
C196   C487    1.339   1_455 S
C196   H377    1.088   .     S
C198   O226    1.299   .     A
C198   O340    1.290   1_455 S
H200   O220    0.990   .     S
H201   C237    1.084   .     S
H202   C296    1.084   1_455 S
H204   C371    1.088   .     S
H206   C298    1.083   1_455 S
H207   C239    1.083   .     S
H210   N213    1.029   .     S
H211   N214    1.029   .     S
H212   O217    0.991   .     S
N213   Zn232   2.021   .     S
N213   N214    1.288   .     D
N214   Zn231   2.021   .     S
O215   Zn231   1.948   .     S
O215   C233    1.276   .     S
O216   S229    1.503   .     D
O217   S229    1.683   .     S
O218   S230    1.504   .     D
O219   S230    1.503   .     D
O220   S230    1.683   .     S
O221   Zn232   1.948   .     S
O221   C302    1.276   1_455 S
O222   Zn232   1.976   .     S
O223   Zn231   1.976   .     S
O224   Zn231   1.947   .     S
O224   C256    1.290   .     S
O225   Zn232   1.947   .     S
O225   C292    1.290   1_455 S
O226   Zn232   1.897   .     S
O227   Zn231   1.897   .     S
O228   S229    1.503   .     D
C233   O280    1.290   .     A
C233   C254    1.401   .     S
C234   C236    1.447   .     S
C234   O285    1.299   .     A
C234   O341    1.290   .     S
C235   C241    1.394   .     A
C235   C256    1.447   .     S
C235   C239    1.401   .     A
C236   C240    1.401   .     A
C236   C242    1.394   .     A
C237   C246    1.400   .     A
C237   C239    1.390   .     A
C238   C240    1.390   .     A
C238   C247    1.400   .     A
C238   H318    1.084   .     S
C240   H322    1.083   .     S
C241   C243    1.407   .     A
C241   S288    1.789   .     S
C242   C245    1.406   .     A
C242   S287    1.788   .     S
C243   C248    1.416   .     A
C243   C246    1.420   .     A
C244   C255    1.402   .     S
C244   O281    1.290   .     A
C244   O337    1.276   .     S
C245   C249    1.415   .     A
C245   C247    1.420   .     A
C246   C774    1.390   .     S
C247   C775    1.390   1_554 S
C248   C251    1.411   .     A
C248   C771    1.415   .     S
C249   C250    1.411   .     A
C249   C770    1.415   1_554 S
C250   C252    1.386   .     A
C250   H266    1.076   .     S
C251   H267    1.076   .     S
C251   C253    1.386   .     A
C252   H257    1.082   .     S
C252   C768    1.390   1_554 S
C253   H263    1.083   .     S
C253   C769    1.390   .     S
C254   C371    1.339   .     S
C254   H435    1.088   .     S
C256   O284    1.299   .     A
H258   O278    0.990   .     S
H259   C295    1.084   .     S
H262   C429    1.088   .     S
H265   C297    1.083   .     S
H268   N271    1.029   .     S
H269   N272    1.029   .     S
H270   O275    0.991   .     S
N271   Zn290   2.021   .     S
N271   N272    1.288   .     D
N272   Zn289   2.021   .     S
O273   Zn289   1.948   .     S
O273   C291    1.276   .     S
O274   S287    1.503   .     D
O275   S287    1.683   .     S
O276   S288    1.504   .     D
O277   S288    1.503   .     D
O278   S288    1.683   .     S
O279   Zn290   1.948   .     S
O280   Zn290   1.976   .     S
O281   Zn289   1.976   .     S
O282   Zn289   1.947   .     S
O282   C314    1.290   .     S
O283   Zn290   1.947   .     S
O284   Zn290   1.897   .     S
O285   Zn289   1.897   .     S
O286   S287    1.503   .     D
C291   O338    1.290   .     A
C291   C312    1.401   .     S
C292   C294    1.447   .     S
C292   O343    1.299   .     A
C292   O225    1.290   1_655 S
C293   C299    1.394   .     A
C293   C314    1.447   .     S
C293   C297    1.401   .     A
C294   C298    1.401   .     A
C294   C300    1.394   .     A
C295   C304    1.400   .     A
C295   C297    1.390   .     A
C296   C298    1.390   .     A
C296   C305    1.400   .     A
C296   H202    1.084   1_655 S
C298   H206    1.083   1_655 S
C299   C301    1.407   .     A
C299   S346    1.789   .     S
C300   C303    1.406   .     A
C300   S345    1.788   .     S
C301   C306    1.416   .     A
C301   C304    1.420   .     A
C302   C313    1.402   .     S
C302   O339    1.290   .     A
C302   O221    1.276   1_655 S
C303   C307    1.415   .     A
C303   C305    1.420   .     A
C304   C832    1.390   .     S
C305   C833    1.390   1_554 S
C306   C309    1.411   .     A
C306   C829    1.415   .     S
C307   C308    1.411   .     A
C307   C828    1.415   1_554 S
C308   C310    1.386   .     A
C308   H324    1.076   .     S
C309   H325    1.076   .     S
C309   C311    1.386   .     A
C310   H315    1.082   .     S
C310   C826    1.390   1_554 S
C311   H321    1.083   .     S
C311   C827    1.390   .     S
C312   C429    1.339   .     S
C312   H493    1.088   .     S
C313   C22     1.339   1_655 S
C314   O342    1.299   .     A
H316   O336    0.990   .     S
H317   C179    1.084   1_655 S
H320   C487    1.088   .     S
H323   C181    1.083   1_655 S
H326   N329    1.029   .     S
H327   N330    1.029   .     S
H328   O333    0.991   .     S
N329   Zn348   2.021   .     S
N329   N330    1.288   .     D
N330   Zn347   2.021   .     S
O331   Zn347   1.948   .     S
O331   C175    1.276   1_655 S
O332   S345    1.503   .     D
O333   S345    1.683   .     S
O334   S346    1.504   .     D
O335   S346    1.503   .     D
O336   S346    1.683   .     S
O337   Zn348   1.948   .     S
O338   Zn348   1.976   .     S
O339   Zn347   1.976   .     S
O340   Zn347   1.947   .     S
O340   C198    1.290   1_655 S
O341   Zn348   1.947   .     S
O342   Zn348   1.897   .     S
O343   Zn347   1.897   .     S
O344   S345    1.503   .     D
C349   O396    1.290   .     A
C349   C370    1.401   .     S
C349   O505    1.276   1_455 S
C350   C352    1.447   .     S
C350   O401    1.299   .     A
C350   O457    1.290   .     S
C351   C357    1.394   .     A
C351   C372    1.447   .     S
C351   C355    1.401   .     A
C352   C356    1.401   .     A
C352   C358    1.394   .     A
C353   C362    1.400   .     A
C353   C355    1.390   .     A
C353   H491    1.084   1_455 S
C354   C356    1.390   .     A
C354   C363    1.400   .     A
C354   H434    1.084   .     S
C355   H497    1.083   1_455 S
C356   H438    1.083   .     S
C357   C359    1.407   .     A
C357   S404    1.789   .     S
C358   C361    1.406   .     A
C358   S403    1.788   .     S
C359   C364    1.416   .     A
C359   C362    1.420   .     A
C360   C371    1.402   .     S
C360   O397    1.290   .     A
C360   O453    1.276   .     S
C361   C365    1.415   .     A
C361   C363    1.420   .     A
C362   C890    1.390   .     S
C363   C891    1.390   1_554 S
C364   C367    1.411   .     A
C364   C887    1.415   .     S
C365   C366    1.411   .     A
C365   C886    1.415   1_554 S
C366   C368    1.386   .     A
C366   H382    1.076   .     S
C367   H383    1.076   .     S
C367   C369    1.386   .     A
C368   H373    1.082   .     S
C368   C884    1.390   1_554 S
C369   H379    1.083   .     S
C369   C885    1.390   .     S
C370   C139    1.339   1_465 S
C370   H29     1.088   1_565 S
C372   O400    1.299   .     A
C372   O514    1.290   1_455 S
H374   O394    0.990   .     S
H375   C411    1.084   .     S
H376   C470    1.084   1_455 S
H378   C23     1.088   1_565 S
H380   C472    1.083   1_455 S
H381   C413    1.083   .     S
H384   N387    1.029   .     S
H385   N388    1.029   .     S
H386   O391    0.991   .     S
N387   Zn406   2.021   .     S
N387   N388    1.288   .     D
N388   Zn405   2.021   .     S
O389   Zn405   1.948   .     S
O389   C407    1.276   .     S
O390   S403    1.503   .     D
O391   S403    1.683   .     S
O392   S404    1.504   .     D
O393   S404    1.503   .     D
O394   S404    1.683   .     S
O395   Zn406   1.948   .     S
O395   C476    1.276   1_455 S
O396   Zn406   1.976   .     S
O397   Zn405   1.976   .     S
O398   Zn405   1.947   .     S
O398   C430    1.290   .     S
O399   Zn406   1.947   .     S
O399   C466    1.290   1_455 S
O400   Zn406   1.897   .     S
O401   Zn405   1.897   .     S
O402   S403    1.503   .     D
C407   O454    1.290   .     A
C407   C428    1.401   .     S
C408   C410    1.447   .     S
C408   O459    1.299   .     A
C408   O515    1.290   .     S
C409   C415    1.394   .     A
C409   C430    1.447   .     S
C409   C413    1.401   .     A
C410   C414    1.401   .     A
C410   C416    1.394   .     A
C411   C420    1.400   .     A
C411   C413    1.390   .     A
C412   C414    1.390   .     A
C412   C421    1.400   .     A
C412   H492    1.084   .     S
C414   H496    1.083   .     S
C415   C417    1.407   .     A
C415   S462    1.789   .     S
C416   C419    1.406   .     A
C416   S461    1.788   .     S
C417   C422    1.416   .     A
C417   C420    1.420   .     A
C418   C429    1.402   .     S
C418   O455    1.290   .     A
C418   O511    1.276   .     S
C419   C423    1.415   .     A
C419   C421    1.420   .     A
C420   C948    1.390   .     S
C421   C949    1.390   1_554 S
C422   C425    1.411   .     A
C422   C945    1.415   .     S
C423   C424    1.411   .     A
C423   C944    1.415   1_554 S
C424   C426    1.386   .     A
C424   H440    1.076   .     S
C425   H441    1.076   .     S
C425   C427    1.386   .     A
C426   H431    1.082   .     S
C426   C942    1.390   1_554 S
C427   H437    1.083   .     S
C427   C943    1.390   .     S
C428   C23     1.339   1_565 S
C428   H87     1.088   1_565 S
C430   O458    1.299   .     A
H432   O452    0.990   .     S
H433   C469    1.084   .     S
H436   C81     1.088   1_565 S
H439   C471    1.083   .     S
H442   N445    1.029   .     S
H443   N446    1.029   .     S
H444   O449    0.991   .     S
N445   Zn464   2.021   .     S
N445   N446    1.288   .     D
N446   Zn463   2.021   .     S
O447   Zn463   1.948   .     S
O447   C465    1.276   .     S
O448   S461    1.503   .     D
O449   S461    1.683   .     S
O450   S462    1.504   .     D
O451   S462    1.503   .     D
O452   S462    1.683   .     S
O453   Zn464   1.948   .     S
O454   Zn464   1.976   .     S
O455   Zn463   1.976   .     S
O456   Zn463   1.947   .     S
O456   C488    1.290   .     S
O457   Zn464   1.947   .     S
O458   Zn464   1.897   .     S
O459   Zn463   1.897   .     S
O460   S461    1.503   .     D
C465   O512    1.290   .     A
C465   C486    1.401   .     S
C466   C468    1.447   .     S
C466   O517    1.299   .     A
C466   O399    1.290   1_655 S
C467   C473    1.394   .     A
C467   C488    1.447   .     S
C467   C471    1.401   .     A
C468   C472    1.401   .     A
C468   C474    1.394   .     A
C469   C478    1.400   .     A
C469   C471    1.390   .     A
C470   C472    1.390   .     A
C470   C479    1.400   .     A
C470   H376    1.084   1_655 S
C472   H380    1.083   1_655 S
C473   C475    1.407   .     A
C473   S520    1.789   .     S
C474   C477    1.406   .     A
C474   S519    1.788   .     S
C475   C480    1.416   .     A
C475   C478    1.420   .     A
C476   C487    1.402   .     S
C476   O513    1.290   .     A
C476   O395    1.276   1_655 S
C477   C481    1.415   .     A
C477   C479    1.420   .     A
C478   C1006   1.390   .     S
C479   C1007   1.390   1_554 S
C480   C483    1.411   .     A
C480   C1003   1.415   .     S
C481   C482    1.411   .     A
C481   C1002   1.415   1_554 S
C482   C484    1.386   .     A
C482   H498    1.076   .     S
C483   H499    1.076   .     S
C483   C485    1.386   .     A
C484   H489    1.082   .     S
C484   C1000   1.390   1_554 S
C485   H495    1.083   .     S
C485   C1001   1.390   .     S
C486   C81     1.339   1_565 S
C486   H145    1.088   1_565 S
C487   C196    1.339   1_655 S
C488   O516    1.299   .     A
H490   O510    0.990   .     S
H491   C353    1.084   1_655 S
H494   C139    1.088   1_565 S
H497   C355    1.083   1_655 S
H500   N503    1.029   .     S
H501   N504    1.029   .     S
H502   O507    0.991   .     S
N503   Zn522   2.021   .     S
N503   N504    1.288   .     D
N504   Zn521   2.021   .     S
O505   Zn521   1.948   .     S
O505   C349    1.276   1_655 S
O506   S519    1.503   .     D
O507   S519    1.683   .     S
O508   S520    1.504   .     D
O509   S520    1.503   .     D
O510   S520    1.683   .     S
O511   Zn522   1.948   .     S
O512   Zn522   1.976   .     S
O513   Zn521   1.976   .     S
O514   Zn521   1.947   .     S
O514   C372    1.290   1_655 S
O515   Zn522   1.947   .     S
O516   Zn522   1.897   .     S
O517   Zn521   1.897   .     S
O518   S519    1.503   .     D
C523   O570    1.290   .     A
C523   C544    1.401   .     S
C523   O679    1.276   1_455 S
C524   C526    1.447   .     S
C524   O575    1.299   .     A
C524   O631    1.290   .     S
C525   C531    1.394   .     A
C525   C546    1.447   .     S
C525   C529    1.401   .     A
C526   C530    1.401   .     A
C526   C532    1.394   .     A
C527   C536    1.400   .     A
C527   C529    1.390   .     A
C527   H665    1.084   1_455 S
C528   C530    1.390   .     A
C528   C537    1.400   .     A
C528   H608    1.084   .     S
C529   H671    1.083   1_455 S
C530   H612    1.083   .     S
C531   C533    1.407   .     A
C531   S578    1.789   .     S
C532   C535    1.406   .     A
C532   S577    1.788   .     S
C533   C538    1.416   .     A
C533   C536    1.420   .     A
C534   C545    1.402   .     S
C534   O571    1.290   .     A
C534   O627    1.276   .     S
C535   C539    1.415   .     A
C535   C537    1.420   .     A
C536   C20     1.390   1_556 S
C538   C541    1.411   .     A
C538   C17     1.415   1_556 S
C539   C540    1.411   .     A
C540   C542    1.386   .     A
C540   H556    1.076   .     S
C541   H557    1.076   .     S
C541   C543    1.386   .     A
C542   H547    1.082   .     S
C543   H553    1.083   .     S
C543   C15     1.390   1_556 S
C544   C835    1.339   1_455 S
C544   H725    1.088   .     S
C545   C950    1.339   1_545 S
C545   H900    1.088   1_545 S
C546   O574    1.299   .     A
C546   O688    1.290   1_455 S
H548   O568    0.990   .     S
H549   C585    1.084   .     S
H550   C644    1.084   1_455 S
H551   C892    1.088   1_545 S
H552   C719    1.088   .     S
H554   C646    1.083   1_455 S
H555   C587    1.083   .     S
H558   N561    1.029   .     S
H559   N562    1.029   .     S
H560   O565    0.991   .     S
N561   Zn580   2.021   .     S
N561   N562    1.288   .     D
N562   Zn579   2.021   .     S
O563   Zn579   1.948   .     S
O563   C581    1.276   .     S
O564   S577    1.503   .     D
O565   S577    1.683   .     S
O566   S578    1.504   .     D
O567   S578    1.503   .     D
O568   S578    1.683   .     S
O569   Zn580   1.948   .     S
O569   C650    1.276   1_455 S
O570   Zn580   1.976   .     S
O571   Zn579   1.976   .     S
O572   Zn579   1.947   .     S
O572   C604    1.290   .     S
O573   Zn580   1.947   .     S
O573   C640    1.290   1_455 S
O574   Zn580   1.897   .     S
O575   Zn579   1.897   .     S
O576   S577    1.503   .     D
C581   O628    1.290   .     A
C581   C602    1.401   .     S
C582   C584    1.447   .     S
C582   O633    1.299   .     A
C582   O689    1.290   .     S
C583   C589    1.394   .     A
C583   C604    1.447   .     S
C583   C587    1.401   .     A
C584   C588    1.401   .     A
C584   C590    1.394   .     A
C585   C594    1.400   .     A
C585   C587    1.390   .     A
C586   C588    1.390   .     A
C586   C595    1.400   .     A
C586   H666    1.084   .     S
C588   H670    1.083   .     S
C589   C591    1.407   .     A
C589   S636    1.789   .     S
C590   C593    1.406   .     A
C590   S635    1.788   .     S
C591   C596    1.416   .     A
C591   C594    1.420   .     A
C592   C603    1.402   .     S
C592   O629    1.290   .     A
C592   O685    1.276   .     S
C593   C597    1.415   .     A
C593   C595    1.420   .     A
C594   C78     1.390   1_556 S
C596   C599    1.411   .     A
C596   C75     1.415   1_556 S
C597   C598    1.411   .     A
C598   C600    1.386   .     A
C598   H614    1.076   .     S
C599   H615    1.076   .     S
C599   C601    1.386   .     A
C600   H605    1.082   .     S
C601   H611    1.083   .     S
C601   C73     1.390   1_556 S
C602   C719    1.339   .     S
C602   H783    1.088   .     S
C603   C1008   1.339   1_545 S
C603   H958    1.088   1_545 S
C604   O632    1.299   .     A
H606   O626    0.990   .     S
H607   C643    1.084   .     S
H609   C950    1.088   1_545 S
H610   C777    1.088   .     S
H613   C645    1.083   .     S
H616   N619    1.029   .     S
H617   N620    1.029   .     S
H618   O623    0.991   .     S
N619   Zn638   2.021   .     S
N619   N620    1.288   .     D
N620   Zn637   2.021   .     S
O621   Zn637   1.948   .     S
O621   C639    1.276   .     S
O622   S635    1.503   .     D
O623   S635    1.683   .     S
O624   S636    1.504   .     D
O625   S636    1.503   .     D
O626   S636    1.683   .     S
O627   Zn638   1.948   .     S
O628   Zn638   1.976   .     S
O629   Zn637   1.976   .     S
O630   Zn637   1.947   .     S
O630   C662    1.290   .     S
O631   Zn638   1.947   .     S
O632   Zn638   1.897   .     S
O633   Zn637   1.897   .     S
O634   S635    1.503   .     D
C639   O686    1.290   .     A
C639   C660    1.401   .     S
C640   C642    1.447   .     S
C640   O691    1.299   .     A
C640   O573    1.290   1_655 S
C641   C647    1.394   .     A
C641   C662    1.447   .     S
C641   C645    1.401   .     A
C642   C646    1.401   .     A
C642   C648    1.394   .     A
C643   C652    1.400   .     A
C643   C645    1.390   .     A
C644   C646    1.390   .     A
C644   C653    1.400   .     A
C644   H550    1.084   1_655 S
C646   H554    1.083   1_655 S
C647   C649    1.407   .     A
C647   S694    1.789   .     S
C648   C651    1.406   .     A
C648   S693    1.788   .     S
C649   C654    1.416   .     A
C649   C652    1.420   .     A
C650   C661    1.402   .     S
C650   O687    1.290   .     A
C650   O569    1.276   1_655 S
C651   C655    1.415   .     A
C651   C653    1.420   .     A
C652   C136    1.390   1_556 S
C654   C657    1.411   .     A
C654   C133    1.415   1_556 S
C655   C656    1.411   .     A
C656   C658    1.386   .     A
C656   H672    1.076   .     S
C657   H673    1.076   .     S
C657   C659    1.386   .     A
C658   H663    1.082   .     S
C659   H669    1.083   .     S
C659   C131    1.390   1_556 S
C660   C777    1.339   .     S
C660   H841    1.088   .     S
C661   C892    1.339   1_645 S
C661   H1016   1.088   1_545 S
C662   O690    1.299   .     A
H664   O684    0.990   .     S
H665   C527    1.084   1_655 S
H667   C1008   1.088   1_545 S
H668   C835    1.088   .     S
H671   C529    1.083   1_655 S
H674   N677    1.029   .     S
H675   N678    1.029   .     S
H676   O681    0.991   .     S
N677   Zn696   2.021   .     S
N677   N678    1.288   .     D
N678   Zn695   2.021   .     S
O679   Zn695   1.948   .     S
O679   C523    1.276   1_655 S
O680   S693    1.503   .     D
O681   S693    1.683   .     S
O682   S694    1.504   .     D
O683   S694    1.503   .     D
O684   S694    1.683   .     S
O685   Zn696   1.948   .     S
O686   Zn696   1.976   .     S
O687   Zn695   1.976   .     S
O688   Zn695   1.947   .     S
O688   C546    1.290   1_655 S
O689   Zn696   1.947   .     S
O690   Zn696   1.897   .     S
O691   Zn695   1.897   .     S
O692   S693    1.503   .     D
C697   O744    1.290   .     A
C697   C718    1.401   .     S
C697   O853    1.276   1_455 S
C698   C700    1.447   .     S
C698   O749    1.299   .     A
C698   O805    1.290   .     S
C699   C705    1.394   .     A
C699   C720    1.447   .     S
C699   C703    1.401   .     A
C700   C704    1.401   .     A
C700   C706    1.394   .     A
C701   C710    1.400   .     A
C701   C703    1.390   .     A
C701   H839    1.084   1_455 S
C702   C704    1.390   .     A
C702   C711    1.400   .     A
C702   H782    1.084   .     S
C703   H845    1.083   1_455 S
C704   H786    1.083   .     S
C705   C707    1.407   .     A
C705   S752    1.789   .     S
C706   C709    1.406   .     A
C706   S751    1.788   .     S
C707   C712    1.416   .     A
C707   C710    1.420   .     A
C708   C719    1.402   .     S
C708   O745    1.290   .     A
C708   O801    1.276   .     S
C709   C713    1.415   .     A
C709   C711    1.420   .     A
C710   C194    1.390   1_556 S
C712   C715    1.411   .     A
C712   C191    1.415   1_556 S
C713   C714    1.411   .     A
C714   C716    1.386   .     A
C714   H730    1.076   .     S
C715   H731    1.076   .     S
C715   C717    1.386   .     A
C716   H721    1.082   .     S
C717   H727    1.083   .     S
C717   C189    1.390   1_556 S
C718   C1009   1.339   1_455 S
C718   H899    1.088   .     S
C720   O748    1.299   .     A
C720   O862    1.290   1_455 S
H722   O742    0.990   .     S
H723   C759    1.084   .     S
H724   C818    1.084   1_455 S
H726   C893    1.088   .     S
H728   C820    1.083   1_455 S
H729   C761    1.083   .     S
H732   N735    1.029   .     S
H733   N736    1.029   .     S
H734   O739    0.991   .     S
N735   Zn754   2.021   .     S
N735   N736    1.288   .     D
N736   Zn753   2.021   .     S
O737   Zn753   1.948   .     S
O737   C755    1.276   .     S
O738   S751    1.503   .     D
O739   S751    1.683   .     S
O740   S752    1.504   .     D
O741   S752    1.503   .     D
O742   S752    1.683   .     S
O743   Zn754   1.948   .     S
O743   C824    1.276   1_455 S
O744   Zn754   1.976   .     S
O745   Zn753   1.976   .     S
O746   Zn753   1.947   .     S
O746   C778    1.290   .     S
O747   Zn754   1.947   .     S
O747   C814    1.290   1_455 S
O748   Zn754   1.897   .     S
O749   Zn753   1.897   .     S
O750   S751    1.503   .     D
C755   O802    1.290   .     A
C755   C776    1.401   .     S
C756   C758    1.447   .     S
C756   O807    1.299   .     A
C756   O863    1.290   .     S
C757   C763    1.394   .     A
C757   C778    1.447   .     S
C757   C761    1.401   .     A
C758   C762    1.401   .     A
C758   C764    1.394   .     A
C759   C768    1.400   .     A
C759   C761    1.390   .     A
C760   C762    1.390   .     A
C760   C769    1.400   .     A
C760   H840    1.084   .     S
C762   H844    1.083   .     S
C763   C765    1.407   .     A
C763   S810    1.789   .     S
C764   C767    1.406   .     A
C764   S809    1.788   .     S
C765   C770    1.416   .     A
C765   C768    1.420   .     A
C766   C777    1.402   .     S
C766   O803    1.290   .     A
C766   O859    1.276   .     S
C767   C771    1.415   .     A
C767   C769    1.420   .     A
C768   C252    1.390   1_556 S
C770   C773    1.411   .     A
C770   C249    1.415   1_556 S
C771   C772    1.411   .     A
C772   C774    1.386   .     A
C772   H788    1.076   .     S
C773   H789    1.076   .     S
C773   C775    1.386   .     A
C774   H779    1.082   .     S
C775   H785    1.083   .     S
C775   C247    1.390   1_556 S
C776   C893    1.339   .     S
C776   H957    1.088   .     S
C778   O806    1.299   .     A
H780   O800    0.990   .     S
H781   C817    1.084   .     S
H784   C951    1.088   .     S
H787   C819    1.083   .     S
H790   N793    1.029   .     S
H791   N794    1.029   .     S
H792   O797    0.991   .     S
N793   Zn812   2.021   .     S
N793   N794    1.288   .     D
N794   Zn811   2.021   .     S
O795   Zn811   1.948   .     S
O795   C813    1.276   .     S
O796   S809    1.503   .     D
O797   S809    1.683   .     S
O798   S810    1.504   .     D
O799   S810    1.503   .     D
O800   S810    1.683   .     S
O801   Zn812   1.948   .     S
O802   Zn812   1.976   .     S
O803   Zn811   1.976   .     S
O804   Zn811   1.947   .     S
O804   C836    1.290   .     S
O805   Zn812   1.947   .     S
O806   Zn812   1.897   .     S
O807   Zn811   1.897   .     S
O808   S809    1.503   .     D
C813   O860    1.290   .     A
C813   C834    1.401   .     S
C814   C816    1.447   .     S
C814   O865    1.299   .     A
C814   O747    1.290   1_655 S
C815   C821    1.394   .     A
C815   C836    1.447   .     S
C815   C819    1.401   .     A
C816   C820    1.401   .     A
C816   C822    1.394   .     A
C817   C826    1.400   .     A
C817   C819    1.390   .     A
C818   C820    1.390   .     A
C818   C827    1.400   .     A
C818   H724    1.084   1_655 S
C820   H728    1.083   1_655 S
C821   C823    1.407   .     A
C821   S868    1.789   .     S
C822   C825    1.406   .     A
C822   S867    1.788   .     S
C823   C828    1.416   .     A
C823   C826    1.420   .     A
C824   C835    1.402   .     S
C824   O861    1.290   .     A
C824   O743    1.276   1_655 S
C825   C829    1.415   .     A
C825   C827    1.420   .     A
C826   C310    1.390   1_556 S
C828   C831    1.411   .     A
C828   C307    1.415   1_556 S
C829   C830    1.411   .     A
C830   C832    1.386   .     A
C830   H846    1.076   .     S
C831   H847    1.076   .     S
C831   C833    1.386   .     A
C832   H837    1.082   .     S
C833   H843    1.083   .     S
C833   C305    1.390   1_556 S
C834   C951    1.339   .     S
C834   H1015   1.088   .     S
C835   C544    1.339   1_655 S
C836   O864    1.299   .     A
H838   O858    0.990   .     S
H839   C701    1.084   1_655 S
H842   C1009   1.088   .     S
H845   C703    1.083   1_655 S
H848   N851    1.029   .     S
H849   N852    1.029   .     S
H850   O855    0.991   .     S
N851   Zn870   2.021   .     S
N851   N852    1.288   .     D
N852   Zn869   2.021   .     S
O853   Zn869   1.948   .     S
O853   C697    1.276   1_655 S
O854   S867    1.503   .     D
O855   S867    1.683   .     S
O856   S868    1.504   .     D
O857   S868    1.503   .     D
O858   S868    1.683   .     S
O859   Zn870   1.948   .     S
O860   Zn870   1.976   .     S
O861   Zn869   1.976   .     S
O862   Zn869   1.947   .     S
O862   C720    1.290   1_655 S
O863   Zn870   1.947   .     S
O864   Zn870   1.897   .     S
O865   Zn869   1.897   .     S
O866   S867    1.503   .     D
C871   O918    1.290   .     A
C871   C892    1.401   .     S
C871   O1027   1.276   1_455 S
C872   C874    1.447   .     S
C872   O923    1.299   .     A
C872   O979    1.290   .     S
C873   C879    1.394   .     A
C873   C894    1.447   .     S
C873   C877    1.401   .     A
C874   C878    1.401   .     A
C874   C880    1.394   .     A
C875   C884    1.400   .     A
C875   C877    1.390   .     A
C875   H1013   1.084   1_455 S
C876   C878    1.390   .     A
C876   C885    1.400   .     A
C876   H956    1.084   .     S
C877   H1019   1.083   1_455 S
C878   H960    1.083   .     S
C879   C881    1.407   .     A
C879   S926    1.789   .     S
C880   C883    1.406   .     A
C880   S925    1.788   .     S
C881   C886    1.416   .     A
C881   C884    1.420   .     A
C882   C893    1.402   .     S
C882   O919    1.290   .     A
C882   O975    1.276   .     S
C883   C887    1.415   .     A
C883   C885    1.420   .     A
C884   C368    1.390   1_556 S
C886   C889    1.411   .     A
C886   C365    1.415   1_556 S
C887   C888    1.411   .     A
C888   C890    1.386   .     A
C888   H904    1.076   .     S
C889   H905    1.076   .     S
C889   C891    1.386   .     A
C890   H895    1.082   .     S
C891   H901    1.083   .     S
C891   C363    1.390   1_556 S
C892   C661    1.339   1_465 S
C892   H551    1.088   1_565 S
C894   O922    1.299   .     A
C894   O1036   1.290   1_455 S
H896   O916    0.990   .     S
H897   C933    1.084   .     S
H898   C992    1.084   1_455 S
H900   C545    1.088   1_565 S
H902   C994    1.083   1_455 S
H903   C935    1.083   .     S
H906   N909    1.029   .     S
H907   N910    1.029   .     S
H908   O913    0.991   .     S
N909   Zn928   2.021   .     S
N909   N910    1.288   .     D
N910   Zn927   2.021   .     S
O911   Zn927   1.948   .     S
O911   C929    1.276   .     S
O912   S925    1.503   .     D
O913   S925    1.683   .     S
O914   S926    1.504   .     D
O915   S926    1.503   .     D
O916   S926    1.683   .     S
O917   Zn928   1.948   .     S
O917   C998    1.276   1_455 S
O918   Zn928   1.976   .     S
O919   Zn927   1.976   .     S
O920   Zn927   1.947   .     S
O920   C952    1.290   .     S
O921   Zn928   1.947   .     S
O921   C988    1.290   1_455 S
O922   Zn928   1.897   .     S
O923   Zn927   1.897   .     S
O924   S925    1.503   .     D
C929   O976    1.290   .     A
C929   C950    1.401   .     S
C930   C932    1.447   .     S
C930   O981    1.299   .     A
C930   O1037   1.290   .     S
C931   C937    1.394   .     A
C931   C952    1.447   .     S
C931   C935    1.401   .     A
C932   C936    1.401   .     A
C932   C938    1.394   .     A
C933   C942    1.400   .     A
C933   C935    1.390   .     A
C934   C936    1.390   .     A
C934   C943    1.400   .     A
C934   H1014   1.084   .     S
C936   H1018   1.083   .     S
C937   C939    1.407   .     A
C937   S984    1.789   .     S
C938   C941    1.406   .     A
C938   S983    1.788   .     S
C939   C944    1.416   .     A
C939   C942    1.420   .     A
C940   C951    1.402   .     S
C940   O977    1.290   .     A
C940   O1033   1.276   .     S
C941   C945    1.415   .     A
C941   C943    1.420   .     A
C942   C426    1.390   1_556 S
C944   C947    1.411   .     A
C944   C423    1.415   1_556 S
C945   C946    1.411   .     A
C946   C948    1.386   .     A
C946   H962    1.076   .     S
C947   H963    1.076   .     S
C947   C949    1.386   .     A
C948   H953    1.082   .     S
C949   H959    1.083   .     S
C949   C421    1.390   1_556 S
C950   C545    1.339   1_565 S
C950   H609    1.088   1_565 S
C952   O980    1.299   .     A
H954   O974    0.990   .     S
H955   C991    1.084   .     S
H958   C603    1.088   1_565 S
H961   C993    1.083   .     S
H964   N967    1.029   .     S
H965   N968    1.029   .     S
H966   O971    0.991   .     S
N967   Zn986   2.021   .     S
N967   N968    1.288   .     D
N968   Zn985   2.021   .     S
O969   Zn985   1.948   .     S
O969   C987    1.276   .     S
O970   S983    1.503   .     D
O971   S983    1.683   .     S
O972   S984    1.504   .     D
O973   S984    1.503   .     D
O974   S984    1.683   .     S
O975   Zn986   1.948   .     S
O976   Zn986   1.976   .     S
O977   Zn985   1.976   .     S
O978   Zn985   1.947   .     S
O978   C1010   1.290   .     S
O979   Zn986   1.947   .     S
O980   Zn986   1.897   .     S
O981   Zn985   1.897   .     S
O982   S983    1.503   .     D
C987   O1034   1.290   .     A
C987   C1008   1.401   .     S
C988   C990    1.447   .     S
C988   O1039   1.299   .     A
C988   O921    1.290   1_655 S
C989   C995    1.394   .     A
C989   C1010   1.447   .     S
C989   C993    1.401   .     A
C990   C994    1.401   .     A
C990   C996    1.394   .     A
C991   C1000   1.400   .     A
C991   C993    1.390   .     A
C992   C994    1.390   .     A
C992   C1001   1.400   .     A
C992   H898    1.084   1_655 S
C994   H902    1.083   1_655 S
C995   C997    1.407   .     A
C995   S1042   1.789   .     S
C996   C999    1.406   .     A
C996   S1041   1.788   .     S
C997   C1002   1.416   .     A
C997   C1000   1.420   .     A
C998   C1009   1.402   .     S
C998   O1035   1.290   .     A
C998   O917    1.276   1_655 S
C999   C1003   1.415   .     A
C999   C1001   1.420   .     A
C1000  C484    1.390   1_556 S
C1002  C1005   1.411   .     A
C1002  C481    1.415   1_556 S
C1003  C1004   1.411   .     A
C1004  C1006   1.386   .     A
C1004  H1020   1.076   .     S
C1005  H1021   1.076   .     S
C1005  C1007   1.386   .     A
C1006  H1011   1.082   .     S
C1007  H1017   1.083   .     S
C1007  C479    1.390   1_556 S
C1008  C603    1.339   1_565 S
C1008  H667    1.088   1_565 S
C1009  C718    1.339   1_655 S
C1010  O1038   1.299   .     A
H1012  O1032   0.990   .     S
H1013  C875    1.084   1_655 S
H1016  C661    1.088   1_565 S
H1019  C877    1.083   1_655 S
H1022  N1025   1.029   .     S
H1023  N1026   1.029   .     S
H1024  O1029   0.991   .     S
N1025  Zn1044  2.021   .     S
N1025  N1026   1.288   .     D
N1026  Zn1043  2.021   .     S
O1027  Zn1043  1.948   .     S
O1027  C871    1.276   1_655 S
O1028  S1041   1.503   .     D
O1029  S1041   1.683   .     S
O1030  S1042   1.504   .     D
O1031  S1042   1.503   .     D
O1032  S1042   1.683   .     S
O1033  Zn1044  1.948   .     S
O1034  Zn1044  1.976   .     S
O1035  Zn1043  1.976   .     S
O1036  Zn1043  1.947   .     S
O1036  C894    1.290   1_655 S
O1037  Zn1044  1.947   .     S
O1038  Zn1044  1.897   .     S
O1039  Zn1043  1.897   .     S
O1040  S1041   1.503   .     D
