data_str_m3_o1_o18_pcu_sym.237
_audit_creation_date              2020-01-03
_audit_creation_method            'Materials Studio'
_symmetry_space_group_name_H-M    'P1'
_symmetry_Int_Tables_number       1
_symmetry_cell_setting            triclinic
loop_
_symmetry_equiv_pos_as_xyz
  x,y,z
_cell_length_a                    29.5317
_cell_length_b                    31.9445
_cell_length_c                    30.5991
_cell_angle_alpha                 89.9963
_cell_angle_beta                  68.5603
_cell_angle_gamma                 89.6970
loop_
_atom_site_label
_atom_site_type_symbol
_atom_site_fract_x
_atom_site_fract_y
_atom_site_fract_z
_atom_site_U_iso_or_equiv
_atom_site_adp_type
_atom_site_occupancy
C1     C     0.16703   0.24659   0.24870   0.00000  Uiso   1.00
C2     C     0.16632   0.08675   0.25125   0.00000  Uiso   1.00
C3     C     0.09744   0.14483   0.05953   0.00000  Uiso   1.00
C4     C     0.20079   0.09902   0.46311   0.00000  Uiso   1.00
C5     C     0.06479   0.15241   0.03700   0.00000  Uiso   1.00
C6     C     0.23417   0.09289   0.48513   0.00000  Uiso   1.00
C7     C     0.20675   0.31279   0.21606   0.00000  Uiso   1.00
C8     C     0.12662   0.02057   0.28388   0.00000  Uiso   1.00
C9     C     0.20625   0.02233   0.21953   0.00000  Uiso   1.00
C10    C     0.12710   0.31104   0.28036   0.00000  Uiso   1.00
C11    C     0.16638   0.04263   0.25244   0.00000  Uiso   1.00
C12    C     0.16698   0.29073   0.24748   0.00000  Uiso   1.00
C13    C     0.31909   0.13754   0.22474   0.00000  Uiso   1.00
C14    C     0.01422   0.19574   0.27534   0.00000  Uiso   1.00
C15    C     0.03364   0.13745   0.22491   0.00000  Uiso   1.00
C16    C     0.29959   0.19571   0.27536   0.00000  Uiso   1.00
C17    C     0.13646   0.16613   0.33842   0.00000  Uiso   1.00
C18    C     0.19684   0.16582   0.16175   0.00000  Uiso   1.00
C19    C     0.11744   0.16168   0.38982   0.00000  Uiso   1.00
C20    C     0.21410   0.15501   0.11193   0.00000  Uiso   1.00
C21    C     0.04941   0.16498   0.46488   0.00000  Uiso   1.00
C22    C     0.26265   0.10849   0.04903   0.00000  Uiso   1.00
C23    C     0.06770   0.16753   0.41565   0.00000  Uiso   1.00
C24    C     0.25431   0.12839   0.09232   0.00000  Uiso   1.00
C25    C     0.14907   0.15126   0.41315   0.00000  Uiso   1.00
C26    C     0.18322   0.16334   0.08767   0.00000  Uiso   1.00
C27    C     0.12973   0.14156   0.46142   0.00000  Uiso   1.00
C28    C     0.18529   0.13729   0.04982   0.00000  Uiso   1.00
C29    C     0.08086   0.15283   0.48789   0.00000  Uiso   1.00
C30    C     0.22784   0.11291   0.02772   0.00000  Uiso   1.00
C31    C     0.15930   0.12515   0.48484   0.00000  Uiso   1.00
C32    C     0.14718   0.13608   0.03218   0.00000  Uiso   1.00
H33    H     0.02722   0.15940   0.05823   0.00000  Uiso   1.00
H34    H     0.26550   0.07293   0.46821   0.00000  Uiso   1.00
N35    N     0.04759   0.16668   0.25001   0.00000  Uiso   1.00
N36    N     0.28574   0.16666   0.24999   0.00000  Uiso   1.00
O37    O     0.12846   0.22775   0.25000   0.00000  Uiso   1.00
O38    O     0.20488   0.10558   0.24999   0.00000  Uiso   1.00
O39    O     0.20490   0.22774   0.25000   0.00000  Uiso   1.00
O40    O     0.12843   0.10559   0.25000   0.00000  Uiso   1.00
O41    O     0.10661   0.16667   0.31612   0.00000  Uiso   1.00
O42    O     0.22672   0.16666   0.18387   0.00000  Uiso   1.00
O43    O     0.18305   0.16666   0.31612   0.00000  Uiso   1.00
O44    O     0.15028   0.16667   0.18388   0.00000  Uiso   1.00
Zn45   Zn    0.11562   0.16667   0.25000   0.00000  Uiso   1.00
Zn46   Zn    0.21771   0.16666   0.25000   0.00000  Uiso   1.00
O47    O     0.15179   0.19718   0.10183   0.00000  Uiso   1.00
H48    H     0.14530   0.20785   0.07427   0.00000  Uiso   1.00
O49    O     0.19874   0.15356   0.38900   0.00000  Uiso   1.00
H50    H     0.21399   0.16484   0.41047   0.00000  Uiso   1.00
H51    H     0.27813   0.12198   0.11135   0.00000  Uiso   1.00
H52    H     0.04344   0.17604   0.39771   0.00000  Uiso   1.00
O53    O     0.00145   0.17479   0.49093   0.00000  Uiso   1.00
H54    H     0.31781   0.18227   0.46938   0.00000  Uiso   1.00
O55    O     0.30301   0.08324   0.02831   0.00000  Uiso   1.00
H56    H     0.32336   0.08354   0.04789   0.00000  Uiso   1.00
O57    O     0.07866   0.14340   0.10792   0.00000  Uiso   1.00
H58    H     0.10005   0.12533   0.11843   0.00000  Uiso   1.00
O59    O     0.20836   0.07686   0.42229   0.00000  Uiso   1.00
H60    H     0.17683   0.07399   0.41804   0.00000  Uiso   1.00
O61    O     0.24569   0.29414   0.18122   0.00000  Uiso   1.00
H62    H     0.23642   0.26579   0.17462   0.00000  Uiso   1.00
O63    O     0.08774   0.03923   0.31877   0.00000  Uiso   1.00
H64    H     0.09708   0.06754   0.32544   0.00000  Uiso   1.00
H65    H     0.23619   0.04000   0.19523   0.00000  Uiso   1.00
H66    H     0.09713   0.29338   0.30464   0.00000  Uiso   1.00
H67    H     0.30875   0.11428   0.20448   0.00000  Uiso   1.00
H68    H     0.02456   0.21897   0.29562   0.00000  Uiso   1.00
H69    H     0.05948   0.11399   0.20500   0.00000  Uiso   1.00
H70    H     0.27360   0.21890   0.29569   0.00000  Uiso   1.00
C71    C     0.50036   0.24659   0.24870   0.00000  Uiso   1.00
C72    C     0.49965   0.08675   0.25125   0.00000  Uiso   1.00
C73    C     0.43077   0.14483   0.05953   0.00000  Uiso   1.00
C74    C     0.53412   0.09902   0.46311   0.00000  Uiso   1.00
C75    C     0.39813   0.15241   0.03700   0.00000  Uiso   1.00
C76    C     0.56751   0.09289   0.48513   0.00000  Uiso   1.00
C77    C     0.54009   0.31279   0.21606   0.00000  Uiso   1.00
C78    C     0.45996   0.02057   0.28388   0.00000  Uiso   1.00
C79    C     0.53958   0.02233   0.21953   0.00000  Uiso   1.00
C80    C     0.46043   0.31104   0.28036   0.00000  Uiso   1.00
C81    C     0.49972   0.04263   0.25244   0.00000  Uiso   1.00
C82    C     0.50031   0.29073   0.24748   0.00000  Uiso   1.00
C83    C     0.65242   0.13754   0.22474   0.00000  Uiso   1.00
C84    C     0.34755   0.19574   0.27534   0.00000  Uiso   1.00
C85    C     0.36698   0.13745   0.22491   0.00000  Uiso   1.00
C86    C     0.63292   0.19571   0.27536   0.00000  Uiso   1.00
C87    C     0.46979   0.16613   0.33842   0.00000  Uiso   1.00
C88    C     0.53017   0.16582   0.16175   0.00000  Uiso   1.00
C89    C     0.45078   0.16168   0.38982   0.00000  Uiso   1.00
C90    C     0.54743   0.15501   0.11193   0.00000  Uiso   1.00
C91    C     0.38274   0.16498   0.46488   0.00000  Uiso   1.00
C92    C     0.59598   0.10849   0.04903   0.00000  Uiso   1.00
C93    C     0.40103   0.16753   0.41565   0.00000  Uiso   1.00
C94    C     0.58764   0.12839   0.09232   0.00000  Uiso   1.00
C95    C     0.48241   0.15126   0.41315   0.00000  Uiso   1.00
C96    C     0.51655   0.16334   0.08767   0.00000  Uiso   1.00
C97    C     0.46306   0.14156   0.46142   0.00000  Uiso   1.00
C98    C     0.51863   0.13729   0.04982   0.00000  Uiso   1.00
C99    C     0.41420   0.15283   0.48789   0.00000  Uiso   1.00
C100   C     0.56117   0.11291   0.02772   0.00000  Uiso   1.00
C101   C     0.49264   0.12515   0.48484   0.00000  Uiso   1.00
C102   C     0.48052   0.13608   0.03218   0.00000  Uiso   1.00
H103   H     0.36055   0.15940   0.05823   0.00000  Uiso   1.00
H104   H     0.59883   0.07293   0.46821   0.00000  Uiso   1.00
N105   N     0.38093   0.16668   0.25001   0.00000  Uiso   1.00
N106   N     0.61907   0.16666   0.24999   0.00000  Uiso   1.00
O107   O     0.46179   0.22775   0.25000   0.00000  Uiso   1.00
O108   O     0.53821   0.10558   0.24999   0.00000  Uiso   1.00
O109   O     0.53823   0.22774   0.25000   0.00000  Uiso   1.00
O110   O     0.46177   0.10559   0.25000   0.00000  Uiso   1.00
O111   O     0.43994   0.16667   0.31612   0.00000  Uiso   1.00
O112   O     0.56006   0.16666   0.18387   0.00000  Uiso   1.00
O113   O     0.51639   0.16666   0.31612   0.00000  Uiso   1.00
O114   O     0.48361   0.16667   0.18388   0.00000  Uiso   1.00
Zn115  Zn    0.44896   0.16667   0.25000   0.00000  Uiso   1.00
Zn116  Zn    0.55104   0.16666   0.25000   0.00000  Uiso   1.00
O117   O     0.48512   0.19718   0.10183   0.00000  Uiso   1.00
H118   H     0.47863   0.20785   0.07427   0.00000  Uiso   1.00
O119   O     0.53207   0.15356   0.38900   0.00000  Uiso   1.00
H120   H     0.54732   0.16484   0.41047   0.00000  Uiso   1.00
H121   H     0.61146   0.12198   0.11135   0.00000  Uiso   1.00
H122   H     0.37678   0.17604   0.39771   0.00000  Uiso   1.00
O123   O     0.33478   0.17479   0.49093   0.00000  Uiso   1.00
H124   H     0.65114   0.18227   0.46938   0.00000  Uiso   1.00
O125   O     0.63634   0.08324   0.02831   0.00000  Uiso   1.00
H126   H     0.65670   0.08354   0.04789   0.00000  Uiso   1.00
O127   O     0.41199   0.14340   0.10792   0.00000  Uiso   1.00
H128   H     0.43339   0.12533   0.11843   0.00000  Uiso   1.00
O129   O     0.54169   0.07686   0.42229   0.00000  Uiso   1.00
H130   H     0.51017   0.07399   0.41804   0.00000  Uiso   1.00
O131   O     0.57902   0.29414   0.18122   0.00000  Uiso   1.00
H132   H     0.56976   0.26579   0.17462   0.00000  Uiso   1.00
O133   O     0.42107   0.03923   0.31877   0.00000  Uiso   1.00
H134   H     0.43041   0.06754   0.32544   0.00000  Uiso   1.00
H135   H     0.56952   0.04000   0.19523   0.00000  Uiso   1.00
H136   H     0.43047   0.29338   0.30464   0.00000  Uiso   1.00
H137   H     0.64208   0.11428   0.20448   0.00000  Uiso   1.00
H138   H     0.35790   0.21897   0.29562   0.00000  Uiso   1.00
H139   H     0.39281   0.11399   0.20500   0.00000  Uiso   1.00
H140   H     0.60693   0.21890   0.29569   0.00000  Uiso   1.00
C141   C     0.83370   0.24659   0.24870   0.00000  Uiso   1.00
C142   C     0.83299   0.08675   0.25125   0.00000  Uiso   1.00
C143   C     0.76410   0.14483   0.05953   0.00000  Uiso   1.00
C144   C     0.86746   0.09902   0.46311   0.00000  Uiso   1.00
C145   C     0.73146   0.15241   0.03700   0.00000  Uiso   1.00
C146   C     0.90084   0.09289   0.48513   0.00000  Uiso   1.00
C147   C     0.87342   0.31279   0.21606   0.00000  Uiso   1.00
C148   C     0.79329   0.02057   0.28388   0.00000  Uiso   1.00
C149   C     0.87291   0.02233   0.21953   0.00000  Uiso   1.00
C150   C     0.79377   0.31104   0.28036   0.00000  Uiso   1.00
C151   C     0.83305   0.04263   0.25244   0.00000  Uiso   1.00
C152   C     0.83365   0.29073   0.24748   0.00000  Uiso   1.00
C153   C     0.98576   0.13754   0.22474   0.00000  Uiso   1.00
C154   C     0.68088   0.19574   0.27534   0.00000  Uiso   1.00
C155   C     0.70031   0.13745   0.22491   0.00000  Uiso   1.00
C156   C     0.96625   0.19571   0.27536   0.00000  Uiso   1.00
C157   C     0.80313   0.16613   0.33842   0.00000  Uiso   1.00
C158   C     0.86351   0.16582   0.16175   0.00000  Uiso   1.00
C159   C     0.78411   0.16168   0.38982   0.00000  Uiso   1.00
C160   C     0.88077   0.15501   0.11193   0.00000  Uiso   1.00
C161   C     0.71607   0.16498   0.46488   0.00000  Uiso   1.00
C162   C     0.92932   0.10849   0.04903   0.00000  Uiso   1.00
C163   C     0.73437   0.16753   0.41565   0.00000  Uiso   1.00
C164   C     0.92097   0.12839   0.09232   0.00000  Uiso   1.00
C165   C     0.81574   0.15126   0.41315   0.00000  Uiso   1.00
C166   C     0.84988   0.16334   0.08767   0.00000  Uiso   1.00
C167   C     0.79640   0.14156   0.46142   0.00000  Uiso   1.00
C168   C     0.85196   0.13729   0.04982   0.00000  Uiso   1.00
C169   C     0.74753   0.15283   0.48789   0.00000  Uiso   1.00
C170   C     0.89450   0.11291   0.02772   0.00000  Uiso   1.00
C171   C     0.82597   0.12515   0.48484   0.00000  Uiso   1.00
C172   C     0.81385   0.13608   0.03218   0.00000  Uiso   1.00
H173   H     0.69389   0.15940   0.05823   0.00000  Uiso   1.00
H174   H     0.93216   0.07293   0.46821   0.00000  Uiso   1.00
N175   N     0.71426   0.16668   0.25001   0.00000  Uiso   1.00
N176   N     0.95241   0.16666   0.24999   0.00000  Uiso   1.00
O177   O     0.79512   0.22775   0.25000   0.00000  Uiso   1.00
O178   O     0.87154   0.10558   0.24999   0.00000  Uiso   1.00
O179   O     0.87157   0.22774   0.25000   0.00000  Uiso   1.00
O180   O     0.79510   0.10559   0.25000   0.00000  Uiso   1.00
O181   O     0.77328   0.16667   0.31612   0.00000  Uiso   1.00
O182   O     0.89339   0.16666   0.18387   0.00000  Uiso   1.00
O183   O     0.84972   0.16666   0.31612   0.00000  Uiso   1.00
O184   O     0.81695   0.16667   0.18388   0.00000  Uiso   1.00
Zn185  Zn    0.78229   0.16667   0.25000   0.00000  Uiso   1.00
Zn186  Zn    0.88438   0.16666   0.25000   0.00000  Uiso   1.00
O187   O     0.81846   0.19718   0.10183   0.00000  Uiso   1.00
H188   H     0.81197   0.20785   0.07427   0.00000  Uiso   1.00
O189   O     0.86540   0.15356   0.38900   0.00000  Uiso   1.00
H190   H     0.88065   0.16484   0.41047   0.00000  Uiso   1.00
H191   H     0.94480   0.12198   0.11135   0.00000  Uiso   1.00
H192   H     0.71011   0.17604   0.39771   0.00000  Uiso   1.00
O193   O     0.66812   0.17479   0.49093   0.00000  Uiso   1.00
H194   H     0.98448   0.18227   0.46938   0.00000  Uiso   1.00
O195   O     0.96968   0.08324   0.02831   0.00000  Uiso   1.00
H196   H     0.99003   0.08354   0.04789   0.00000  Uiso   1.00
O197   O     0.74533   0.14340   0.10792   0.00000  Uiso   1.00
H198   H     0.76672   0.12533   0.11843   0.00000  Uiso   1.00
O199   O     0.87502   0.07686   0.42229   0.00000  Uiso   1.00
H200   H     0.84350   0.07399   0.41804   0.00000  Uiso   1.00
O201   O     0.91235   0.29414   0.18122   0.00000  Uiso   1.00
H202   H     0.90309   0.26579   0.17462   0.00000  Uiso   1.00
O203   O     0.75440   0.03923   0.31877   0.00000  Uiso   1.00
H204   H     0.76374   0.06754   0.32544   0.00000  Uiso   1.00
H205   H     0.90286   0.04000   0.19523   0.00000  Uiso   1.00
H206   H     0.76380   0.29338   0.30464   0.00000  Uiso   1.00
H207   H     0.97541   0.11428   0.20448   0.00000  Uiso   1.00
H208   H     0.69123   0.21897   0.29562   0.00000  Uiso   1.00
H209   H     0.72615   0.11399   0.20500   0.00000  Uiso   1.00
H210   H     0.94026   0.21890   0.29569   0.00000  Uiso   1.00
C211   C     0.16703   0.57992   0.24870   0.00000  Uiso   1.00
C212   C     0.16632   0.42008   0.25125   0.00000  Uiso   1.00
C213   C     0.09744   0.47816   0.05953   0.00000  Uiso   1.00
C214   C     0.20079   0.43235   0.46311   0.00000  Uiso   1.00
C215   C     0.06479   0.48575   0.03700   0.00000  Uiso   1.00
C216   C     0.23417   0.42622   0.48513   0.00000  Uiso   1.00
C217   C     0.20675   0.64612   0.21606   0.00000  Uiso   1.00
C218   C     0.12662   0.35391   0.28388   0.00000  Uiso   1.00
C219   C     0.20625   0.35566   0.21953   0.00000  Uiso   1.00
C220   C     0.12710   0.64437   0.28036   0.00000  Uiso   1.00
C221   C     0.16638   0.37596   0.25244   0.00000  Uiso   1.00
C222   C     0.16698   0.62406   0.24748   0.00000  Uiso   1.00
C223   C     0.31909   0.47087   0.22474   0.00000  Uiso   1.00
C224   C     0.01422   0.52908   0.27534   0.00000  Uiso   1.00
C225   C     0.03364   0.47079   0.22491   0.00000  Uiso   1.00
C226   C     0.29959   0.52904   0.27536   0.00000  Uiso   1.00
C227   C     0.13646   0.49947   0.33842   0.00000  Uiso   1.00
C228   C     0.19684   0.49916   0.16175   0.00000  Uiso   1.00
C229   C     0.11744   0.49501   0.38982   0.00000  Uiso   1.00
C230   C     0.21410   0.48834   0.11193   0.00000  Uiso   1.00
C231   C     0.04941   0.49831   0.46488   0.00000  Uiso   1.00
C232   C     0.26265   0.44182   0.04903   0.00000  Uiso   1.00
C233   C     0.06770   0.50086   0.41565   0.00000  Uiso   1.00
C234   C     0.25431   0.46172   0.09232   0.00000  Uiso   1.00
C235   C     0.14907   0.48459   0.41315   0.00000  Uiso   1.00
C236   C     0.18322   0.49667   0.08767   0.00000  Uiso   1.00
C237   C     0.12973   0.47489   0.46142   0.00000  Uiso   1.00
C238   C     0.18529   0.47063   0.04982   0.00000  Uiso   1.00
C239   C     0.08086   0.48616   0.48789   0.00000  Uiso   1.00
C240   C     0.22784   0.44625   0.02772   0.00000  Uiso   1.00
C241   C     0.15930   0.45848   0.48484   0.00000  Uiso   1.00
C242   C     0.14718   0.46942   0.03218   0.00000  Uiso   1.00
H243   H     0.02722   0.49273   0.05823   0.00000  Uiso   1.00
H244   H     0.26550   0.40627   0.46821   0.00000  Uiso   1.00
N245   N     0.04759   0.50001   0.25001   0.00000  Uiso   1.00
N246   N     0.28574   0.49999   0.24999   0.00000  Uiso   1.00
O247   O     0.12846   0.56108   0.25000   0.00000  Uiso   1.00
O248   O     0.20488   0.43892   0.24999   0.00000  Uiso   1.00
O249   O     0.20490   0.56107   0.25000   0.00000  Uiso   1.00
O250   O     0.12843   0.43893   0.25000   0.00000  Uiso   1.00
O251   O     0.10661   0.50001   0.31612   0.00000  Uiso   1.00
O252   O     0.22672   0.49999   0.18387   0.00000  Uiso   1.00
O253   O     0.18305   0.50000   0.31612   0.00000  Uiso   1.00
O254   O     0.15028   0.50000   0.18388   0.00000  Uiso   1.00
Zn255  Zn    0.11562   0.50001   0.25000   0.00000  Uiso   1.00
Zn256  Zn    0.21771   0.49999   0.25000   0.00000  Uiso   1.00
O257   O     0.15179   0.53051   0.10183   0.00000  Uiso   1.00
H258   H     0.14530   0.54119   0.07427   0.00000  Uiso   1.00
O259   O     0.19874   0.48689   0.38900   0.00000  Uiso   1.00
H260   H     0.21399   0.49817   0.41047   0.00000  Uiso   1.00
H261   H     0.27813   0.45531   0.11135   0.00000  Uiso   1.00
H262   H     0.04344   0.50937   0.39771   0.00000  Uiso   1.00
O263   O     0.00145   0.50812   0.49093   0.00000  Uiso   1.00
H264   H     0.31781   0.51560   0.46938   0.00000  Uiso   1.00
O265   O     0.30301   0.41658   0.02831   0.00000  Uiso   1.00
H266   H     0.32336   0.41687   0.04789   0.00000  Uiso   1.00
O267   O     0.07866   0.47674   0.10792   0.00000  Uiso   1.00
H268   H     0.10005   0.45866   0.11843   0.00000  Uiso   1.00
O269   O     0.20836   0.41020   0.42229   0.00000  Uiso   1.00
H270   H     0.17683   0.40733   0.41804   0.00000  Uiso   1.00
O271   O     0.24569   0.62747   0.18122   0.00000  Uiso   1.00
H272   H     0.23642   0.59912   0.17462   0.00000  Uiso   1.00
O273   O     0.08774   0.37256   0.31877   0.00000  Uiso   1.00
H274   H     0.09708   0.40087   0.32544   0.00000  Uiso   1.00
H275   H     0.23619   0.37333   0.19523   0.00000  Uiso   1.00
H276   H     0.09713   0.62672   0.30464   0.00000  Uiso   1.00
H277   H     0.30875   0.44762   0.20448   0.00000  Uiso   1.00
H278   H     0.02456   0.55231   0.29562   0.00000  Uiso   1.00
H279   H     0.05948   0.44732   0.20500   0.00000  Uiso   1.00
H280   H     0.27360   0.55224   0.29569   0.00000  Uiso   1.00
C281   C     0.50036   0.57992   0.24870   0.00000  Uiso   1.00
C282   C     0.49965   0.42008   0.25125   0.00000  Uiso   1.00
C283   C     0.43077   0.47816   0.05953   0.00000  Uiso   1.00
C284   C     0.53412   0.43235   0.46311   0.00000  Uiso   1.00
C285   C     0.39813   0.48575   0.03700   0.00000  Uiso   1.00
C286   C     0.56751   0.42622   0.48513   0.00000  Uiso   1.00
C287   C     0.54009   0.64612   0.21606   0.00000  Uiso   1.00
C288   C     0.45996   0.35391   0.28388   0.00000  Uiso   1.00
C289   C     0.53958   0.35566   0.21953   0.00000  Uiso   1.00
C290   C     0.46043   0.64437   0.28036   0.00000  Uiso   1.00
C291   C     0.49972   0.37596   0.25244   0.00000  Uiso   1.00
C292   C     0.50031   0.62406   0.24748   0.00000  Uiso   1.00
C293   C     0.65242   0.47087   0.22474   0.00000  Uiso   1.00
C294   C     0.34755   0.52908   0.27534   0.00000  Uiso   1.00
C295   C     0.36698   0.47079   0.22491   0.00000  Uiso   1.00
C296   C     0.63292   0.52904   0.27536   0.00000  Uiso   1.00
C297   C     0.46979   0.49947   0.33842   0.00000  Uiso   1.00
C298   C     0.53017   0.49916   0.16175   0.00000  Uiso   1.00
C299   C     0.45078   0.49501   0.38982   0.00000  Uiso   1.00
C300   C     0.54743   0.48834   0.11193   0.00000  Uiso   1.00
C301   C     0.38274   0.49831   0.46488   0.00000  Uiso   1.00
C302   C     0.59598   0.44182   0.04903   0.00000  Uiso   1.00
C303   C     0.40103   0.50086   0.41565   0.00000  Uiso   1.00
C304   C     0.58764   0.46172   0.09232   0.00000  Uiso   1.00
C305   C     0.48241   0.48459   0.41315   0.00000  Uiso   1.00
C306   C     0.51655   0.49667   0.08767   0.00000  Uiso   1.00
C307   C     0.46306   0.47489   0.46142   0.00000  Uiso   1.00
C308   C     0.51863   0.47063   0.04982   0.00000  Uiso   1.00
C309   C     0.41420   0.48616   0.48789   0.00000  Uiso   1.00
C310   C     0.56117   0.44625   0.02772   0.00000  Uiso   1.00
C311   C     0.49264   0.45848   0.48484   0.00000  Uiso   1.00
C312   C     0.48052   0.46942   0.03218   0.00000  Uiso   1.00
H313   H     0.36055   0.49273   0.05823   0.00000  Uiso   1.00
H314   H     0.59883   0.40627   0.46821   0.00000  Uiso   1.00
N315   N     0.38093   0.50001   0.25001   0.00000  Uiso   1.00
N316   N     0.61907   0.49999   0.24999   0.00000  Uiso   1.00
O317   O     0.46179   0.56108   0.25000   0.00000  Uiso   1.00
O318   O     0.53821   0.43892   0.24999   0.00000  Uiso   1.00
O319   O     0.53823   0.56107   0.25000   0.00000  Uiso   1.00
O320   O     0.46177   0.43893   0.25000   0.00000  Uiso   1.00
O321   O     0.43994   0.50001   0.31612   0.00000  Uiso   1.00
O322   O     0.56006   0.49999   0.18387   0.00000  Uiso   1.00
O323   O     0.51639   0.50000   0.31612   0.00000  Uiso   1.00
O324   O     0.48361   0.50000   0.18388   0.00000  Uiso   1.00
Zn325  Zn    0.44896   0.50001   0.25000   0.00000  Uiso   1.00
Zn326  Zn    0.55104   0.49999   0.25000   0.00000  Uiso   1.00
O327   O     0.48512   0.53051   0.10183   0.00000  Uiso   1.00
H328   H     0.47863   0.54119   0.07427   0.00000  Uiso   1.00
O329   O     0.53207   0.48689   0.38900   0.00000  Uiso   1.00
H330   H     0.54732   0.49817   0.41047   0.00000  Uiso   1.00
H331   H     0.61146   0.45531   0.11135   0.00000  Uiso   1.00
H332   H     0.37678   0.50937   0.39771   0.00000  Uiso   1.00
O333   O     0.33478   0.50812   0.49093   0.00000  Uiso   1.00
H334   H     0.65114   0.51560   0.46938   0.00000  Uiso   1.00
O335   O     0.63634   0.41658   0.02831   0.00000  Uiso   1.00
H336   H     0.65670   0.41687   0.04789   0.00000  Uiso   1.00
O337   O     0.41199   0.47674   0.10792   0.00000  Uiso   1.00
H338   H     0.43339   0.45866   0.11843   0.00000  Uiso   1.00
O339   O     0.54169   0.41020   0.42229   0.00000  Uiso   1.00
H340   H     0.51017   0.40733   0.41804   0.00000  Uiso   1.00
O341   O     0.57902   0.62747   0.18122   0.00000  Uiso   1.00
H342   H     0.56976   0.59912   0.17462   0.00000  Uiso   1.00
O343   O     0.42107   0.37256   0.31877   0.00000  Uiso   1.00
H344   H     0.43041   0.40087   0.32544   0.00000  Uiso   1.00
H345   H     0.56952   0.37333   0.19523   0.00000  Uiso   1.00
H346   H     0.43047   0.62672   0.30464   0.00000  Uiso   1.00
H347   H     0.64208   0.44762   0.20448   0.00000  Uiso   1.00
H348   H     0.35790   0.55231   0.29562   0.00000  Uiso   1.00
H349   H     0.39281   0.44732   0.20500   0.00000  Uiso   1.00
H350   H     0.60693   0.55224   0.29569   0.00000  Uiso   1.00
C351   C     0.83370   0.57992   0.24870   0.00000  Uiso   1.00
C352   C     0.83299   0.42008   0.25125   0.00000  Uiso   1.00
C353   C     0.76410   0.47816   0.05953   0.00000  Uiso   1.00
C354   C     0.86746   0.43235   0.46311   0.00000  Uiso   1.00
C355   C     0.73146   0.48575   0.03700   0.00000  Uiso   1.00
C356   C     0.90084   0.42622   0.48513   0.00000  Uiso   1.00
C357   C     0.87342   0.64612   0.21606   0.00000  Uiso   1.00
C358   C     0.79329   0.35391   0.28388   0.00000  Uiso   1.00
C359   C     0.87291   0.35566   0.21953   0.00000  Uiso   1.00
C360   C     0.79377   0.64437   0.28036   0.00000  Uiso   1.00
C361   C     0.83305   0.37596   0.25244   0.00000  Uiso   1.00
C362   C     0.83365   0.62406   0.24748   0.00000  Uiso   1.00
C363   C     0.98576   0.47087   0.22474   0.00000  Uiso   1.00
C364   C     0.68088   0.52908   0.27534   0.00000  Uiso   1.00
C365   C     0.70031   0.47079   0.22491   0.00000  Uiso   1.00
C366   C     0.96625   0.52904   0.27536   0.00000  Uiso   1.00
C367   C     0.80313   0.49947   0.33842   0.00000  Uiso   1.00
C368   C     0.86351   0.49916   0.16175   0.00000  Uiso   1.00
C369   C     0.78411   0.49501   0.38982   0.00000  Uiso   1.00
C370   C     0.88077   0.48834   0.11193   0.00000  Uiso   1.00
C371   C     0.71607   0.49831   0.46488   0.00000  Uiso   1.00
C372   C     0.92932   0.44182   0.04903   0.00000  Uiso   1.00
C373   C     0.73437   0.50086   0.41565   0.00000  Uiso   1.00
C374   C     0.92097   0.46172   0.09232   0.00000  Uiso   1.00
C375   C     0.81574   0.48459   0.41315   0.00000  Uiso   1.00
C376   C     0.84988   0.49667   0.08767   0.00000  Uiso   1.00
C377   C     0.79640   0.47489   0.46142   0.00000  Uiso   1.00
C378   C     0.85196   0.47063   0.04982   0.00000  Uiso   1.00
C379   C     0.74753   0.48616   0.48789   0.00000  Uiso   1.00
C380   C     0.89450   0.44625   0.02772   0.00000  Uiso   1.00
C381   C     0.82597   0.45848   0.48484   0.00000  Uiso   1.00
C382   C     0.81385   0.46942   0.03218   0.00000  Uiso   1.00
H383   H     0.69389   0.49273   0.05823   0.00000  Uiso   1.00
H384   H     0.93216   0.40627   0.46821   0.00000  Uiso   1.00
N385   N     0.71426   0.50001   0.25001   0.00000  Uiso   1.00
N386   N     0.95241   0.49999   0.24999   0.00000  Uiso   1.00
O387   O     0.79512   0.56108   0.25000   0.00000  Uiso   1.00
O388   O     0.87154   0.43892   0.24999   0.00000  Uiso   1.00
O389   O     0.87157   0.56107   0.25000   0.00000  Uiso   1.00
O390   O     0.79510   0.43893   0.25000   0.00000  Uiso   1.00
O391   O     0.77328   0.50001   0.31612   0.00000  Uiso   1.00
O392   O     0.89339   0.49999   0.18387   0.00000  Uiso   1.00
O393   O     0.84972   0.50000   0.31612   0.00000  Uiso   1.00
O394   O     0.81695   0.50000   0.18388   0.00000  Uiso   1.00
Zn395  Zn    0.78229   0.50001   0.25000   0.00000  Uiso   1.00
Zn396  Zn    0.88438   0.49999   0.25000   0.00000  Uiso   1.00
O397   O     0.81846   0.53051   0.10183   0.00000  Uiso   1.00
H398   H     0.81197   0.54119   0.07427   0.00000  Uiso   1.00
O399   O     0.86540   0.48689   0.38900   0.00000  Uiso   1.00
H400   H     0.88065   0.49817   0.41047   0.00000  Uiso   1.00
H401   H     0.94480   0.45531   0.11135   0.00000  Uiso   1.00
H402   H     0.71011   0.50937   0.39771   0.00000  Uiso   1.00
O403   O     0.66812   0.50812   0.49093   0.00000  Uiso   1.00
H404   H     0.98448   0.51560   0.46938   0.00000  Uiso   1.00
O405   O     0.96968   0.41658   0.02831   0.00000  Uiso   1.00
H406   H     0.99003   0.41687   0.04789   0.00000  Uiso   1.00
O407   O     0.74533   0.47674   0.10792   0.00000  Uiso   1.00
H408   H     0.76672   0.45866   0.11843   0.00000  Uiso   1.00
O409   O     0.87502   0.41020   0.42229   0.00000  Uiso   1.00
H410   H     0.84350   0.40733   0.41804   0.00000  Uiso   1.00
O411   O     0.91235   0.62747   0.18122   0.00000  Uiso   1.00
H412   H     0.90309   0.59912   0.17462   0.00000  Uiso   1.00
O413   O     0.75440   0.37256   0.31877   0.00000  Uiso   1.00
H414   H     0.76374   0.40087   0.32544   0.00000  Uiso   1.00
H415   H     0.90286   0.37333   0.19523   0.00000  Uiso   1.00
H416   H     0.76380   0.62672   0.30464   0.00000  Uiso   1.00
H417   H     0.97541   0.44762   0.20448   0.00000  Uiso   1.00
H418   H     0.69123   0.55231   0.29562   0.00000  Uiso   1.00
H419   H     0.72615   0.44732   0.20500   0.00000  Uiso   1.00
H420   H     0.94026   0.55224   0.29569   0.00000  Uiso   1.00
C421   C     0.16703   0.91326   0.24870   0.00000  Uiso   1.00
C422   C     0.16632   0.75341   0.25125   0.00000  Uiso   1.00
C423   C     0.09744   0.81149   0.05953   0.00000  Uiso   1.00
C424   C     0.20079   0.76568   0.46311   0.00000  Uiso   1.00
C425   C     0.06479   0.81908   0.03700   0.00000  Uiso   1.00
C426   C     0.23417   0.75956   0.48513   0.00000  Uiso   1.00
C427   C     0.20675   0.97946   0.21606   0.00000  Uiso   1.00
C428   C     0.12662   0.68724   0.28388   0.00000  Uiso   1.00
C429   C     0.20625   0.68900   0.21953   0.00000  Uiso   1.00
C430   C     0.12710   0.97771   0.28036   0.00000  Uiso   1.00
C431   C     0.16638   0.70930   0.25244   0.00000  Uiso   1.00
C432   C     0.16698   0.95739   0.24748   0.00000  Uiso   1.00
C433   C     0.31909   0.80421   0.22474   0.00000  Uiso   1.00
C434   C     0.01422   0.86241   0.27534   0.00000  Uiso   1.00
C435   C     0.03364   0.80412   0.22491   0.00000  Uiso   1.00
C436   C     0.29959   0.86237   0.27536   0.00000  Uiso   1.00
C437   C     0.13646   0.83280   0.33842   0.00000  Uiso   1.00
C438   C     0.19684   0.83249   0.16175   0.00000  Uiso   1.00
C439   C     0.11744   0.82835   0.38982   0.00000  Uiso   1.00
C440   C     0.21410   0.82168   0.11193   0.00000  Uiso   1.00
C441   C     0.04941   0.83165   0.46488   0.00000  Uiso   1.00
C442   C     0.26265   0.77515   0.04903   0.00000  Uiso   1.00
C443   C     0.06770   0.83419   0.41565   0.00000  Uiso   1.00
C444   C     0.25431   0.79505   0.09232   0.00000  Uiso   1.00
C445   C     0.14907   0.81792   0.41315   0.00000  Uiso   1.00
C446   C     0.18322   0.83001   0.08767   0.00000  Uiso   1.00
C447   C     0.12973   0.80822   0.46142   0.00000  Uiso   1.00
C448   C     0.18529   0.80396   0.04982   0.00000  Uiso   1.00
C449   C     0.08086   0.81949   0.48789   0.00000  Uiso   1.00
C450   C     0.22784   0.77958   0.02772   0.00000  Uiso   1.00
C451   C     0.15930   0.79181   0.48484   0.00000  Uiso   1.00
C452   C     0.14718   0.80275   0.03218   0.00000  Uiso   1.00
H453   H     0.02722   0.82607   0.05823   0.00000  Uiso   1.00
H454   H     0.26550   0.73960   0.46821   0.00000  Uiso   1.00
N455   N     0.04759   0.83334   0.25001   0.00000  Uiso   1.00
N456   N     0.28574   0.83332   0.24999   0.00000  Uiso   1.00
O457   O     0.12846   0.89442   0.25000   0.00000  Uiso   1.00
O458   O     0.20488   0.77225   0.24999   0.00000  Uiso   1.00
O459   O     0.20490   0.89441   0.25000   0.00000  Uiso   1.00
O460   O     0.12843   0.77226   0.25000   0.00000  Uiso   1.00
O461   O     0.10661   0.83334   0.31612   0.00000  Uiso   1.00
O462   O     0.22672   0.83333   0.18387   0.00000  Uiso   1.00
O463   O     0.18305   0.83333   0.31612   0.00000  Uiso   1.00
O464   O     0.15028   0.83334   0.18388   0.00000  Uiso   1.00
Zn465  Zn    0.11562   0.83334   0.25000   0.00000  Uiso   1.00
Zn466  Zn    0.21771   0.83333   0.25000   0.00000  Uiso   1.00
O467   O     0.15179   0.86385   0.10183   0.00000  Uiso   1.00
H468   H     0.14530   0.87452   0.07427   0.00000  Uiso   1.00
O469   O     0.19874   0.82023   0.38900   0.00000  Uiso   1.00
H470   H     0.21399   0.83150   0.41047   0.00000  Uiso   1.00
H471   H     0.27813   0.78864   0.11135   0.00000  Uiso   1.00
H472   H     0.04344   0.84270   0.39771   0.00000  Uiso   1.00
O473   O     0.00145   0.84146   0.49093   0.00000  Uiso   1.00
H474   H     0.31781   0.84894   0.46938   0.00000  Uiso   1.00
O475   O     0.30301   0.74991   0.02831   0.00000  Uiso   1.00
H476   H     0.32336   0.75021   0.04789   0.00000  Uiso   1.00
O477   O     0.07866   0.81007   0.10792   0.00000  Uiso   1.00
H478   H     0.10005   0.79199   0.11843   0.00000  Uiso   1.00
O479   O     0.20836   0.74353   0.42229   0.00000  Uiso   1.00
H480   H     0.17683   0.74066   0.41804   0.00000  Uiso   1.00
O481   O     0.24569   0.96081   0.18122   0.00000  Uiso   1.00
H482   H     0.23642   0.93245   0.17462   0.00000  Uiso   1.00
O483   O     0.08774   0.70590   0.31877   0.00000  Uiso   1.00
H484   H     0.09708   0.73420   0.32544   0.00000  Uiso   1.00
H485   H     0.23619   0.70666   0.19523   0.00000  Uiso   1.00
H486   H     0.09713   0.96005   0.30464   0.00000  Uiso   1.00
H487   H     0.30875   0.78095   0.20448   0.00000  Uiso   1.00
H488   H     0.02456   0.88564   0.29562   0.00000  Uiso   1.00
H489   H     0.05948   0.78066   0.20500   0.00000  Uiso   1.00
H490   H     0.27360   0.88557   0.29569   0.00000  Uiso   1.00
C491   C     0.50036   0.91326   0.24870   0.00000  Uiso   1.00
C492   C     0.49965   0.75341   0.25125   0.00000  Uiso   1.00
C493   C     0.43077   0.81149   0.05953   0.00000  Uiso   1.00
C494   C     0.53412   0.76568   0.46311   0.00000  Uiso   1.00
C495   C     0.39813   0.81908   0.03700   0.00000  Uiso   1.00
C496   C     0.56751   0.75956   0.48513   0.00000  Uiso   1.00
C497   C     0.54009   0.97946   0.21606   0.00000  Uiso   1.00
C498   C     0.45996   0.68724   0.28388   0.00000  Uiso   1.00
C499   C     0.53958   0.68900   0.21953   0.00000  Uiso   1.00
C500   C     0.46043   0.97771   0.28036   0.00000  Uiso   1.00
C501   C     0.49972   0.70930   0.25244   0.00000  Uiso   1.00
C502   C     0.50031   0.95739   0.24748   0.00000  Uiso   1.00
C503   C     0.65242   0.80421   0.22474   0.00000  Uiso   1.00
C504   C     0.34755   0.86241   0.27534   0.00000  Uiso   1.00
C505   C     0.36698   0.80412   0.22491   0.00000  Uiso   1.00
C506   C     0.63292   0.86237   0.27536   0.00000  Uiso   1.00
C507   C     0.46979   0.83280   0.33842   0.00000  Uiso   1.00
C508   C     0.53017   0.83249   0.16175   0.00000  Uiso   1.00
C509   C     0.45078   0.82835   0.38982   0.00000  Uiso   1.00
C510   C     0.54743   0.82168   0.11193   0.00000  Uiso   1.00
C511   C     0.38274   0.83165   0.46488   0.00000  Uiso   1.00
C512   C     0.59598   0.77515   0.04903   0.00000  Uiso   1.00
C513   C     0.40103   0.83419   0.41565   0.00000  Uiso   1.00
C514   C     0.58764   0.79505   0.09232   0.00000  Uiso   1.00
C515   C     0.48241   0.81792   0.41315   0.00000  Uiso   1.00
C516   C     0.51655   0.83001   0.08767   0.00000  Uiso   1.00
C517   C     0.46306   0.80822   0.46142   0.00000  Uiso   1.00
C518   C     0.51863   0.80396   0.04982   0.00000  Uiso   1.00
C519   C     0.41420   0.81949   0.48789   0.00000  Uiso   1.00
C520   C     0.56117   0.77958   0.02772   0.00000  Uiso   1.00
C521   C     0.49264   0.79181   0.48484   0.00000  Uiso   1.00
C522   C     0.48052   0.80275   0.03218   0.00000  Uiso   1.00
H523   H     0.36055   0.82607   0.05823   0.00000  Uiso   1.00
H524   H     0.59883   0.73960   0.46821   0.00000  Uiso   1.00
N525   N     0.38093   0.83334   0.25001   0.00000  Uiso   1.00
N526   N     0.61907   0.83332   0.24999   0.00000  Uiso   1.00
O527   O     0.46179   0.89442   0.25000   0.00000  Uiso   1.00
O528   O     0.53821   0.77225   0.24999   0.00000  Uiso   1.00
O529   O     0.53823   0.89441   0.25000   0.00000  Uiso   1.00
O530   O     0.46177   0.77226   0.25000   0.00000  Uiso   1.00
O531   O     0.43994   0.83334   0.31612   0.00000  Uiso   1.00
O532   O     0.56006   0.83333   0.18387   0.00000  Uiso   1.00
O533   O     0.51639   0.83333   0.31612   0.00000  Uiso   1.00
O534   O     0.48361   0.83334   0.18388   0.00000  Uiso   1.00
Zn535  Zn    0.44896   0.83334   0.25000   0.00000  Uiso   1.00
Zn536  Zn    0.55104   0.83333   0.25000   0.00000  Uiso   1.00
O537   O     0.48512   0.86385   0.10183   0.00000  Uiso   1.00
H538   H     0.47863   0.87452   0.07427   0.00000  Uiso   1.00
O539   O     0.53207   0.82023   0.38900   0.00000  Uiso   1.00
H540   H     0.54732   0.83150   0.41047   0.00000  Uiso   1.00
H541   H     0.61146   0.78864   0.11135   0.00000  Uiso   1.00
H542   H     0.37678   0.84270   0.39771   0.00000  Uiso   1.00
O543   O     0.33478   0.84146   0.49093   0.00000  Uiso   1.00
H544   H     0.65114   0.84894   0.46938   0.00000  Uiso   1.00
O545   O     0.63634   0.74991   0.02831   0.00000  Uiso   1.00
H546   H     0.65670   0.75021   0.04789   0.00000  Uiso   1.00
O547   O     0.41199   0.81007   0.10792   0.00000  Uiso   1.00
H548   H     0.43339   0.79199   0.11843   0.00000  Uiso   1.00
O549   O     0.54169   0.74353   0.42229   0.00000  Uiso   1.00
H550   H     0.51017   0.74066   0.41804   0.00000  Uiso   1.00
O551   O     0.57902   0.96081   0.18122   0.00000  Uiso   1.00
H552   H     0.56976   0.93245   0.17462   0.00000  Uiso   1.00
O553   O     0.42107   0.70590   0.31877   0.00000  Uiso   1.00
H554   H     0.43041   0.73420   0.32544   0.00000  Uiso   1.00
H555   H     0.56952   0.70666   0.19523   0.00000  Uiso   1.00
H556   H     0.43047   0.96005   0.30464   0.00000  Uiso   1.00
H557   H     0.64208   0.78095   0.20448   0.00000  Uiso   1.00
H558   H     0.35790   0.88564   0.29562   0.00000  Uiso   1.00
H559   H     0.39281   0.78066   0.20500   0.00000  Uiso   1.00
H560   H     0.60693   0.88557   0.29569   0.00000  Uiso   1.00
C561   C     0.83370   0.91326   0.24870   0.00000  Uiso   1.00
C562   C     0.83299   0.75341   0.25125   0.00000  Uiso   1.00
C563   C     0.76410   0.81149   0.05953   0.00000  Uiso   1.00
C564   C     0.86746   0.76568   0.46311   0.00000  Uiso   1.00
C565   C     0.73146   0.81908   0.03700   0.00000  Uiso   1.00
C566   C     0.90084   0.75956   0.48513   0.00000  Uiso   1.00
C567   C     0.87342   0.97946   0.21606   0.00000  Uiso   1.00
C568   C     0.79329   0.68724   0.28388   0.00000  Uiso   1.00
C569   C     0.87291   0.68900   0.21953   0.00000  Uiso   1.00
C570   C     0.79377   0.97771   0.28036   0.00000  Uiso   1.00
C571   C     0.83305   0.70930   0.25244   0.00000  Uiso   1.00
C572   C     0.83365   0.95739   0.24748   0.00000  Uiso   1.00
C573   C     0.98576   0.80421   0.22474   0.00000  Uiso   1.00
C574   C     0.68088   0.86241   0.27534   0.00000  Uiso   1.00
C575   C     0.70031   0.80412   0.22491   0.00000  Uiso   1.00
C576   C     0.96625   0.86237   0.27536   0.00000  Uiso   1.00
C577   C     0.80313   0.83280   0.33842   0.00000  Uiso   1.00
C578   C     0.86351   0.83249   0.16175   0.00000  Uiso   1.00
C579   C     0.78411   0.82835   0.38982   0.00000  Uiso   1.00
C580   C     0.88077   0.82168   0.11193   0.00000  Uiso   1.00
C581   C     0.71607   0.83165   0.46488   0.00000  Uiso   1.00
C582   C     0.92932   0.77515   0.04903   0.00000  Uiso   1.00
C583   C     0.73437   0.83419   0.41565   0.00000  Uiso   1.00
C584   C     0.92097   0.79505   0.09232   0.00000  Uiso   1.00
C585   C     0.81574   0.81792   0.41315   0.00000  Uiso   1.00
C586   C     0.84988   0.83001   0.08767   0.00000  Uiso   1.00
C587   C     0.79640   0.80822   0.46142   0.00000  Uiso   1.00
C588   C     0.85196   0.80396   0.04982   0.00000  Uiso   1.00
C589   C     0.74753   0.81949   0.48789   0.00000  Uiso   1.00
C590   C     0.89450   0.77958   0.02772   0.00000  Uiso   1.00
C591   C     0.82597   0.79181   0.48484   0.00000  Uiso   1.00
C592   C     0.81385   0.80275   0.03218   0.00000  Uiso   1.00
H593   H     0.69389   0.82607   0.05823   0.00000  Uiso   1.00
H594   H     0.93216   0.73960   0.46821   0.00000  Uiso   1.00
N595   N     0.71426   0.83334   0.25001   0.00000  Uiso   1.00
N596   N     0.95241   0.83332   0.24999   0.00000  Uiso   1.00
O597   O     0.79512   0.89442   0.25000   0.00000  Uiso   1.00
O598   O     0.87154   0.77225   0.24999   0.00000  Uiso   1.00
O599   O     0.87157   0.89441   0.25000   0.00000  Uiso   1.00
O600   O     0.79510   0.77226   0.25000   0.00000  Uiso   1.00
O601   O     0.77328   0.83334   0.31612   0.00000  Uiso   1.00
O602   O     0.89339   0.83333   0.18387   0.00000  Uiso   1.00
O603   O     0.84972   0.83333   0.31612   0.00000  Uiso   1.00
O604   O     0.81695   0.83334   0.18388   0.00000  Uiso   1.00
Zn605  Zn    0.78229   0.83334   0.25000   0.00000  Uiso   1.00
Zn606  Zn    0.88438   0.83333   0.25000   0.00000  Uiso   1.00
O607   O     0.81846   0.86385   0.10183   0.00000  Uiso   1.00
H608   H     0.81197   0.87452   0.07427   0.00000  Uiso   1.00
O609   O     0.86540   0.82023   0.38900   0.00000  Uiso   1.00
H610   H     0.88065   0.83150   0.41047   0.00000  Uiso   1.00
H611   H     0.94480   0.78864   0.11135   0.00000  Uiso   1.00
H612   H     0.71011   0.84270   0.39771   0.00000  Uiso   1.00
O613   O     0.66812   0.84146   0.49093   0.00000  Uiso   1.00
H614   H     0.98448   0.84894   0.46938   0.00000  Uiso   1.00
O615   O     0.96968   0.74991   0.02831   0.00000  Uiso   1.00
H616   H     0.99003   0.75021   0.04789   0.00000  Uiso   1.00
O617   O     0.74533   0.81007   0.10792   0.00000  Uiso   1.00
H618   H     0.76672   0.79199   0.11843   0.00000  Uiso   1.00
O619   O     0.87502   0.74353   0.42229   0.00000  Uiso   1.00
H620   H     0.84350   0.74066   0.41804   0.00000  Uiso   1.00
O621   O     0.91235   0.96081   0.18122   0.00000  Uiso   1.00
H622   H     0.90309   0.93245   0.17462   0.00000  Uiso   1.00
O623   O     0.75440   0.70590   0.31877   0.00000  Uiso   1.00
H624   H     0.76374   0.73420   0.32544   0.00000  Uiso   1.00
H625   H     0.90286   0.70666   0.19523   0.00000  Uiso   1.00
H626   H     0.76380   0.96005   0.30464   0.00000  Uiso   1.00
H627   H     0.97541   0.78095   0.20448   0.00000  Uiso   1.00
H628   H     0.69123   0.88564   0.29562   0.00000  Uiso   1.00
H629   H     0.72615   0.78066   0.20500   0.00000  Uiso   1.00
H630   H     0.94026   0.88557   0.29569   0.00000  Uiso   1.00
C631   C     0.16703   0.24659   0.74870   0.00000  Uiso   1.00
C632   C     0.16632   0.08675   0.75125   0.00000  Uiso   1.00
C633   C     0.09744   0.14483   0.55953   0.00000  Uiso   1.00
C634   C     0.20079   0.09902   0.96311   0.00000  Uiso   1.00
C635   C     0.06479   0.15241   0.53700   0.00000  Uiso   1.00
C636   C     0.23417   0.09289   0.98513   0.00000  Uiso   1.00
C637   C     0.20675   0.31279   0.71606   0.00000  Uiso   1.00
C638   C     0.12662   0.02057   0.78388   0.00000  Uiso   1.00
C639   C     0.20625   0.02233   0.71953   0.00000  Uiso   1.00
C640   C     0.12710   0.31104   0.78036   0.00000  Uiso   1.00
C641   C     0.16638   0.04263   0.75244   0.00000  Uiso   1.00
C642   C     0.16698   0.29073   0.74748   0.00000  Uiso   1.00
C643   C     0.31909   0.13754   0.72474   0.00000  Uiso   1.00
C644   C     0.01422   0.19574   0.77534   0.00000  Uiso   1.00
C645   C     0.03364   0.13745   0.72491   0.00000  Uiso   1.00
C646   C     0.29959   0.19571   0.77536   0.00000  Uiso   1.00
C647   C     0.13646   0.16613   0.83842   0.00000  Uiso   1.00
C648   C     0.19684   0.16582   0.66175   0.00000  Uiso   1.00
C649   C     0.11744   0.16168   0.88982   0.00000  Uiso   1.00
C650   C     0.21410   0.15501   0.61193   0.00000  Uiso   1.00
C651   C     0.04941   0.16498   0.96488   0.00000  Uiso   1.00
C652   C     0.26265   0.10849   0.54903   0.00000  Uiso   1.00
C653   C     0.06770   0.16753   0.91565   0.00000  Uiso   1.00
C654   C     0.25431   0.12839   0.59232   0.00000  Uiso   1.00
C655   C     0.14907   0.15126   0.91315   0.00000  Uiso   1.00
C656   C     0.18322   0.16334   0.58767   0.00000  Uiso   1.00
C657   C     0.12973   0.14156   0.96142   0.00000  Uiso   1.00
C658   C     0.18529   0.13729   0.54982   0.00000  Uiso   1.00
C659   C     0.08086   0.15283   0.98789   0.00000  Uiso   1.00
C660   C     0.22784   0.11291   0.52772   0.00000  Uiso   1.00
C661   C     0.15930   0.12515   0.98484   0.00000  Uiso   1.00
C662   C     0.14718   0.13608   0.53218   0.00000  Uiso   1.00
H663   H     0.02722   0.15940   0.55823   0.00000  Uiso   1.00
H664   H     0.26550   0.07293   0.96821   0.00000  Uiso   1.00
N665   N     0.04759   0.16668   0.75001   0.00000  Uiso   1.00
N666   N     0.28574   0.16666   0.74999   0.00000  Uiso   1.00
O667   O     0.12846   0.22775   0.75000   0.00000  Uiso   1.00
O668   O     0.20488   0.10558   0.74999   0.00000  Uiso   1.00
O669   O     0.20490   0.22774   0.75000   0.00000  Uiso   1.00
O670   O     0.12843   0.10559   0.75000   0.00000  Uiso   1.00
O671   O     0.10661   0.16667   0.81612   0.00000  Uiso   1.00
O672   O     0.22672   0.16666   0.68387   0.00000  Uiso   1.00
O673   O     0.18305   0.16666   0.81612   0.00000  Uiso   1.00
O674   O     0.15028   0.16667   0.68388   0.00000  Uiso   1.00
Zn675  Zn    0.11562   0.16667   0.75000   0.00000  Uiso   1.00
Zn676  Zn    0.21771   0.16666   0.75000   0.00000  Uiso   1.00
O677   O     0.15179   0.19718   0.60183   0.00000  Uiso   1.00
H678   H     0.14530   0.20785   0.57427   0.00000  Uiso   1.00
O679   O     0.19874   0.15356   0.88900   0.00000  Uiso   1.00
H680   H     0.21399   0.16484   0.91047   0.00000  Uiso   1.00
H681   H     0.27813   0.12198   0.61135   0.00000  Uiso   1.00
H682   H     0.04344   0.17604   0.89771   0.00000  Uiso   1.00
O683   O     0.00145   0.17479   0.99093   0.00000  Uiso   1.00
H684   H     0.31781   0.18227   0.96938   0.00000  Uiso   1.00
O685   O     0.30301   0.08324   0.52831   0.00000  Uiso   1.00
H686   H     0.32336   0.08354   0.54789   0.00000  Uiso   1.00
O687   O     0.07866   0.14340   0.60792   0.00000  Uiso   1.00
H688   H     0.10005   0.12533   0.61843   0.00000  Uiso   1.00
O689   O     0.20836   0.07686   0.92229   0.00000  Uiso   1.00
H690   H     0.17683   0.07399   0.91804   0.00000  Uiso   1.00
O691   O     0.24569   0.29414   0.68122   0.00000  Uiso   1.00
H692   H     0.23642   0.26579   0.67462   0.00000  Uiso   1.00
O693   O     0.08774   0.03923   0.81877   0.00000  Uiso   1.00
H694   H     0.09708   0.06754   0.82544   0.00000  Uiso   1.00
H695   H     0.23619   0.04000   0.69523   0.00000  Uiso   1.00
H696   H     0.09713   0.29338   0.80464   0.00000  Uiso   1.00
H697   H     0.30875   0.11428   0.70448   0.00000  Uiso   1.00
H698   H     0.02456   0.21897   0.79562   0.00000  Uiso   1.00
H699   H     0.05948   0.11399   0.70500   0.00000  Uiso   1.00
H700   H     0.27360   0.21890   0.79569   0.00000  Uiso   1.00
C701   C     0.50036   0.24659   0.74870   0.00000  Uiso   1.00
C702   C     0.49965   0.08675   0.75125   0.00000  Uiso   1.00
C703   C     0.43077   0.14483   0.55953   0.00000  Uiso   1.00
C704   C     0.53412   0.09902   0.96311   0.00000  Uiso   1.00
C705   C     0.39813   0.15241   0.53700   0.00000  Uiso   1.00
C706   C     0.56751   0.09289   0.98513   0.00000  Uiso   1.00
C707   C     0.54009   0.31279   0.71606   0.00000  Uiso   1.00
C708   C     0.45996   0.02057   0.78388   0.00000  Uiso   1.00
C709   C     0.53958   0.02233   0.71953   0.00000  Uiso   1.00
C710   C     0.46043   0.31104   0.78036   0.00000  Uiso   1.00
C711   C     0.49972   0.04263   0.75244   0.00000  Uiso   1.00
C712   C     0.50031   0.29073   0.74748   0.00000  Uiso   1.00
C713   C     0.65242   0.13754   0.72474   0.00000  Uiso   1.00
C714   C     0.34755   0.19574   0.77534   0.00000  Uiso   1.00
C715   C     0.36698   0.13745   0.72491   0.00000  Uiso   1.00
C716   C     0.63292   0.19571   0.77536   0.00000  Uiso   1.00
C717   C     0.46979   0.16613   0.83842   0.00000  Uiso   1.00
C718   C     0.53017   0.16582   0.66175   0.00000  Uiso   1.00
C719   C     0.45078   0.16168   0.88982   0.00000  Uiso   1.00
C720   C     0.54743   0.15501   0.61193   0.00000  Uiso   1.00
C721   C     0.38274   0.16498   0.96488   0.00000  Uiso   1.00
C722   C     0.59598   0.10849   0.54903   0.00000  Uiso   1.00
C723   C     0.40103   0.16753   0.91565   0.00000  Uiso   1.00
C724   C     0.58764   0.12839   0.59232   0.00000  Uiso   1.00
C725   C     0.48241   0.15126   0.91315   0.00000  Uiso   1.00
C726   C     0.51655   0.16334   0.58767   0.00000  Uiso   1.00
C727   C     0.46306   0.14156   0.96142   0.00000  Uiso   1.00
C728   C     0.51863   0.13729   0.54982   0.00000  Uiso   1.00
C729   C     0.41420   0.15283   0.98789   0.00000  Uiso   1.00
C730   C     0.56117   0.11291   0.52772   0.00000  Uiso   1.00
C731   C     0.49264   0.12515   0.98484   0.00000  Uiso   1.00
C732   C     0.48052   0.13608   0.53218   0.00000  Uiso   1.00
H733   H     0.36055   0.15940   0.55823   0.00000  Uiso   1.00
H734   H     0.59883   0.07293   0.96821   0.00000  Uiso   1.00
N735   N     0.38093   0.16668   0.75001   0.00000  Uiso   1.00
N736   N     0.61907   0.16666   0.74999   0.00000  Uiso   1.00
O737   O     0.46179   0.22775   0.75000   0.00000  Uiso   1.00
O738   O     0.53821   0.10558   0.74999   0.00000  Uiso   1.00
O739   O     0.53823   0.22774   0.75000   0.00000  Uiso   1.00
O740   O     0.46177   0.10559   0.75000   0.00000  Uiso   1.00
O741   O     0.43994   0.16667   0.81612   0.00000  Uiso   1.00
O742   O     0.56006   0.16666   0.68387   0.00000  Uiso   1.00
O743   O     0.51639   0.16666   0.81612   0.00000  Uiso   1.00
O744   O     0.48361   0.16667   0.68388   0.00000  Uiso   1.00
Zn745  Zn    0.44896   0.16667   0.75000   0.00000  Uiso   1.00
Zn746  Zn    0.55104   0.16666   0.75000   0.00000  Uiso   1.00
O747   O     0.48512   0.19718   0.60183   0.00000  Uiso   1.00
H748   H     0.47863   0.20785   0.57427   0.00000  Uiso   1.00
O749   O     0.53207   0.15356   0.88900   0.00000  Uiso   1.00
H750   H     0.54732   0.16484   0.91047   0.00000  Uiso   1.00
H751   H     0.61146   0.12198   0.61135   0.00000  Uiso   1.00
H752   H     0.37678   0.17604   0.89771   0.00000  Uiso   1.00
O753   O     0.33478   0.17479   0.99093   0.00000  Uiso   1.00
H754   H     0.65114   0.18227   0.96938   0.00000  Uiso   1.00
O755   O     0.63634   0.08324   0.52831   0.00000  Uiso   1.00
H756   H     0.65670   0.08354   0.54789   0.00000  Uiso   1.00
O757   O     0.41199   0.14340   0.60792   0.00000  Uiso   1.00
H758   H     0.43339   0.12533   0.61843   0.00000  Uiso   1.00
O759   O     0.54169   0.07686   0.92229   0.00000  Uiso   1.00
H760   H     0.51017   0.07399   0.91804   0.00000  Uiso   1.00
O761   O     0.57902   0.29414   0.68122   0.00000  Uiso   1.00
H762   H     0.56976   0.26579   0.67462   0.00000  Uiso   1.00
O763   O     0.42107   0.03923   0.81877   0.00000  Uiso   1.00
H764   H     0.43041   0.06754   0.82544   0.00000  Uiso   1.00
H765   H     0.56952   0.04000   0.69523   0.00000  Uiso   1.00
H766   H     0.43047   0.29338   0.80464   0.00000  Uiso   1.00
H767   H     0.64208   0.11428   0.70448   0.00000  Uiso   1.00
H768   H     0.35790   0.21897   0.79562   0.00000  Uiso   1.00
H769   H     0.39281   0.11399   0.70500   0.00000  Uiso   1.00
H770   H     0.60693   0.21890   0.79569   0.00000  Uiso   1.00
C771   C     0.83370   0.24659   0.74870   0.00000  Uiso   1.00
C772   C     0.83299   0.08675   0.75125   0.00000  Uiso   1.00
C773   C     0.76410   0.14483   0.55953   0.00000  Uiso   1.00
C774   C     0.86746   0.09902   0.96311   0.00000  Uiso   1.00
C775   C     0.73146   0.15241   0.53700   0.00000  Uiso   1.00
C776   C     0.90084   0.09289   0.98513   0.00000  Uiso   1.00
C777   C     0.87342   0.31279   0.71606   0.00000  Uiso   1.00
C778   C     0.79329   0.02057   0.78388   0.00000  Uiso   1.00
C779   C     0.87291   0.02233   0.71953   0.00000  Uiso   1.00
C780   C     0.79377   0.31104   0.78036   0.00000  Uiso   1.00
C781   C     0.83305   0.04263   0.75244   0.00000  Uiso   1.00
C782   C     0.83365   0.29073   0.74748   0.00000  Uiso   1.00
C783   C     0.98576   0.13754   0.72474   0.00000  Uiso   1.00
C784   C     0.68088   0.19574   0.77534   0.00000  Uiso   1.00
C785   C     0.70031   0.13745   0.72491   0.00000  Uiso   1.00
C786   C     0.96625   0.19571   0.77536   0.00000  Uiso   1.00
C787   C     0.80313   0.16613   0.83842   0.00000  Uiso   1.00
C788   C     0.86351   0.16582   0.66175   0.00000  Uiso   1.00
C789   C     0.78411   0.16168   0.88982   0.00000  Uiso   1.00
C790   C     0.88077   0.15501   0.61193   0.00000  Uiso   1.00
C791   C     0.71607   0.16498   0.96488   0.00000  Uiso   1.00
C792   C     0.92932   0.10849   0.54903   0.00000  Uiso   1.00
C793   C     0.73437   0.16753   0.91565   0.00000  Uiso   1.00
C794   C     0.92097   0.12839   0.59232   0.00000  Uiso   1.00
C795   C     0.81574   0.15126   0.91315   0.00000  Uiso   1.00
C796   C     0.84988   0.16334   0.58767   0.00000  Uiso   1.00
C797   C     0.79640   0.14156   0.96142   0.00000  Uiso   1.00
C798   C     0.85196   0.13729   0.54982   0.00000  Uiso   1.00
C799   C     0.74753   0.15283   0.98789   0.00000  Uiso   1.00
C800   C     0.89450   0.11291   0.52772   0.00000  Uiso   1.00
C801   C     0.82597   0.12515   0.98484   0.00000  Uiso   1.00
C802   C     0.81385   0.13608   0.53218   0.00000  Uiso   1.00
H803   H     0.69389   0.15940   0.55823   0.00000  Uiso   1.00
H804   H     0.93216   0.07293   0.96821   0.00000  Uiso   1.00
N805   N     0.71426   0.16668   0.75001   0.00000  Uiso   1.00
N806   N     0.95241   0.16666   0.74999   0.00000  Uiso   1.00
O807   O     0.79512   0.22775   0.75000   0.00000  Uiso   1.00
O808   O     0.87154   0.10558   0.74999   0.00000  Uiso   1.00
O809   O     0.87157   0.22774   0.75000   0.00000  Uiso   1.00
O810   O     0.79510   0.10559   0.75000   0.00000  Uiso   1.00
O811   O     0.77328   0.16667   0.81612   0.00000  Uiso   1.00
O812   O     0.89339   0.16666   0.68387   0.00000  Uiso   1.00
O813   O     0.84972   0.16666   0.81612   0.00000  Uiso   1.00
O814   O     0.81695   0.16667   0.68388   0.00000  Uiso   1.00
Zn815  Zn    0.78229   0.16667   0.75000   0.00000  Uiso   1.00
Zn816  Zn    0.88438   0.16666   0.75000   0.00000  Uiso   1.00
O817   O     0.81846   0.19718   0.60183   0.00000  Uiso   1.00
H818   H     0.81197   0.20785   0.57427   0.00000  Uiso   1.00
O819   O     0.86540   0.15356   0.88900   0.00000  Uiso   1.00
H820   H     0.88065   0.16484   0.91047   0.00000  Uiso   1.00
H821   H     0.94480   0.12198   0.61135   0.00000  Uiso   1.00
H822   H     0.71011   0.17604   0.89771   0.00000  Uiso   1.00
O823   O     0.66812   0.17479   0.99093   0.00000  Uiso   1.00
H824   H     0.98448   0.18227   0.96938   0.00000  Uiso   1.00
O825   O     0.96968   0.08324   0.52831   0.00000  Uiso   1.00
H826   H     0.99003   0.08354   0.54789   0.00000  Uiso   1.00
O827   O     0.74533   0.14340   0.60792   0.00000  Uiso   1.00
H828   H     0.76672   0.12533   0.61843   0.00000  Uiso   1.00
O829   O     0.87502   0.07686   0.92229   0.00000  Uiso   1.00
H830   H     0.84350   0.07399   0.91804   0.00000  Uiso   1.00
O831   O     0.91235   0.29414   0.68122   0.00000  Uiso   1.00
H832   H     0.90309   0.26579   0.67462   0.00000  Uiso   1.00
O833   O     0.75440   0.03923   0.81877   0.00000  Uiso   1.00
H834   H     0.76374   0.06754   0.82544   0.00000  Uiso   1.00
H835   H     0.90286   0.04000   0.69523   0.00000  Uiso   1.00
H836   H     0.76380   0.29338   0.80464   0.00000  Uiso   1.00
H837   H     0.97541   0.11428   0.70448   0.00000  Uiso   1.00
H838   H     0.69123   0.21897   0.79562   0.00000  Uiso   1.00
H839   H     0.72615   0.11399   0.70500   0.00000  Uiso   1.00
H840   H     0.94026   0.21890   0.79569   0.00000  Uiso   1.00
C841   C     0.16703   0.57992   0.74870   0.00000  Uiso   1.00
C842   C     0.16632   0.42008   0.75125   0.00000  Uiso   1.00
C843   C     0.09744   0.47816   0.55953   0.00000  Uiso   1.00
C844   C     0.20079   0.43235   0.96311   0.00000  Uiso   1.00
C845   C     0.06479   0.48575   0.53700   0.00000  Uiso   1.00
C846   C     0.23417   0.42622   0.98513   0.00000  Uiso   1.00
C847   C     0.20675   0.64612   0.71606   0.00000  Uiso   1.00
C848   C     0.12662   0.35391   0.78388   0.00000  Uiso   1.00
C849   C     0.20625   0.35566   0.71953   0.00000  Uiso   1.00
C850   C     0.12710   0.64437   0.78036   0.00000  Uiso   1.00
C851   C     0.16638   0.37596   0.75244   0.00000  Uiso   1.00
C852   C     0.16698   0.62406   0.74748   0.00000  Uiso   1.00
C853   C     0.31909   0.47087   0.72474   0.00000  Uiso   1.00
C854   C     0.01422   0.52908   0.77534   0.00000  Uiso   1.00
C855   C     0.03364   0.47079   0.72491   0.00000  Uiso   1.00
C856   C     0.29959   0.52904   0.77536   0.00000  Uiso   1.00
C857   C     0.13646   0.49947   0.83842   0.00000  Uiso   1.00
C858   C     0.19684   0.49916   0.66175   0.00000  Uiso   1.00
C859   C     0.11744   0.49501   0.88982   0.00000  Uiso   1.00
C860   C     0.21410   0.48834   0.61193   0.00000  Uiso   1.00
C861   C     0.04941   0.49831   0.96488   0.00000  Uiso   1.00
C862   C     0.26265   0.44182   0.54903   0.00000  Uiso   1.00
C863   C     0.06770   0.50086   0.91565   0.00000  Uiso   1.00
C864   C     0.25431   0.46172   0.59232   0.00000  Uiso   1.00
C865   C     0.14907   0.48459   0.91315   0.00000  Uiso   1.00
C866   C     0.18322   0.49667   0.58767   0.00000  Uiso   1.00
C867   C     0.12973   0.47489   0.96142   0.00000  Uiso   1.00
C868   C     0.18529   0.47063   0.54982   0.00000  Uiso   1.00
C869   C     0.08086   0.48616   0.98789   0.00000  Uiso   1.00
C870   C     0.22784   0.44625   0.52772   0.00000  Uiso   1.00
C871   C     0.15930   0.45848   0.98484   0.00000  Uiso   1.00
C872   C     0.14718   0.46942   0.53218   0.00000  Uiso   1.00
H873   H     0.02722   0.49273   0.55823   0.00000  Uiso   1.00
H874   H     0.26550   0.40627   0.96821   0.00000  Uiso   1.00
N875   N     0.04759   0.50001   0.75001   0.00000  Uiso   1.00
N876   N     0.28574   0.49999   0.74999   0.00000  Uiso   1.00
O877   O     0.12846   0.56108   0.75000   0.00000  Uiso   1.00
O878   O     0.20488   0.43892   0.74999   0.00000  Uiso   1.00
O879   O     0.20490   0.56107   0.75000   0.00000  Uiso   1.00
O880   O     0.12843   0.43893   0.75000   0.00000  Uiso   1.00
O881   O     0.10661   0.50001   0.81612   0.00000  Uiso   1.00
O882   O     0.22672   0.49999   0.68387   0.00000  Uiso   1.00
O883   O     0.18305   0.50000   0.81612   0.00000  Uiso   1.00
O884   O     0.15028   0.50000   0.68388   0.00000  Uiso   1.00
Zn885  Zn    0.11562   0.50001   0.75000   0.00000  Uiso   1.00
Zn886  Zn    0.21771   0.49999   0.75000   0.00000  Uiso   1.00
O887   O     0.15179   0.53051   0.60183   0.00000  Uiso   1.00
H888   H     0.14530   0.54119   0.57427   0.00000  Uiso   1.00
O889   O     0.19874   0.48689   0.88900   0.00000  Uiso   1.00
H890   H     0.21399   0.49817   0.91047   0.00000  Uiso   1.00
H891   H     0.27813   0.45531   0.61135   0.00000  Uiso   1.00
H892   H     0.04344   0.50937   0.89771   0.00000  Uiso   1.00
O893   O     0.00145   0.50812   0.99093   0.00000  Uiso   1.00
H894   H     0.31781   0.51560   0.96938   0.00000  Uiso   1.00
O895   O     0.30301   0.41658   0.52831   0.00000  Uiso   1.00
H896   H     0.32336   0.41687   0.54789   0.00000  Uiso   1.00
O897   O     0.07866   0.47674   0.60792   0.00000  Uiso   1.00
H898   H     0.10005   0.45866   0.61843   0.00000  Uiso   1.00
O899   O     0.20836   0.41020   0.92229   0.00000  Uiso   1.00
H900   H     0.17683   0.40733   0.91804   0.00000  Uiso   1.00
O901   O     0.24569   0.62747   0.68122   0.00000  Uiso   1.00
H902   H     0.23642   0.59912   0.67462   0.00000  Uiso   1.00
O903   O     0.08774   0.37256   0.81877   0.00000  Uiso   1.00
H904   H     0.09708   0.40087   0.82544   0.00000  Uiso   1.00
H905   H     0.23619   0.37333   0.69523   0.00000  Uiso   1.00
H906   H     0.09713   0.62672   0.80464   0.00000  Uiso   1.00
H907   H     0.30875   0.44762   0.70448   0.00000  Uiso   1.00
H908   H     0.02456   0.55231   0.79562   0.00000  Uiso   1.00
H909   H     0.05948   0.44732   0.70500   0.00000  Uiso   1.00
H910   H     0.27360   0.55224   0.79569   0.00000  Uiso   1.00
C911   C     0.50036   0.57992   0.74870   0.00000  Uiso   1.00
C912   C     0.49965   0.42008   0.75125   0.00000  Uiso   1.00
C913   C     0.43077   0.47816   0.55953   0.00000  Uiso   1.00
C914   C     0.53412   0.43235   0.96311   0.00000  Uiso   1.00
C915   C     0.39813   0.48575   0.53700   0.00000  Uiso   1.00
C916   C     0.56751   0.42622   0.98513   0.00000  Uiso   1.00
C917   C     0.54009   0.64612   0.71606   0.00000  Uiso   1.00
C918   C     0.45996   0.35391   0.78388   0.00000  Uiso   1.00
C919   C     0.53958   0.35566   0.71953   0.00000  Uiso   1.00
C920   C     0.46043   0.64437   0.78036   0.00000  Uiso   1.00
C921   C     0.49972   0.37596   0.75244   0.00000  Uiso   1.00
C922   C     0.50031   0.62406   0.74748   0.00000  Uiso   1.00
C923   C     0.65242   0.47087   0.72474   0.00000  Uiso   1.00
C924   C     0.34755   0.52908   0.77534   0.00000  Uiso   1.00
C925   C     0.36698   0.47079   0.72491   0.00000  Uiso   1.00
C926   C     0.63292   0.52904   0.77536   0.00000  Uiso   1.00
C927   C     0.46979   0.49947   0.83842   0.00000  Uiso   1.00
C928   C     0.53017   0.49916   0.66175   0.00000  Uiso   1.00
C929   C     0.45078   0.49501   0.88982   0.00000  Uiso   1.00
C930   C     0.54743   0.48834   0.61193   0.00000  Uiso   1.00
C931   C     0.38274   0.49831   0.96488   0.00000  Uiso   1.00
C932   C     0.59598   0.44182   0.54903   0.00000  Uiso   1.00
C933   C     0.40103   0.50086   0.91565   0.00000  Uiso   1.00
C934   C     0.58764   0.46172   0.59232   0.00000  Uiso   1.00
C935   C     0.48241   0.48459   0.91315   0.00000  Uiso   1.00
C936   C     0.51655   0.49667   0.58767   0.00000  Uiso   1.00
C937   C     0.46306   0.47489   0.96142   0.00000  Uiso   1.00
C938   C     0.51863   0.47063   0.54982   0.00000  Uiso   1.00
C939   C     0.41420   0.48616   0.98789   0.00000  Uiso   1.00
C940   C     0.56117   0.44625   0.52772   0.00000  Uiso   1.00
C941   C     0.49264   0.45848   0.98484   0.00000  Uiso   1.00
C942   C     0.48052   0.46942   0.53218   0.00000  Uiso   1.00
H943   H     0.36055   0.49273   0.55823   0.00000  Uiso   1.00
H944   H     0.59883   0.40627   0.96821   0.00000  Uiso   1.00
N945   N     0.38093   0.50001   0.75001   0.00000  Uiso   1.00
N946   N     0.61907   0.49999   0.74999   0.00000  Uiso   1.00
O947   O     0.46179   0.56108   0.75000   0.00000  Uiso   1.00
O948   O     0.53821   0.43892   0.74999   0.00000  Uiso   1.00
O949   O     0.53823   0.56107   0.75000   0.00000  Uiso   1.00
O950   O     0.46177   0.43893   0.75000   0.00000  Uiso   1.00
O951   O     0.43994   0.50001   0.81612   0.00000  Uiso   1.00
O952   O     0.56006   0.49999   0.68387   0.00000  Uiso   1.00
O953   O     0.51639   0.50000   0.81612   0.00000  Uiso   1.00
O954   O     0.48361   0.50000   0.68388   0.00000  Uiso   1.00
Zn955  Zn    0.44896   0.50001   0.75000   0.00000  Uiso   1.00
Zn956  Zn    0.55104   0.49999   0.75000   0.00000  Uiso   1.00
O957   O     0.48512   0.53051   0.60183   0.00000  Uiso   1.00
H958   H     0.47863   0.54119   0.57427   0.00000  Uiso   1.00
O959   O     0.53207   0.48689   0.88900   0.00000  Uiso   1.00
H960   H     0.54732   0.49817   0.91047   0.00000  Uiso   1.00
H961   H     0.61146   0.45531   0.61135   0.00000  Uiso   1.00
H962   H     0.37678   0.50937   0.89771   0.00000  Uiso   1.00
O963   O     0.33478   0.50812   0.99093   0.00000  Uiso   1.00
H964   H     0.65114   0.51560   0.96938   0.00000  Uiso   1.00
O965   O     0.63634   0.41658   0.52831   0.00000  Uiso   1.00
H966   H     0.65670   0.41687   0.54789   0.00000  Uiso   1.00
O967   O     0.41199   0.47674   0.60792   0.00000  Uiso   1.00
H968   H     0.43339   0.45866   0.61843   0.00000  Uiso   1.00
O969   O     0.54169   0.41020   0.92229   0.00000  Uiso   1.00
H970   H     0.51017   0.40733   0.91804   0.00000  Uiso   1.00
O971   O     0.57902   0.62747   0.68122   0.00000  Uiso   1.00
H972   H     0.56976   0.59912   0.67462   0.00000  Uiso   1.00
O973   O     0.42107   0.37256   0.81877   0.00000  Uiso   1.00
H974   H     0.43041   0.40087   0.82544   0.00000  Uiso   1.00
H975   H     0.56952   0.37333   0.69523   0.00000  Uiso   1.00
H976   H     0.43047   0.62672   0.80464   0.00000  Uiso   1.00
H977   H     0.64208   0.44762   0.70448   0.00000  Uiso   1.00
H978   H     0.35790   0.55231   0.79562   0.00000  Uiso   1.00
H979   H     0.39281   0.44732   0.70500   0.00000  Uiso   1.00
H980   H     0.60693   0.55224   0.79569   0.00000  Uiso   1.00
C981   C     0.83370   0.57992   0.74870   0.00000  Uiso   1.00
C982   C     0.83299   0.42008   0.75125   0.00000  Uiso   1.00
C983   C     0.76410   0.47816   0.55953   0.00000  Uiso   1.00
C984   C     0.86746   0.43235   0.96311   0.00000  Uiso   1.00
C985   C     0.73146   0.48575   0.53700   0.00000  Uiso   1.00
C986   C     0.90084   0.42622   0.98513   0.00000  Uiso   1.00
C987   C     0.87342   0.64612   0.71606   0.00000  Uiso   1.00
C988   C     0.79329   0.35391   0.78388   0.00000  Uiso   1.00
C989   C     0.87291   0.35566   0.71953   0.00000  Uiso   1.00
C990   C     0.79377   0.64437   0.78036   0.00000  Uiso   1.00
C991   C     0.83305   0.37596   0.75244   0.00000  Uiso   1.00
C992   C     0.83365   0.62406   0.74748   0.00000  Uiso   1.00
C993   C     0.98576   0.47087   0.72474   0.00000  Uiso   1.00
C994   C     0.68088   0.52908   0.77534   0.00000  Uiso   1.00
C995   C     0.70031   0.47079   0.72491   0.00000  Uiso   1.00
C996   C     0.96625   0.52904   0.77536   0.00000  Uiso   1.00
C997   C     0.80313   0.49947   0.83842   0.00000  Uiso   1.00
C998   C     0.86351   0.49916   0.66175   0.00000  Uiso   1.00
C999   C     0.78411   0.49501   0.88982   0.00000  Uiso   1.00
C1000  C     0.88077   0.48834   0.61193   0.00000  Uiso   1.00
C1001  C     0.71607   0.49831   0.96488   0.00000  Uiso   1.00
C1002  C     0.92932   0.44182   0.54903   0.00000  Uiso   1.00
C1003  C     0.73437   0.50086   0.91565   0.00000  Uiso   1.00
C1004  C     0.92097   0.46172   0.59232   0.00000  Uiso   1.00
C1005  C     0.81574   0.48459   0.91315   0.00000  Uiso   1.00
C1006  C     0.84988   0.49667   0.58767   0.00000  Uiso   1.00
C1007  C     0.79640   0.47489   0.96142   0.00000  Uiso   1.00
C1008  C     0.85196   0.47063   0.54982   0.00000  Uiso   1.00
C1009  C     0.74753   0.48616   0.98789   0.00000  Uiso   1.00
C1010  C     0.89450   0.44625   0.52772   0.00000  Uiso   1.00
C1011  C     0.82597   0.45848   0.98484   0.00000  Uiso   1.00
C1012  C     0.81385   0.46942   0.53218   0.00000  Uiso   1.00
H1013  H     0.69389   0.49273   0.55823   0.00000  Uiso   1.00
H1014  H     0.93216   0.40627   0.96821   0.00000  Uiso   1.00
N1015  N     0.71426   0.50001   0.75001   0.00000  Uiso   1.00
N1016  N     0.95241   0.49999   0.74999   0.00000  Uiso   1.00
O1017  O     0.79512   0.56108   0.75000   0.00000  Uiso   1.00
O1018  O     0.87154   0.43892   0.74999   0.00000  Uiso   1.00
O1019  O     0.87157   0.56107   0.75000   0.00000  Uiso   1.00
O1020  O     0.79510   0.43893   0.75000   0.00000  Uiso   1.00
O1021  O     0.77328   0.50001   0.81612   0.00000  Uiso   1.00
O1022  O     0.89339   0.49999   0.68387   0.00000  Uiso   1.00
O1023  O     0.84972   0.50000   0.81612   0.00000  Uiso   1.00
O1024  O     0.81695   0.50000   0.68388   0.00000  Uiso   1.00
Zn1025 Zn    0.78229   0.50001   0.75000   0.00000  Uiso   1.00
Zn1026 Zn    0.88438   0.49999   0.75000   0.00000  Uiso   1.00
O1027  O     0.81846   0.53051   0.60183   0.00000  Uiso   1.00
H1028  H     0.81197   0.54119   0.57427   0.00000  Uiso   1.00
O1029  O     0.86540   0.48689   0.88900   0.00000  Uiso   1.00
H1030  H     0.88065   0.49817   0.91047   0.00000  Uiso   1.00
H1031  H     0.94480   0.45531   0.61135   0.00000  Uiso   1.00
H1032  H     0.71011   0.50937   0.89771   0.00000  Uiso   1.00
O1033  O     0.66812   0.50812   0.99093   0.00000  Uiso   1.00
H1034  H     0.98448   0.51560   0.96938   0.00000  Uiso   1.00
O1035  O     0.96968   0.41658   0.52831   0.00000  Uiso   1.00
H1036  H     0.99003   0.41687   0.54789   0.00000  Uiso   1.00
O1037  O     0.74533   0.47674   0.60792   0.00000  Uiso   1.00
H1038  H     0.76672   0.45866   0.61843   0.00000  Uiso   1.00
O1039  O     0.87502   0.41020   0.92229   0.00000  Uiso   1.00
H1040  H     0.84350   0.40733   0.91804   0.00000  Uiso   1.00
O1041  O     0.91235   0.62747   0.68122   0.00000  Uiso   1.00
H1042  H     0.90309   0.59912   0.67462   0.00000  Uiso   1.00
O1043  O     0.75440   0.37256   0.81877   0.00000  Uiso   1.00
H1044  H     0.76374   0.40087   0.82544   0.00000  Uiso   1.00
H1045  H     0.90286   0.37333   0.69523   0.00000  Uiso   1.00
H1046  H     0.76380   0.62672   0.80464   0.00000  Uiso   1.00
H1047  H     0.97541   0.44762   0.70448   0.00000  Uiso   1.00
H1048  H     0.69123   0.55231   0.79562   0.00000  Uiso   1.00
H1049  H     0.72615   0.44732   0.70500   0.00000  Uiso   1.00
H1050  H     0.94026   0.55224   0.79569   0.00000  Uiso   1.00
C1051  C     0.16703   0.91326   0.74870   0.00000  Uiso   1.00
C1052  C     0.16632   0.75341   0.75125   0.00000  Uiso   1.00
C1053  C     0.09744   0.81149   0.55953   0.00000  Uiso   1.00
C1054  C     0.20079   0.76568   0.96311   0.00000  Uiso   1.00
C1055  C     0.06479   0.81908   0.53700   0.00000  Uiso   1.00
C1056  C     0.23417   0.75956   0.98513   0.00000  Uiso   1.00
C1057  C     0.20675   0.97946   0.71606   0.00000  Uiso   1.00
C1058  C     0.12662   0.68724   0.78388   0.00000  Uiso   1.00
C1059  C     0.20625   0.68900   0.71953   0.00000  Uiso   1.00
C1060  C     0.12710   0.97771   0.78036   0.00000  Uiso   1.00
C1061  C     0.16638   0.70930   0.75244   0.00000  Uiso   1.00
C1062  C     0.16698   0.95739   0.74748   0.00000  Uiso   1.00
C1063  C     0.31909   0.80421   0.72474   0.00000  Uiso   1.00
C1064  C     0.01422   0.86241   0.77534   0.00000  Uiso   1.00
C1065  C     0.03364   0.80412   0.72491   0.00000  Uiso   1.00
C1066  C     0.29959   0.86237   0.77536   0.00000  Uiso   1.00
C1067  C     0.13646   0.83280   0.83842   0.00000  Uiso   1.00
C1068  C     0.19684   0.83249   0.66175   0.00000  Uiso   1.00
C1069  C     0.11744   0.82835   0.88982   0.00000  Uiso   1.00
C1070  C     0.21410   0.82168   0.61193   0.00000  Uiso   1.00
C1071  C     0.04941   0.83165   0.96488   0.00000  Uiso   1.00
C1072  C     0.26265   0.77515   0.54903   0.00000  Uiso   1.00
C1073  C     0.06770   0.83419   0.91565   0.00000  Uiso   1.00
C1074  C     0.25431   0.79505   0.59232   0.00000  Uiso   1.00
C1075  C     0.14907   0.81792   0.91315   0.00000  Uiso   1.00
C1076  C     0.18322   0.83001   0.58767   0.00000  Uiso   1.00
C1077  C     0.12973   0.80822   0.96142   0.00000  Uiso   1.00
C1078  C     0.18529   0.80396   0.54982   0.00000  Uiso   1.00
C1079  C     0.08086   0.81949   0.98789   0.00000  Uiso   1.00
C1080  C     0.22784   0.77958   0.52772   0.00000  Uiso   1.00
C1081  C     0.15930   0.79181   0.98484   0.00000  Uiso   1.00
C1082  C     0.14718   0.80275   0.53218   0.00000  Uiso   1.00
H1083  H     0.02722   0.82607   0.55823   0.00000  Uiso   1.00
H1084  H     0.26550   0.73960   0.96821   0.00000  Uiso   1.00
N1085  N     0.04759   0.83334   0.75001   0.00000  Uiso   1.00
N1086  N     0.28574   0.83332   0.74999   0.00000  Uiso   1.00
O1087  O     0.12846   0.89442   0.75000   0.00000  Uiso   1.00
O1088  O     0.20488   0.77225   0.74999   0.00000  Uiso   1.00
O1089  O     0.20490   0.89441   0.75000   0.00000  Uiso   1.00
O1090  O     0.12843   0.77226   0.75000   0.00000  Uiso   1.00
O1091  O     0.10661   0.83334   0.81612   0.00000  Uiso   1.00
O1092  O     0.22672   0.83333   0.68387   0.00000  Uiso   1.00
O1093  O     0.18305   0.83333   0.81612   0.00000  Uiso   1.00
O1094  O     0.15028   0.83334   0.68388   0.00000  Uiso   1.00
Zn1095 Zn    0.11562   0.83334   0.75000   0.00000  Uiso   1.00
Zn1096 Zn    0.21771   0.83333   0.75000   0.00000  Uiso   1.00
O1097  O     0.15179   0.86385   0.60183   0.00000  Uiso   1.00
H1098  H     0.14530   0.87452   0.57427   0.00000  Uiso   1.00
O1099  O     0.19874   0.82023   0.88900   0.00000  Uiso   1.00
H1100  H     0.21399   0.83150   0.91047   0.00000  Uiso   1.00
H1101  H     0.27813   0.78864   0.61135   0.00000  Uiso   1.00
H1102  H     0.04344   0.84270   0.89771   0.00000  Uiso   1.00
O1103  O     0.00145   0.84146   0.99093   0.00000  Uiso   1.00
H1104  H     0.31781   0.84894   0.96938   0.00000  Uiso   1.00
O1105  O     0.30301   0.74991   0.52831   0.00000  Uiso   1.00
H1106  H     0.32336   0.75021   0.54789   0.00000  Uiso   1.00
O1107  O     0.07866   0.81007   0.60792   0.00000  Uiso   1.00
H1108  H     0.10005   0.79199   0.61843   0.00000  Uiso   1.00
O1109  O     0.20836   0.74353   0.92229   0.00000  Uiso   1.00
H1110  H     0.17683   0.74066   0.91804   0.00000  Uiso   1.00
O1111  O     0.24569   0.96081   0.68122   0.00000  Uiso   1.00
H1112  H     0.23642   0.93245   0.67462   0.00000  Uiso   1.00
O1113  O     0.08774   0.70590   0.81877   0.00000  Uiso   1.00
H1114  H     0.09708   0.73420   0.82544   0.00000  Uiso   1.00
H1115  H     0.23619   0.70666   0.69523   0.00000  Uiso   1.00
H1116  H     0.09713   0.96005   0.80464   0.00000  Uiso   1.00
H1117  H     0.30875   0.78095   0.70448   0.00000  Uiso   1.00
H1118  H     0.02456   0.88564   0.79562   0.00000  Uiso   1.00
H1119  H     0.05948   0.78066   0.70500   0.00000  Uiso   1.00
H1120  H     0.27360   0.88557   0.79569   0.00000  Uiso   1.00
C1121  C     0.50036   0.91326   0.74870   0.00000  Uiso   1.00
C1122  C     0.49965   0.75341   0.75125   0.00000  Uiso   1.00
C1123  C     0.43077   0.81149   0.55953   0.00000  Uiso   1.00
C1124  C     0.53412   0.76568   0.96311   0.00000  Uiso   1.00
C1125  C     0.39813   0.81908   0.53700   0.00000  Uiso   1.00
C1126  C     0.56751   0.75956   0.98513   0.00000  Uiso   1.00
C1127  C     0.54009   0.97946   0.71606   0.00000  Uiso   1.00
C1128  C     0.45996   0.68724   0.78388   0.00000  Uiso   1.00
C1129  C     0.53958   0.68900   0.71953   0.00000  Uiso   1.00
C1130  C     0.46043   0.97771   0.78036   0.00000  Uiso   1.00
C1131  C     0.49972   0.70930   0.75244   0.00000  Uiso   1.00
C1132  C     0.50031   0.95739   0.74748   0.00000  Uiso   1.00
C1133  C     0.65242   0.80421   0.72474   0.00000  Uiso   1.00
C1134  C     0.34755   0.86241   0.77534   0.00000  Uiso   1.00
C1135  C     0.36698   0.80412   0.72491   0.00000  Uiso   1.00
C1136  C     0.63292   0.86237   0.77536   0.00000  Uiso   1.00
C1137  C     0.46979   0.83280   0.83842   0.00000  Uiso   1.00
C1138  C     0.53017   0.83249   0.66175   0.00000  Uiso   1.00
C1139  C     0.45078   0.82835   0.88982   0.00000  Uiso   1.00
C1140  C     0.54743   0.82168   0.61193   0.00000  Uiso   1.00
C1141  C     0.38274   0.83165   0.96488   0.00000  Uiso   1.00
C1142  C     0.59598   0.77515   0.54903   0.00000  Uiso   1.00
C1143  C     0.40103   0.83419   0.91565   0.00000  Uiso   1.00
C1144  C     0.58764   0.79505   0.59232   0.00000  Uiso   1.00
C1145  C     0.48241   0.81792   0.91315   0.00000  Uiso   1.00
C1146  C     0.51655   0.83001   0.58767   0.00000  Uiso   1.00
C1147  C     0.46306   0.80822   0.96142   0.00000  Uiso   1.00
C1148  C     0.51863   0.80396   0.54982   0.00000  Uiso   1.00
C1149  C     0.41420   0.81949   0.98789   0.00000  Uiso   1.00
C1150  C     0.56117   0.77958   0.52772   0.00000  Uiso   1.00
C1151  C     0.49264   0.79181   0.98484   0.00000  Uiso   1.00
C1152  C     0.48052   0.80275   0.53218   0.00000  Uiso   1.00
H1153  H     0.36055   0.82607   0.55823   0.00000  Uiso   1.00
H1154  H     0.59883   0.73960   0.96821   0.00000  Uiso   1.00
N1155  N     0.38093   0.83334   0.75001   0.00000  Uiso   1.00
N1156  N     0.61907   0.83332   0.74999   0.00000  Uiso   1.00
O1157  O     0.46179   0.89442   0.75000   0.00000  Uiso   1.00
O1158  O     0.53821   0.77225   0.74999   0.00000  Uiso   1.00
O1159  O     0.53823   0.89441   0.75000   0.00000  Uiso   1.00
O1160  O     0.46177   0.77226   0.75000   0.00000  Uiso   1.00
O1161  O     0.43994   0.83334   0.81612   0.00000  Uiso   1.00
O1162  O     0.56006   0.83333   0.68387   0.00000  Uiso   1.00
O1163  O     0.51639   0.83333   0.81612   0.00000  Uiso   1.00
O1164  O     0.48361   0.83334   0.68388   0.00000  Uiso   1.00
Zn1165 Zn    0.44896   0.83334   0.75000   0.00000  Uiso   1.00
Zn1166 Zn    0.55104   0.83333   0.75000   0.00000  Uiso   1.00
O1167  O     0.48512   0.86385   0.60183   0.00000  Uiso   1.00
H1168  H     0.47863   0.87452   0.57427   0.00000  Uiso   1.00
O1169  O     0.53207   0.82023   0.88900   0.00000  Uiso   1.00
H1170  H     0.54732   0.83150   0.91047   0.00000  Uiso   1.00
H1171  H     0.61146   0.78864   0.61135   0.00000  Uiso   1.00
H1172  H     0.37678   0.84270   0.89771   0.00000  Uiso   1.00
O1173  O     0.33478   0.84146   0.99093   0.00000  Uiso   1.00
H1174  H     0.65114   0.84894   0.96938   0.00000  Uiso   1.00
O1175  O     0.63634   0.74991   0.52831   0.00000  Uiso   1.00
H1176  H     0.65670   0.75021   0.54789   0.00000  Uiso   1.00
O1177  O     0.41199   0.81007   0.60792   0.00000  Uiso   1.00
H1178  H     0.43339   0.79199   0.61843   0.00000  Uiso   1.00
O1179  O     0.54169   0.74353   0.92229   0.00000  Uiso   1.00
H1180  H     0.51017   0.74066   0.91804   0.00000  Uiso   1.00
O1181  O     0.57902   0.96081   0.68122   0.00000  Uiso   1.00
H1182  H     0.56976   0.93245   0.67462   0.00000  Uiso   1.00
O1183  O     0.42107   0.70590   0.81877   0.00000  Uiso   1.00
H1184  H     0.43041   0.73420   0.82544   0.00000  Uiso   1.00
H1185  H     0.56952   0.70666   0.69523   0.00000  Uiso   1.00
H1186  H     0.43047   0.96005   0.80464   0.00000  Uiso   1.00
H1187  H     0.64208   0.78095   0.70448   0.00000  Uiso   1.00
H1188  H     0.35790   0.88564   0.79562   0.00000  Uiso   1.00
H1189  H     0.39281   0.78066   0.70500   0.00000  Uiso   1.00
H1190  H     0.60693   0.88557   0.79569   0.00000  Uiso   1.00
C1191  C     0.83370   0.91326   0.74870   0.00000  Uiso   1.00
C1192  C     0.83299   0.75341   0.75125   0.00000  Uiso   1.00
C1193  C     0.76410   0.81149   0.55953   0.00000  Uiso   1.00
C1194  C     0.86746   0.76568   0.96311   0.00000  Uiso   1.00
C1195  C     0.73146   0.81908   0.53700   0.00000  Uiso   1.00
C1196  C     0.90084   0.75956   0.98513   0.00000  Uiso   1.00
C1197  C     0.87342   0.97946   0.71606   0.00000  Uiso   1.00
C1198  C     0.79329   0.68724   0.78388   0.00000  Uiso   1.00
C1199  C     0.87291   0.68900   0.71953   0.00000  Uiso   1.00
C1200  C     0.79377   0.97771   0.78036   0.00000  Uiso   1.00
C1201  C     0.83305   0.70930   0.75244   0.00000  Uiso   1.00
C1202  C     0.83365   0.95739   0.74748   0.00000  Uiso   1.00
C1203  C     0.98576   0.80421   0.72474   0.00000  Uiso   1.00
C1204  C     0.68088   0.86241   0.77534   0.00000  Uiso   1.00
C1205  C     0.70031   0.80412   0.72491   0.00000  Uiso   1.00
C1206  C     0.96625   0.86237   0.77536   0.00000  Uiso   1.00
C1207  C     0.80313   0.83280   0.83842   0.00000  Uiso   1.00
C1208  C     0.86351   0.83249   0.66175   0.00000  Uiso   1.00
C1209  C     0.78411   0.82835   0.88982   0.00000  Uiso   1.00
C1210  C     0.88077   0.82168   0.61193   0.00000  Uiso   1.00
C1211  C     0.71607   0.83165   0.96488   0.00000  Uiso   1.00
C1212  C     0.92932   0.77515   0.54903   0.00000  Uiso   1.00
C1213  C     0.73437   0.83419   0.91565   0.00000  Uiso   1.00
C1214  C     0.92097   0.79505   0.59232   0.00000  Uiso   1.00
C1215  C     0.81574   0.81792   0.91315   0.00000  Uiso   1.00
C1216  C     0.84988   0.83001   0.58767   0.00000  Uiso   1.00
C1217  C     0.79640   0.80822   0.96142   0.00000  Uiso   1.00
C1218  C     0.85196   0.80396   0.54982   0.00000  Uiso   1.00
C1219  C     0.74753   0.81949   0.98789   0.00000  Uiso   1.00
C1220  C     0.89450   0.77958   0.52772   0.00000  Uiso   1.00
C1221  C     0.82597   0.79181   0.98484   0.00000  Uiso   1.00
C1222  C     0.81385   0.80275   0.53218   0.00000  Uiso   1.00
H1223  H     0.69389   0.82607   0.55823   0.00000  Uiso   1.00
H1224  H     0.93216   0.73960   0.96821   0.00000  Uiso   1.00
N1225  N     0.71426   0.83334   0.75001   0.00000  Uiso   1.00
N1226  N     0.95241   0.83332   0.74999   0.00000  Uiso   1.00
O1227  O     0.79512   0.89442   0.75000   0.00000  Uiso   1.00
O1228  O     0.87154   0.77225   0.74999   0.00000  Uiso   1.00
O1229  O     0.87157   0.89441   0.75000   0.00000  Uiso   1.00
O1230  O     0.79510   0.77226   0.75000   0.00000  Uiso   1.00
O1231  O     0.77328   0.83334   0.81612   0.00000  Uiso   1.00
O1232  O     0.89339   0.83333   0.68387   0.00000  Uiso   1.00
O1233  O     0.84972   0.83333   0.81612   0.00000  Uiso   1.00
O1234  O     0.81695   0.83334   0.68388   0.00000  Uiso   1.00
Zn1235 Zn    0.78229   0.83334   0.75000   0.00000  Uiso   1.00
Zn1236 Zn    0.88438   0.83333   0.75000   0.00000  Uiso   1.00
O1237  O     0.81846   0.86385   0.60183   0.00000  Uiso   1.00
H1238  H     0.81197   0.87452   0.57427   0.00000  Uiso   1.00
O1239  O     0.86540   0.82023   0.88900   0.00000  Uiso   1.00
H1240  H     0.88065   0.83150   0.91047   0.00000  Uiso   1.00
H1241  H     0.94480   0.78864   0.61135   0.00000  Uiso   1.00
H1242  H     0.71011   0.84270   0.89771   0.00000  Uiso   1.00
O1243  O     0.66812   0.84146   0.99093   0.00000  Uiso   1.00
H1244  H     0.98448   0.84894   0.96938   0.00000  Uiso   1.00
O1245  O     0.96968   0.74991   0.52831   0.00000  Uiso   1.00
H1246  H     0.99003   0.75021   0.54789   0.00000  Uiso   1.00
O1247  O     0.74533   0.81007   0.60792   0.00000  Uiso   1.00
H1248  H     0.76672   0.79199   0.61843   0.00000  Uiso   1.00
O1249  O     0.87502   0.74353   0.92229   0.00000  Uiso   1.00
H1250  H     0.84350   0.74066   0.91804   0.00000  Uiso   1.00
O1251  O     0.91235   0.96081   0.68122   0.00000  Uiso   1.00
H1252  H     0.90309   0.93245   0.67462   0.00000  Uiso   1.00
O1253  O     0.75440   0.70590   0.81877   0.00000  Uiso   1.00
H1254  H     0.76374   0.73420   0.82544   0.00000  Uiso   1.00
H1255  H     0.90286   0.70666   0.69523   0.00000  Uiso   1.00
H1256  H     0.76380   0.96005   0.80464   0.00000  Uiso   1.00
H1257  H     0.97541   0.78095   0.70448   0.00000  Uiso   1.00
H1258  H     0.69123   0.88564   0.79562   0.00000  Uiso   1.00
H1259  H     0.72615   0.78066   0.70500   0.00000  Uiso   1.00
H1260  H     0.94026   0.88557   0.79569   0.00000  Uiso   1.00
loop_
_geom_bond_atom_site_label_1
_geom_bond_atom_site_label_2
_geom_bond_distance
_geom_bond_site_symmetry_2
_ccdc_geom_bond_type
C1     O37     1.279   .     A
C1     C12     1.410   .     S
C1     O39     1.281   .     A
C2     O38     1.279   .     A
C2     C11     1.410   .     S
C2     O40     1.281   .     A
C3     C5      1.395   .     A
C3     C32     1.426   .     A
C3     O57     1.379   .     S
C4     O59     1.380   .     S
C4     C31     1.426   .     A
C4     C6      1.396   .     A
C5     H33     1.083   .     S
C5     C659    1.401   1_554 S
C6     H34     1.084   .     S
C6     C660    1.401   .     S
C7     C12     1.409   .     A
C7     O61     1.382   .     S
C7     C219    1.373   .     S
C8     C11     1.408   .     A
C8     O63     1.382   .     S
C8     C430    1.373   1_545 S
C9     C11     1.395   .     A
C9     H65     1.085   .     S
C9     C427    1.373   1_545 S
C10    C12     1.395   .     A
C10    H66     1.085   .     S
C10    C218    1.373   .     S
C13    N36     1.366   .     A
C13    H67     1.082   .     S
C13    C85     1.416   .     S
C14    N35     1.366   .     A
C14    H68     1.082   .     S
C14    C156    1.416   1_455 S
C15    H69     1.081   .     S
C15    N35     1.366   .     A
C15    C153    1.416   1_455 S
C16    N36     1.367   .     A
C16    H70     1.082   .     S
C16    C84     1.416   .     S
C17    O43     1.293   .     A
C17    O41     1.297   .     A
C17    C19     1.471   .     S
C18    O44     1.292   .     A
C18    C20     1.461   .     S
C18    O42     1.294   .     A
C19    C23     1.402   .     A
C19    C25     1.406   .     A
C20    C26     1.395   .     A
C20    C24     1.401   .     A
C21    C29     1.409   .     A
C21    O53     1.382   .     S
C21    C23     1.404   .     A
C22    O55     1.382   .     S
C22    C24     1.407   .     A
C22    C30     1.411   .     A
C23    H52     1.083   .     S
C24    H51     1.084   .     S
C25    C27     1.410   .     A
C25    O49     1.383   .     S
C26    C28     1.409   .     A
C26    O47     1.383   .     S
C27    C29     1.417   .     A
C27    C31     1.416   .     A
C28    C32     1.416   .     A
C28    C30     1.418   .     A
C29    C635    1.401   .     S
C30    C636    1.401   1_554 S
C31    C662    1.403   .     S
C32    C661    1.403   1_554 S
N35    Zn45    2.009   .     S
N36    Zn46    2.009   .     S
O37    Zn45    1.990   .     S
O38    Zn46    1.990   .     S
O39    Zn46    1.986   .     S
O40    Zn45    1.986   .     S
O41    Zn45    1.942   .     S
O42    Zn46    1.942   .     S
O43    Zn46    1.904   .     S
O44    Zn45    1.904   .     S
O47    H48     0.991   .     S
O49    H50     0.991   .     S
O53    H194    0.992   1_455 S
H54    O123    0.992   .     S
O55    H56     0.992   .     S
O57    H58     0.990   .     S
O59    H60     0.991   .     S
O61    H62     0.989   .     S
O63    H64     0.990   .     S
C71    O107    1.279   .     A
C71    C82     1.410   .     S
C71    O109    1.281   .     A
C72    O108    1.279   .     A
C72    C81     1.410   .     S
C72    O110    1.281   .     A
C73    C75     1.395   .     A
C73    C102    1.426   .     A
C73    O127    1.379   .     S
C74    O129    1.380   .     S
C74    C101    1.426   .     A
C74    C76     1.396   .     A
C75    H103    1.083   .     S
C75    C729    1.401   1_554 S
C76    H104    1.084   .     S
C76    C730    1.401   .     S
C77    C82     1.409   .     A
C77    O131    1.382   .     S
C77    C289    1.373   .     S
C78    C81     1.408   .     A
C78    O133    1.382   .     S
C78    C500    1.373   1_545 S
C79    C81     1.395   .     A
C79    H135    1.085   .     S
C79    C497    1.373   1_545 S
C80    C82     1.395   .     A
C80    H136    1.085   .     S
C80    C288    1.373   .     S
C83    N106    1.366   .     A
C83    H137    1.082   .     S
C83    C155    1.416   .     S
C84    N105    1.366   .     A
C84    H138    1.082   .     S
C85    H139    1.081   .     S
C85    N105    1.366   .     A
C86    N106    1.367   .     A
C86    H140    1.082   .     S
C86    C154    1.416   .     S
C87    O113    1.293   .     A
C87    O111    1.297   .     A
C87    C89     1.471   .     S
C88    O114    1.292   .     A
C88    C90     1.461   .     S
C88    O112    1.294   .     A
C89    C93     1.402   .     A
C89    C95     1.406   .     A
C90    C96     1.395   .     A
C90    C94     1.401   .     A
C91    C99     1.409   .     A
C91    O123    1.382   .     S
C91    C93     1.404   .     A
C92    O125    1.382   .     S
C92    C94     1.407   .     A
C92    C100    1.411   .     A
C93    H122    1.083   .     S
C94    H121    1.084   .     S
C95    C97     1.410   .     A
C95    O119    1.383   .     S
C96    C98     1.409   .     A
C96    O117    1.383   .     S
C97    C99     1.417   .     A
C97    C101    1.416   .     A
C98    C102    1.416   .     A
C98    C100    1.418   .     A
C99    C705    1.401   .     S
C100   C706    1.401   1_554 S
C101   C732    1.403   .     S
C102   C731    1.403   1_554 S
N105   Zn115   2.009   .     S
N106   Zn116   2.009   .     S
O107   Zn115   1.990   .     S
O108   Zn116   1.990   .     S
O109   Zn116   1.986   .     S
O110   Zn115   1.986   .     S
O111   Zn115   1.942   .     S
O112   Zn116   1.942   .     S
O113   Zn116   1.904   .     S
O114   Zn115   1.904   .     S
O117   H118    0.991   .     S
O119   H120    0.991   .     S
H124   O193    0.992   .     S
O125   H126    0.992   .     S
O127   H128    0.990   .     S
O129   H130    0.991   .     S
O131   H132    0.989   .     S
O133   H134    0.990   .     S
C141   O177    1.279   .     A
C141   C152    1.410   .     S
C141   O179    1.281   .     A
C142   O178    1.279   .     A
C142   C151    1.410   .     S
C142   O180    1.281   .     A
C143   C145    1.395   .     A
C143   C172    1.426   .     A
C143   O197    1.379   .     S
C144   O199    1.380   .     S
C144   C171    1.426   .     A
C144   C146    1.396   .     A
C145   H173    1.083   .     S
C145   C799    1.401   1_554 S
C146   H174    1.084   .     S
C146   C800    1.401   .     S
C147   C152    1.409   .     A
C147   O201    1.382   .     S
C147   C359    1.373   .     S
C148   C151    1.408   .     A
C148   O203    1.382   .     S
C148   C570    1.373   1_545 S
C149   C151    1.395   .     A
C149   H205    1.085   .     S
C149   C567    1.373   1_545 S
C150   C152    1.395   .     A
C150   H206    1.085   .     S
C150   C358    1.373   .     S
C153   N176    1.366   .     A
C153   H207    1.082   .     S
C153   C15     1.416   1_655 S
C154   N175    1.366   .     A
C154   H208    1.082   .     S
C155   H209    1.081   .     S
C155   N175    1.366   .     A
C156   N176    1.367   .     A
C156   H210    1.082   .     S
C156   C14     1.416   1_655 S
C157   O183    1.293   .     A
C157   O181    1.297   .     A
C157   C159    1.471   .     S
C158   O184    1.292   .     A
C158   C160    1.461   .     S
C158   O182    1.294   .     A
C159   C163    1.402   .     A
C159   C165    1.406   .     A
C160   C166    1.395   .     A
C160   C164    1.401   .     A
C161   C169    1.409   .     A
C161   O193    1.382   .     S
C161   C163    1.404   .     A
C162   O195    1.382   .     S
C162   C164    1.407   .     A
C162   C170    1.411   .     A
C163   H192    1.083   .     S
C164   H191    1.084   .     S
C165   C167    1.410   .     A
C165   O189    1.383   .     S
C166   C168    1.409   .     A
C166   O187    1.383   .     S
C167   C169    1.417   .     A
C167   C171    1.416   .     A
C168   C172    1.416   .     A
C168   C170    1.418   .     A
C169   C775    1.401   .     S
C170   C776    1.401   1_554 S
C171   C802    1.403   .     S
C172   C801    1.403   1_554 S
N175   Zn185   2.009   .     S
N176   Zn186   2.009   .     S
O177   Zn185   1.990   .     S
O178   Zn186   1.990   .     S
O179   Zn186   1.986   .     S
O180   Zn185   1.986   .     S
O181   Zn185   1.942   .     S
O182   Zn186   1.942   .     S
O183   Zn186   1.904   .     S
O184   Zn185   1.904   .     S
O187   H188    0.991   .     S
O189   H190    0.991   .     S
H194   O53     0.992   1_655 S
O195   H196    0.992   .     S
O197   H198    0.990   .     S
O199   H200    0.991   .     S
O201   H202    0.989   .     S
O203   H204    0.990   .     S
C211   O247    1.279   .     A
C211   C222    1.410   .     S
C211   O249    1.281   .     A
C212   O248    1.279   .     A
C212   C221    1.410   .     S
C212   O250    1.281   .     A
C213   C215    1.395   .     A
C213   C242    1.426   .     A
C213   O267    1.379   .     S
C214   O269    1.380   .     S
C214   C241    1.426   .     A
C214   C216    1.396   .     A
C215   H243    1.083   .     S
C215   C869    1.401   1_554 S
C216   H244    1.084   .     S
C216   C870    1.401   .     S
C217   C222    1.409   .     A
C217   O271    1.382   .     S
C217   C429    1.373   .     S
C218   C221    1.408   .     A
C218   O273    1.382   .     S
C219   C221    1.395   .     A
C219   H275    1.085   .     S
C220   C222    1.395   .     A
C220   H276    1.085   .     S
C220   C428    1.373   .     S
C223   N246    1.366   .     A
C223   H277    1.082   .     S
C223   C295    1.416   .     S
C224   N245    1.366   .     A
C224   H278    1.082   .     S
C224   C366    1.416   1_455 S
C225   H279    1.081   .     S
C225   N245    1.366   .     A
C225   C363    1.416   1_455 S
C226   N246    1.367   .     A
C226   H280    1.082   .     S
C226   C294    1.416   .     S
C227   O253    1.293   .     A
C227   O251    1.297   .     A
C227   C229    1.471   .     S
C228   O254    1.292   .     A
C228   C230    1.461   .     S
C228   O252    1.294   .     A
C229   C233    1.402   .     A
C229   C235    1.406   .     A
C230   C236    1.395   .     A
C230   C234    1.401   .     A
C231   C239    1.409   .     A
C231   O263    1.382   .     S
C231   C233    1.404   .     A
C232   O265    1.382   .     S
C232   C234    1.407   .     A
C232   C240    1.411   .     A
C233   H262    1.083   .     S
C234   H261    1.084   .     S
C235   C237    1.410   .     A
C235   O259    1.383   .     S
C236   C238    1.409   .     A
C236   O257    1.383   .     S
C237   C239    1.417   .     A
C237   C241    1.416   .     A
C238   C242    1.416   .     A
C238   C240    1.418   .     A
C239   C845    1.401   .     S
C240   C846    1.401   1_554 S
C241   C872    1.403   .     S
C242   C871    1.403   1_554 S
N245   Zn255   2.009   .     S
N246   Zn256   2.009   .     S
O247   Zn255   1.990   .     S
O248   Zn256   1.990   .     S
O249   Zn256   1.986   .     S
O250   Zn255   1.986   .     S
O251   Zn255   1.942   .     S
O252   Zn256   1.942   .     S
O253   Zn256   1.904   .     S
O254   Zn255   1.904   .     S
O257   H258    0.991   .     S
O259   H260    0.991   .     S
O263   H404    0.992   1_455 S
H264   O333    0.992   .     S
O265   H266    0.992   .     S
O267   H268    0.990   .     S
O269   H270    0.991   .     S
O271   H272    0.989   .     S
O273   H274    0.990   .     S
C281   O317    1.279   .     A
C281   C292    1.410   .     S
C281   O319    1.281   .     A
C282   O318    1.279   .     A
C282   C291    1.410   .     S
C282   O320    1.281   .     A
C283   C285    1.395   .     A
C283   C312    1.426   .     A
C283   O337    1.379   .     S
C284   O339    1.380   .     S
C284   C311    1.426   .     A
C284   C286    1.396   .     A
C285   H313    1.083   .     S
C285   C939    1.401   1_554 S
C286   H314    1.084   .     S
C286   C940    1.401   .     S
C287   C292    1.409   .     A
C287   O341    1.382   .     S
C287   C499    1.373   .     S
C288   C291    1.408   .     A
C288   O343    1.382   .     S
C289   C291    1.395   .     A
C289   H345    1.085   .     S
C290   C292    1.395   .     A
C290   H346    1.085   .     S
C290   C498    1.373   .     S
C293   N316    1.366   .     A
C293   H347    1.082   .     S
C293   C365    1.416   .     S
C294   N315    1.366   .     A
C294   H348    1.082   .     S
C295   H349    1.081   .     S
C295   N315    1.366   .     A
C296   N316    1.367   .     A
C296   H350    1.082   .     S
C296   C364    1.416   .     S
C297   O323    1.293   .     A
C297   O321    1.297   .     A
C297   C299    1.471   .     S
C298   O324    1.292   .     A
C298   C300    1.461   .     S
C298   O322    1.294   .     A
C299   C303    1.402   .     A
C299   C305    1.406   .     A
C300   C306    1.395   .     A
C300   C304    1.401   .     A
C301   C309    1.409   .     A
C301   O333    1.382   .     S
C301   C303    1.404   .     A
C302   O335    1.382   .     S
C302   C304    1.407   .     A
C302   C310    1.411   .     A
C303   H332    1.083   .     S
C304   H331    1.084   .     S
C305   C307    1.410   .     A
C305   O329    1.383   .     S
C306   C308    1.409   .     A
C306   O327    1.383   .     S
C307   C309    1.417   .     A
C307   C311    1.416   .     A
C308   C312    1.416   .     A
C308   C310    1.418   .     A
C309   C915    1.401   .     S
C310   C916    1.401   1_554 S
C311   C942    1.403   .     S
C312   C941    1.403   1_554 S
N315   Zn325   2.009   .     S
N316   Zn326   2.009   .     S
O317   Zn325   1.990   .     S
O318   Zn326   1.990   .     S
O319   Zn326   1.986   .     S
O320   Zn325   1.986   .     S
O321   Zn325   1.942   .     S
O322   Zn326   1.942   .     S
O323   Zn326   1.904   .     S
O324   Zn325   1.904   .     S
O327   H328    0.991   .     S
O329   H330    0.991   .     S
H334   O403    0.992   .     S
O335   H336    0.992   .     S
O337   H338    0.990   .     S
O339   H340    0.991   .     S
O341   H342    0.989   .     S
O343   H344    0.990   .     S
C351   O387    1.279   .     A
C351   C362    1.410   .     S
C351   O389    1.281   .     A
C352   O388    1.279   .     A
C352   C361    1.410   .     S
C352   O390    1.281   .     A
C353   C355    1.395   .     A
C353   C382    1.426   .     A
C353   O407    1.379   .     S
C354   O409    1.380   .     S
C354   C381    1.426   .     A
C354   C356    1.396   .     A
C355   H383    1.083   .     S
C355   C1009   1.401   1_554 S
C356   H384    1.084   .     S
C356   C1010   1.401   .     S
C357   C362    1.409   .     A
C357   O411    1.382   .     S
C357   C569    1.373   .     S
C358   C361    1.408   .     A
C358   O413    1.382   .     S
C359   C361    1.395   .     A
C359   H415    1.085   .     S
C360   C362    1.395   .     A
C360   H416    1.085   .     S
C360   C568    1.373   .     S
C363   N386    1.366   .     A
C363   H417    1.082   .     S
C363   C225    1.416   1_655 S
C364   N385    1.366   .     A
C364   H418    1.082   .     S
C365   H419    1.081   .     S
C365   N385    1.366   .     A
C366   N386    1.367   .     A
C366   H420    1.082   .     S
C366   C224    1.416   1_655 S
C367   O393    1.293   .     A
C367   O391    1.297   .     A
C367   C369    1.471   .     S
C368   O394    1.292   .     A
C368   C370    1.461   .     S
C368   O392    1.294   .     A
C369   C373    1.402   .     A
C369   C375    1.406   .     A
C370   C376    1.395   .     A
C370   C374    1.401   .     A
C371   C379    1.409   .     A
C371   O403    1.382   .     S
C371   C373    1.404   .     A
C372   O405    1.382   .     S
C372   C374    1.407   .     A
C372   C380    1.411   .     A
C373   H402    1.083   .     S
C374   H401    1.084   .     S
C375   C377    1.410   .     A
C375   O399    1.383   .     S
C376   C378    1.409   .     A
C376   O397    1.383   .     S
C377   C379    1.417   .     A
C377   C381    1.416   .     A
C378   C382    1.416   .     A
C378   C380    1.418   .     A
C379   C985    1.401   .     S
C380   C986    1.401   1_554 S
C381   C1012   1.403   .     S
C382   C1011   1.403   1_554 S
N385   Zn395   2.009   .     S
N386   Zn396   2.009   .     S
O387   Zn395   1.990   .     S
O388   Zn396   1.990   .     S
O389   Zn396   1.986   .     S
O390   Zn395   1.986   .     S
O391   Zn395   1.942   .     S
O392   Zn396   1.942   .     S
O393   Zn396   1.904   .     S
O394   Zn395   1.904   .     S
O397   H398    0.991   .     S
O399   H400    0.991   .     S
H404   O263    0.992   1_655 S
O405   H406    0.992   .     S
O407   H408    0.990   .     S
O409   H410    0.991   .     S
O411   H412    0.989   .     S
O413   H414    0.990   .     S
C421   O457    1.279   .     A
C421   C432    1.410   .     S
C421   O459    1.281   .     A
C422   O458    1.279   .     A
C422   C431    1.410   .     S
C422   O460    1.281   .     A
C423   C425    1.395   .     A
C423   C452    1.426   .     A
C423   O477    1.379   .     S
C424   O479    1.380   .     S
C424   C451    1.426   .     A
C424   C426    1.396   .     A
C425   H453    1.083   .     S
C425   C1079   1.401   1_554 S
C426   H454    1.084   .     S
C426   C1080   1.401   .     S
C427   C432    1.409   .     A
C427   O481    1.382   .     S
C427   C9      1.373   1_565 S
C428   C431    1.408   .     A
C428   O483    1.382   .     S
C429   C431    1.395   .     A
C429   H485    1.085   .     S
C430   C432    1.395   .     A
C430   H486    1.085   .     S
C430   C8      1.373   1_565 S
C433   N456    1.366   .     A
C433   H487    1.082   .     S
C433   C505    1.416   .     S
C434   N455    1.366   .     A
C434   H488    1.082   .     S
C434   C576    1.416   1_455 S
C435   H489    1.081   .     S
C435   N455    1.366   .     A
C435   C573    1.416   1_455 S
C436   N456    1.367   .     A
C436   H490    1.082   .     S
C436   C504    1.416   .     S
C437   O463    1.293   .     A
C437   O461    1.297   .     A
C437   C439    1.471   .     S
C438   O464    1.292   .     A
C438   C440    1.461   .     S
C438   O462    1.294   .     A
C439   C443    1.402   .     A
C439   C445    1.406   .     A
C440   C446    1.395   .     A
C440   C444    1.401   .     A
C441   C449    1.409   .     A
C441   O473    1.382   .     S
C441   C443    1.404   .     A
C442   O475    1.382   .     S
C442   C444    1.407   .     A
C442   C450    1.411   .     A
C443   H472    1.083   .     S
C444   H471    1.084   .     S
C445   C447    1.410   .     A
C445   O469    1.383   .     S
C446   C448    1.409   .     A
C446   O467    1.383   .     S
C447   C449    1.417   .     A
C447   C451    1.416   .     A
C448   C452    1.416   .     A
C448   C450    1.418   .     A
C449   C1055   1.401   .     S
C450   C1056   1.401   1_554 S
C451   C1082   1.403   .     S
C452   C1081   1.403   1_554 S
N455   Zn465   2.009   .     S
N456   Zn466   2.009   .     S
O457   Zn465   1.990   .     S
O458   Zn466   1.990   .     S
O459   Zn466   1.986   .     S
O460   Zn465   1.986   .     S
O461   Zn465   1.942   .     S
O462   Zn466   1.942   .     S
O463   Zn466   1.904   .     S
O464   Zn465   1.904   .     S
O467   H468    0.991   .     S
O469   H470    0.991   .     S
O473   H614    0.992   1_455 S
H474   O543    0.992   .     S
O475   H476    0.992   .     S
O477   H478    0.990   .     S
O479   H480    0.991   .     S
O481   H482    0.989   .     S
O483   H484    0.990   .     S
C491   O527    1.279   .     A
C491   C502    1.410   .     S
C491   O529    1.281   .     A
C492   O528    1.279   .     A
C492   C501    1.410   .     S
C492   O530    1.281   .     A
C493   C495    1.395   .     A
C493   C522    1.426   .     A
C493   O547    1.379   .     S
C494   O549    1.380   .     S
C494   C521    1.426   .     A
C494   C496    1.396   .     A
C495   H523    1.083   .     S
C495   C1149   1.401   1_554 S
C496   H524    1.084   .     S
C496   C1150   1.401   .     S
C497   C502    1.409   .     A
C497   O551    1.382   .     S
C497   C79     1.373   1_565 S
C498   C501    1.408   .     A
C498   O553    1.382   .     S
C499   C501    1.395   .     A
C499   H555    1.085   .     S
C500   C502    1.395   .     A
C500   H556    1.085   .     S
C500   C78     1.373   1_565 S
C503   N526    1.366   .     A
C503   H557    1.082   .     S
C503   C575    1.416   .     S
C504   N525    1.366   .     A
C504   H558    1.082   .     S
C505   H559    1.081   .     S
C505   N525    1.366   .     A
C506   N526    1.367   .     A
C506   H560    1.082   .     S
C506   C574    1.416   .     S
C507   O533    1.293   .     A
C507   O531    1.297   .     A
C507   C509    1.471   .     S
C508   O534    1.292   .     A
C508   C510    1.461   .     S
C508   O532    1.294   .     A
C509   C513    1.402   .     A
C509   C515    1.406   .     A
C510   C516    1.395   .     A
C510   C514    1.401   .     A
C511   C519    1.409   .     A
C511   O543    1.382   .     S
C511   C513    1.404   .     A
C512   O545    1.382   .     S
C512   C514    1.407   .     A
C512   C520    1.411   .     A
C513   H542    1.083   .     S
C514   H541    1.084   .     S
C515   C517    1.410   .     A
C515   O539    1.383   .     S
C516   C518    1.409   .     A
C516   O537    1.383   .     S
C517   C519    1.417   .     A
C517   C521    1.416   .     A
C518   C522    1.416   .     A
C518   C520    1.418   .     A
C519   C1125   1.401   .     S
C520   C1126   1.401   1_554 S
C521   C1152   1.403   .     S
C522   C1151   1.403   1_554 S
N525   Zn535   2.009   .     S
N526   Zn536   2.009   .     S
O527   Zn535   1.990   .     S
O528   Zn536   1.990   .     S
O529   Zn536   1.986   .     S
O530   Zn535   1.986   .     S
O531   Zn535   1.942   .     S
O532   Zn536   1.942   .     S
O533   Zn536   1.904   .     S
O534   Zn535   1.904   .     S
O537   H538    0.991   .     S
O539   H540    0.991   .     S
H544   O613    0.992   .     S
O545   H546    0.992   .     S
O547   H548    0.990   .     S
O549   H550    0.991   .     S
O551   H552    0.989   .     S
O553   H554    0.990   .     S
C561   O597    1.279   .     A
C561   C572    1.410   .     S
C561   O599    1.281   .     A
C562   O598    1.279   .     A
C562   C571    1.410   .     S
C562   O600    1.281   .     A
C563   C565    1.395   .     A
C563   C592    1.426   .     A
C563   O617    1.379   .     S
C564   O619    1.380   .     S
C564   C591    1.426   .     A
C564   C566    1.396   .     A
C565   H593    1.083   .     S
C565   C1219   1.401   1_554 S
C566   H594    1.084   .     S
C566   C1220   1.401   .     S
C567   C572    1.409   .     A
C567   O621    1.382   .     S
C567   C149    1.373   1_565 S
C568   C571    1.408   .     A
C568   O623    1.382   .     S
C569   C571    1.395   .     A
C569   H625    1.085   .     S
C570   C572    1.395   .     A
C570   H626    1.085   .     S
C570   C148    1.373   1_565 S
C573   N596    1.366   .     A
C573   H627    1.082   .     S
C573   C435    1.416   1_655 S
C574   N595    1.366   .     A
C574   H628    1.082   .     S
C575   H629    1.081   .     S
C575   N595    1.366   .     A
C576   N596    1.367   .     A
C576   H630    1.082   .     S
C576   C434    1.416   1_655 S
C577   O603    1.293   .     A
C577   O601    1.297   .     A
C577   C579    1.471   .     S
C578   O604    1.292   .     A
C578   C580    1.461   .     S
C578   O602    1.294   .     A
C579   C583    1.402   .     A
C579   C585    1.406   .     A
C580   C586    1.395   .     A
C580   C584    1.401   .     A
C581   C589    1.409   .     A
C581   O613    1.382   .     S
C581   C583    1.404   .     A
C582   O615    1.382   .     S
C582   C584    1.407   .     A
C582   C590    1.411   .     A
C583   H612    1.083   .     S
C584   H611    1.084   .     S
C585   C587    1.410   .     A
C585   O609    1.383   .     S
C586   C588    1.409   .     A
C586   O607    1.383   .     S
C587   C589    1.417   .     A
C587   C591    1.416   .     A
C588   C592    1.416   .     A
C588   C590    1.418   .     A
C589   C1195   1.401   .     S
C590   C1196   1.401   1_554 S
C591   C1222   1.403   .     S
C592   C1221   1.403   1_554 S
N595   Zn605   2.009   .     S
N596   Zn606   2.009   .     S
O597   Zn605   1.990   .     S
O598   Zn606   1.990   .     S
O599   Zn606   1.986   .     S
O600   Zn605   1.986   .     S
O601   Zn605   1.942   .     S
O602   Zn606   1.942   .     S
O603   Zn606   1.904   .     S
O604   Zn605   1.904   .     S
O607   H608    0.991   .     S
O609   H610    0.991   .     S
H614   O473    0.992   1_655 S
O615   H616    0.992   .     S
O617   H618    0.990   .     S
O619   H620    0.991   .     S
O621   H622    0.989   .     S
O623   H624    0.990   .     S
C631   O667    1.279   .     A
C631   C642    1.410   .     S
C631   O669    1.281   .     A
C632   O668    1.279   .     A
C632   C641    1.410   .     S
C632   O670    1.281   .     A
C633   C635    1.395   .     A
C633   C662    1.426   .     A
C633   O687    1.379   .     S
C634   O689    1.380   .     S
C634   C661    1.426   .     A
C634   C636    1.396   .     A
C635   H663    1.083   .     S
C636   H664    1.084   .     S
C636   C30     1.401   1_556 S
C637   C642    1.409   .     A
C637   O691    1.382   .     S
C637   C849    1.373   .     S
C638   C641    1.408   .     A
C638   O693    1.382   .     S
C638   C1060   1.373   1_545 S
C639   C641    1.395   .     A
C639   H695    1.085   .     S
C639   C1057   1.373   1_545 S
C640   C642    1.395   .     A
C640   H696    1.085   .     S
C640   C848    1.373   .     S
C643   N666    1.366   .     A
C643   H697    1.082   .     S
C643   C715    1.416   .     S
C644   N665    1.366   .     A
C644   H698    1.082   .     S
C644   C786    1.416   1_455 S
C645   H699    1.081   .     S
C645   N665    1.366   .     A
C645   C783    1.416   1_455 S
C646   N666    1.367   .     A
C646   H700    1.082   .     S
C646   C714    1.416   .     S
C647   O673    1.293   .     A
C647   O671    1.297   .     A
C647   C649    1.471   .     S
C648   O674    1.292   .     A
C648   C650    1.461   .     S
C648   O672    1.294   .     A
C649   C653    1.402   .     A
C649   C655    1.406   .     A
C650   C656    1.395   .     A
C650   C654    1.401   .     A
C651   C659    1.409   .     A
C651   O683    1.382   .     S
C651   C653    1.404   .     A
C652   O685    1.382   .     S
C652   C654    1.407   .     A
C652   C660    1.411   .     A
C653   H682    1.083   .     S
C654   H681    1.084   .     S
C655   C657    1.410   .     A
C655   O679    1.383   .     S
C656   C658    1.409   .     A
C656   O677    1.383   .     S
C657   C659    1.417   .     A
C657   C661    1.416   .     A
C658   C662    1.416   .     A
C658   C660    1.418   .     A
C659   C5      1.401   1_556 S
C661   C32     1.403   1_556 S
N665   Zn675   2.009   .     S
N666   Zn676   2.009   .     S
O667   Zn675   1.990   .     S
O668   Zn676   1.990   .     S
O669   Zn676   1.986   .     S
O670   Zn675   1.986   .     S
O671   Zn675   1.942   .     S
O672   Zn676   1.942   .     S
O673   Zn676   1.904   .     S
O674   Zn675   1.904   .     S
O677   H678    0.991   .     S
O679   H680    0.991   .     S
O683   H824    0.992   1_455 S
H684   O753    0.992   .     S
O685   H686    0.992   .     S
O687   H688    0.990   .     S
O689   H690    0.991   .     S
O691   H692    0.989   .     S
O693   H694    0.990   .     S
C701   O737    1.279   .     A
C701   C712    1.410   .     S
C701   O739    1.281   .     A
C702   O738    1.279   .     A
C702   C711    1.410   .     S
C702   O740    1.281   .     A
C703   C705    1.395   .     A
C703   C732    1.426   .     A
C703   O757    1.379   .     S
C704   O759    1.380   .     S
C704   C731    1.426   .     A
C704   C706    1.396   .     A
C705   H733    1.083   .     S
C706   H734    1.084   .     S
C706   C100    1.401   1_556 S
C707   C712    1.409   .     A
C707   O761    1.382   .     S
C707   C919    1.373   .     S
C708   C711    1.408   .     A
C708   O763    1.382   .     S
C708   C1130   1.373   1_545 S
C709   C711    1.395   .     A
C709   H765    1.085   .     S
C709   C1127   1.373   1_545 S
C710   C712    1.395   .     A
C710   H766    1.085   .     S
C710   C918    1.373   .     S
C713   N736    1.366   .     A
C713   H767    1.082   .     S
C713   C785    1.416   .     S
C714   N735    1.366   .     A
C714   H768    1.082   .     S
C715   H769    1.081   .     S
C715   N735    1.366   .     A
C716   N736    1.367   .     A
C716   H770    1.082   .     S
C716   C784    1.416   .     S
C717   O743    1.293   .     A
C717   O741    1.297   .     A
C717   C719    1.471   .     S
C718   O744    1.292   .     A
C718   C720    1.461   .     S
C718   O742    1.294   .     A
C719   C723    1.402   .     A
C719   C725    1.406   .     A
C720   C726    1.395   .     A
C720   C724    1.401   .     A
C721   C729    1.409   .     A
C721   O753    1.382   .     S
C721   C723    1.404   .     A
C722   O755    1.382   .     S
C722   C724    1.407   .     A
C722   C730    1.411   .     A
C723   H752    1.083   .     S
C724   H751    1.084   .     S
C725   C727    1.410   .     A
C725   O749    1.383   .     S
C726   C728    1.409   .     A
C726   O747    1.383   .     S
C727   C729    1.417   .     A
C727   C731    1.416   .     A
C728   C732    1.416   .     A
C728   C730    1.418   .     A
C729   C75     1.401   1_556 S
C731   C102    1.403   1_556 S
N735   Zn745   2.009   .     S
N736   Zn746   2.009   .     S
O737   Zn745   1.990   .     S
O738   Zn746   1.990   .     S
O739   Zn746   1.986   .     S
O740   Zn745   1.986   .     S
O741   Zn745   1.942   .     S
O742   Zn746   1.942   .     S
O743   Zn746   1.904   .     S
O744   Zn745   1.904   .     S
O747   H748    0.991   .     S
O749   H750    0.991   .     S
H754   O823    0.992   .     S
O755   H756    0.992   .     S
O757   H758    0.990   .     S
O759   H760    0.991   .     S
O761   H762    0.989   .     S
O763   H764    0.990   .     S
C771   O807    1.279   .     A
C771   C782    1.410   .     S
C771   O809    1.281   .     A
C772   O808    1.279   .     A
C772   C781    1.410   .     S
C772   O810    1.281   .     A
C773   C775    1.395   .     A
C773   C802    1.426   .     A
C773   O827    1.379   .     S
C774   O829    1.380   .     S
C774   C801    1.426   .     A
C774   C776    1.396   .     A
C775   H803    1.083   .     S
C776   H804    1.084   .     S
C776   C170    1.401   1_556 S
C777   C782    1.409   .     A
C777   O831    1.382   .     S
C777   C989    1.373   .     S
C778   C781    1.408   .     A
C778   O833    1.382   .     S
C778   C1200   1.373   1_545 S
C779   C781    1.395   .     A
C779   H835    1.085   .     S
C779   C1197   1.373   1_545 S
C780   C782    1.395   .     A
C780   H836    1.085   .     S
C780   C988    1.373   .     S
C783   N806    1.366   .     A
C783   H837    1.082   .     S
C783   C645    1.416   1_655 S
C784   N805    1.366   .     A
C784   H838    1.082   .     S
C785   H839    1.081   .     S
C785   N805    1.366   .     A
C786   N806    1.367   .     A
C786   H840    1.082   .     S
C786   C644    1.416   1_655 S
C787   O813    1.293   .     A
C787   O811    1.297   .     A
C787   C789    1.471   .     S
C788   O814    1.292   .     A
C788   C790    1.461   .     S
C788   O812    1.294   .     A
C789   C793    1.402   .     A
C789   C795    1.406   .     A
C790   C796    1.395   .     A
C790   C794    1.401   .     A
C791   C799    1.409   .     A
C791   O823    1.382   .     S
C791   C793    1.404   .     A
C792   O825    1.382   .     S
C792   C794    1.407   .     A
C792   C800    1.411   .     A
C793   H822    1.083   .     S
C794   H821    1.084   .     S
C795   C797    1.410   .     A
C795   O819    1.383   .     S
C796   C798    1.409   .     A
C796   O817    1.383   .     S
C797   C799    1.417   .     A
C797   C801    1.416   .     A
C798   C802    1.416   .     A
C798   C800    1.418   .     A
C799   C145    1.401   1_556 S
C801   C172    1.403   1_556 S
N805   Zn815   2.009   .     S
N806   Zn816   2.009   .     S
O807   Zn815   1.990   .     S
O808   Zn816   1.990   .     S
O809   Zn816   1.986   .     S
O810   Zn815   1.986   .     S
O811   Zn815   1.942   .     S
O812   Zn816   1.942   .     S
O813   Zn816   1.904   .     S
O814   Zn815   1.904   .     S
O817   H818    0.991   .     S
O819   H820    0.991   .     S
H824   O683    0.992   1_655 S
O825   H826    0.992   .     S
O827   H828    0.990   .     S
O829   H830    0.991   .     S
O831   H832    0.989   .     S
O833   H834    0.990   .     S
C841   O877    1.279   .     A
C841   C852    1.410   .     S
C841   O879    1.281   .     A
C842   O878    1.279   .     A
C842   C851    1.410   .     S
C842   O880    1.281   .     A
C843   C845    1.395   .     A
C843   C872    1.426   .     A
C843   O897    1.379   .     S
C844   O899    1.380   .     S
C844   C871    1.426   .     A
C844   C846    1.396   .     A
C845   H873    1.083   .     S
C846   H874    1.084   .     S
C846   C240    1.401   1_556 S
C847   C852    1.409   .     A
C847   O901    1.382   .     S
C847   C1059   1.373   .     S
C848   C851    1.408   .     A
C848   O903    1.382   .     S
C849   C851    1.395   .     A
C849   H905    1.085   .     S
C850   C852    1.395   .     A
C850   H906    1.085   .     S
C850   C1058   1.373   .     S
C853   N876    1.366   .     A
C853   H907    1.082   .     S
C853   C925    1.416   .     S
C854   N875    1.366   .     A
C854   H908    1.082   .     S
C854   C996    1.416   1_455 S
C855   H909    1.081   .     S
C855   N875    1.366   .     A
C855   C993    1.416   1_455 S
C856   N876    1.367   .     A
C856   H910    1.082   .     S
C856   C924    1.416   .     S
C857   O883    1.293   .     A
C857   O881    1.297   .     A
C857   C859    1.471   .     S
C858   O884    1.292   .     A
C858   C860    1.461   .     S
C858   O882    1.294   .     A
C859   C863    1.402   .     A
C859   C865    1.406   .     A
C860   C866    1.395   .     A
C860   C864    1.401   .     A
C861   C869    1.409   .     A
C861   O893    1.382   .     S
C861   C863    1.404   .     A
C862   O895    1.382   .     S
C862   C864    1.407   .     A
C862   C870    1.411   .     A
C863   H892    1.083   .     S
C864   H891    1.084   .     S
C865   C867    1.410   .     A
C865   O889    1.383   .     S
C866   C868    1.409   .     A
C866   O887    1.383   .     S
C867   C869    1.417   .     A
C867   C871    1.416   .     A
C868   C872    1.416   .     A
C868   C870    1.418   .     A
C869   C215    1.401   1_556 S
C871   C242    1.403   1_556 S
N875   Zn885   2.009   .     S
N876   Zn886   2.009   .     S
O877   Zn885   1.990   .     S
O878   Zn886   1.990   .     S
O879   Zn886   1.986   .     S
O880   Zn885   1.986   .     S
O881   Zn885   1.942   .     S
O882   Zn886   1.942   .     S
O883   Zn886   1.904   .     S
O884   Zn885   1.904   .     S
O887   H888    0.991   .     S
O889   H890    0.991   .     S
O893   H1034   0.992   1_455 S
H894   O963    0.992   .     S
O895   H896    0.992   .     S
O897   H898    0.990   .     S
O899   H900    0.991   .     S
O901   H902    0.989   .     S
O903   H904    0.990   .     S
C911   O947    1.279   .     A
C911   C922    1.410   .     S
C911   O949    1.281   .     A
C912   O948    1.279   .     A
C912   C921    1.410   .     S
C912   O950    1.281   .     A
C913   C915    1.395   .     A
C913   C942    1.426   .     A
C913   O967    1.379   .     S
C914   O969    1.380   .     S
C914   C941    1.426   .     A
C914   C916    1.396   .     A
C915   H943    1.083   .     S
C916   H944    1.084   .     S
C916   C310    1.401   1_556 S
C917   C922    1.409   .     A
C917   O971    1.382   .     S
C917   C1129   1.373   .     S
C918   C921    1.408   .     A
C918   O973    1.382   .     S
C919   C921    1.395   .     A
C919   H975    1.085   .     S
C920   C922    1.395   .     A
C920   H976    1.085   .     S
C920   C1128   1.373   .     S
C923   N946    1.366   .     A
C923   H977    1.082   .     S
C923   C995    1.416   .     S
C924   N945    1.366   .     A
C924   H978    1.082   .     S
C925   H979    1.081   .     S
C925   N945    1.366   .     A
C926   N946    1.367   .     A
C926   H980    1.082   .     S
C926   C994    1.416   .     S
C927   O953    1.293   .     A
C927   O951    1.297   .     A
C927   C929    1.471   .     S
C928   O954    1.292   .     A
C928   C930    1.461   .     S
C928   O952    1.294   .     A
C929   C933    1.402   .     A
C929   C935    1.406   .     A
C930   C936    1.395   .     A
C930   C934    1.401   .     A
C931   C939    1.409   .     A
C931   O963    1.382   .     S
C931   C933    1.404   .     A
C932   O965    1.382   .     S
C932   C934    1.407   .     A
C932   C940    1.411   .     A
C933   H962    1.083   .     S
C934   H961    1.084   .     S
C935   C937    1.410   .     A
C935   O959    1.383   .     S
C936   C938    1.409   .     A
C936   O957    1.383   .     S
C937   C939    1.417   .     A
C937   C941    1.416   .     A
C938   C942    1.416   .     A
C938   C940    1.418   .     A
C939   C285    1.401   1_556 S
C941   C312    1.403   1_556 S
N945   Zn955   2.009   .     S
N946   Zn956   2.009   .     S
O947   Zn955   1.990   .     S
O948   Zn956   1.990   .     S
O949   Zn956   1.986   .     S
O950   Zn955   1.986   .     S
O951   Zn955   1.942   .     S
O952   Zn956   1.942   .     S
O953   Zn956   1.904   .     S
O954   Zn955   1.904   .     S
O957   H958    0.991   .     S
O959   H960    0.991   .     S
H964   O1033   0.992   .     S
O965   H966    0.992   .     S
O967   H968    0.990   .     S
O969   H970    0.991   .     S
O971   H972    0.989   .     S
O973   H974    0.990   .     S
C981   O1017   1.279   .     A
C981   C992    1.410   .     S
C981   O1019   1.281   .     A
C982   O1018   1.279   .     A
C982   C991    1.410   .     S
C982   O1020   1.281   .     A
C983   C985    1.395   .     A
C983   C1012   1.426   .     A
C983   O1037   1.379   .     S
C984   O1039   1.380   .     S
C984   C1011   1.426   .     A
C984   C986    1.396   .     A
C985   H1013   1.083   .     S
C986   H1014   1.084   .     S
C986   C380    1.401   1_556 S
C987   C992    1.409   .     A
C987   O1041   1.382   .     S
C987   C1199   1.373   .     S
C988   C991    1.408   .     A
C988   O1043   1.382   .     S
C989   C991    1.395   .     A
C989   H1045   1.085   .     S
C990   C992    1.395   .     A
C990   H1046   1.085   .     S
C990   C1198   1.373   .     S
C993   N1016   1.366   .     A
C993   H1047   1.082   .     S
C993   C855    1.416   1_655 S
C994   N1015   1.366   .     A
C994   H1048   1.082   .     S
C995   H1049   1.081   .     S
C995   N1015   1.366   .     A
C996   N1016   1.367   .     A
C996   H1050   1.082   .     S
C996   C854    1.416   1_655 S
C997   O1023   1.293   .     A
C997   O1021   1.297   .     A
C997   C999    1.471   .     S
C998   O1024   1.292   .     A
C998   C1000   1.461   .     S
C998   O1022   1.294   .     A
C999   C1003   1.402   .     A
C999   C1005   1.406   .     A
C1000  C1006   1.395   .     A
C1000  C1004   1.401   .     A
C1001  C1009   1.409   .     A
C1001  O1033   1.382   .     S
C1001  C1003   1.404   .     A
C1002  O1035   1.382   .     S
C1002  C1004   1.407   .     A
C1002  C1010   1.411   .     A
C1003  H1032   1.083   .     S
C1004  H1031   1.084   .     S
C1005  C1007   1.410   .     A
C1005  O1029   1.383   .     S
C1006  C1008   1.409   .     A
C1006  O1027   1.383   .     S
C1007  C1009   1.417   .     A
C1007  C1011   1.416   .     A
C1008  C1012   1.416   .     A
C1008  C1010   1.418   .     A
C1009  C355    1.401   1_556 S
C1011  C382    1.403   1_556 S
N1015  Zn1025  2.009   .     S
N1016  Zn1026  2.009   .     S
O1017  Zn1025  1.990   .     S
O1018  Zn1026  1.990   .     S
O1019  Zn1026  1.986   .     S
O1020  Zn1025  1.986   .     S
O1021  Zn1025  1.942   .     S
O1022  Zn1026  1.942   .     S
O1023  Zn1026  1.904   .     S
O1024  Zn1025  1.904   .     S
O1027  H1028   0.991   .     S
O1029  H1030   0.991   .     S
H1034  O893    0.992   1_655 S
O1035  H1036   0.992   .     S
O1037  H1038   0.990   .     S
O1039  H1040   0.991   .     S
O1041  H1042   0.989   .     S
O1043  H1044   0.990   .     S
C1051  O1087   1.279   .     A
C1051  C1062   1.410   .     S
C1051  O1089   1.281   .     A
C1052  O1088   1.279   .     A
C1052  C1061   1.410   .     S
C1052  O1090   1.281   .     A
C1053  C1055   1.395   .     A
C1053  C1082   1.426   .     A
C1053  O1107   1.379   .     S
C1054  O1109   1.380   .     S
C1054  C1081   1.426   .     A
C1054  C1056   1.396   .     A
C1055  H1083   1.083   .     S
C1056  H1084   1.084   .     S
C1056  C450    1.401   1_556 S
C1057  C1062   1.409   .     A
C1057  O1111   1.382   .     S
C1057  C639    1.373   1_565 S
C1058  C1061   1.408   .     A
C1058  O1113   1.382   .     S
C1059  C1061   1.395   .     A
C1059  H1115   1.085   .     S
C1060  C1062   1.395   .     A
C1060  H1116   1.085   .     S
C1060  C638    1.373   1_565 S
C1063  N1086   1.366   .     A
C1063  H1117   1.082   .     S
C1063  C1135   1.416   .     S
C1064  N1085   1.366   .     A
C1064  H1118   1.082   .     S
C1064  C1206   1.416   1_455 S
C1065  H1119   1.081   .     S
C1065  N1085   1.366   .     A
C1065  C1203   1.416   1_455 S
C1066  N1086   1.367   .     A
C1066  H1120   1.082   .     S
C1066  C1134   1.416   .     S
C1067  O1093   1.293   .     A
C1067  O1091   1.297   .     A
C1067  C1069   1.471   .     S
C1068  O1094   1.292   .     A
C1068  C1070   1.461   .     S
C1068  O1092   1.294   .     A
C1069  C1073   1.402   .     A
C1069  C1075   1.406   .     A
C1070  C1076   1.395   .     A
C1070  C1074   1.401   .     A
C1071  C1079   1.409   .     A
C1071  O1103   1.382   .     S
C1071  C1073   1.404   .     A
C1072  O1105   1.382   .     S
C1072  C1074   1.407   .     A
C1072  C1080   1.411   .     A
C1073  H1102   1.083   .     S
C1074  H1101   1.084   .     S
C1075  C1077   1.410   .     A
C1075  O1099   1.383   .     S
C1076  C1078   1.409   .     A
C1076  O1097   1.383   .     S
C1077  C1079   1.417   .     A
C1077  C1081   1.416   .     A
C1078  C1082   1.416   .     A
C1078  C1080   1.418   .     A
C1079  C425    1.401   1_556 S
C1081  C452    1.403   1_556 S
N1085  Zn1095  2.009   .     S
N1086  Zn1096  2.009   .     S
O1087  Zn1095  1.990   .     S
O1088  Zn1096  1.990   .     S
O1089  Zn1096  1.986   .     S
O1090  Zn1095  1.986   .     S
O1091  Zn1095  1.942   .     S
O1092  Zn1096  1.942   .     S
O1093  Zn1096  1.904   .     S
O1094  Zn1095  1.904   .     S
O1097  H1098   0.991   .     S
O1099  H1100   0.991   .     S
O1103  H1244   0.992   1_455 S
H1104  O1173   0.992   .     S
O1105  H1106   0.992   .     S
O1107  H1108   0.990   .     S
O1109  H1110   0.991   .     S
O1111  H1112   0.989   .     S
O1113  H1114   0.990   .     S
C1121  O1157   1.279   .     A
C1121  C1132   1.410   .     S
C1121  O1159   1.281   .     A
C1122  O1158   1.279   .     A
C1122  C1131   1.410   .     S
C1122  O1160   1.281   .     A
C1123  C1125   1.395   .     A
C1123  C1152   1.426   .     A
C1123  O1177   1.379   .     S
C1124  O1179   1.380   .     S
C1124  C1151   1.426   .     A
C1124  C1126   1.396   .     A
C1125  H1153   1.083   .     S
C1126  H1154   1.084   .     S
C1126  C520    1.401   1_556 S
C1127  C1132   1.409   .     A
C1127  O1181   1.382   .     S
C1127  C709    1.373   1_565 S
C1128  C1131   1.408   .     A
C1128  O1183   1.382   .     S
C1129  C1131   1.395   .     A
C1129  H1185   1.085   .     S
C1130  C1132   1.395   .     A
C1130  H1186   1.085   .     S
C1130  C708    1.373   1_565 S
C1133  N1156   1.366   .     A
C1133  H1187   1.082   .     S
C1133  C1205   1.416   .     S
C1134  N1155   1.366   .     A
C1134  H1188   1.082   .     S
C1135  H1189   1.081   .     S
C1135  N1155   1.366   .     A
C1136  N1156   1.367   .     A
C1136  H1190   1.082   .     S
C1136  C1204   1.416   .     S
C1137  O1163   1.293   .     A
C1137  O1161   1.297   .     A
C1137  C1139   1.471   .     S
C1138  O1164   1.292   .     A
C1138  C1140   1.461   .     S
C1138  O1162   1.294   .     A
C1139  C1143   1.402   .     A
C1139  C1145   1.406   .     A
C1140  C1146   1.395   .     A
C1140  C1144   1.401   .     A
C1141  C1149   1.409   .     A
C1141  O1173   1.382   .     S
C1141  C1143   1.404   .     A
C1142  O1175   1.382   .     S
C1142  C1144   1.407   .     A
C1142  C1150   1.411   .     A
C1143  H1172   1.083   .     S
C1144  H1171   1.084   .     S
C1145  C1147   1.410   .     A
C1145  O1169   1.383   .     S
C1146  C1148   1.409   .     A
C1146  O1167   1.383   .     S
C1147  C1149   1.417   .     A
C1147  C1151   1.416   .     A
C1148  C1152   1.416   .     A
C1148  C1150   1.418   .     A
C1149  C495    1.401   1_556 S
C1151  C522    1.403   1_556 S
N1155  Zn1165  2.009   .     S
N1156  Zn1166  2.009   .     S
O1157  Zn1165  1.990   .     S
O1158  Zn1166  1.990   .     S
O1159  Zn1166  1.986   .     S
O1160  Zn1165  1.986   .     S
O1161  Zn1165  1.942   .     S
O1162  Zn1166  1.942   .     S
O1163  Zn1166  1.904   .     S
O1164  Zn1165  1.904   .     S
O1167  H1168   0.991   .     S
O1169  H1170   0.991   .     S
H1174  O1243   0.992   .     S
O1175  H1176   0.992   .     S
O1177  H1178   0.990   .     S
O1179  H1180   0.991   .     S
O1181  H1182   0.989   .     S
O1183  H1184   0.990   .     S
C1191  O1227   1.279   .     A
C1191  C1202   1.410   .     S
C1191  O1229   1.281   .     A
C1192  O1228   1.279   .     A
C1192  C1201   1.410   .     S
C1192  O1230   1.281   .     A
C1193  C1195   1.395   .     A
C1193  C1222   1.426   .     A
C1193  O1247   1.379   .     S
C1194  O1249   1.380   .     S
C1194  C1221   1.426   .     A
C1194  C1196   1.396   .     A
C1195  H1223   1.083   .     S
C1196  H1224   1.084   .     S
C1196  C590    1.401   1_556 S
C1197  C1202   1.409   .     A
C1197  O1251   1.382   .     S
C1197  C779    1.373   1_565 S
C1198  C1201   1.408   .     A
C1198  O1253   1.382   .     S
C1199  C1201   1.395   .     A
C1199  H1255   1.085   .     S
C1200  C1202   1.395   .     A
C1200  H1256   1.085   .     S
C1200  C778    1.373   1_565 S
C1203  N1226   1.366   .     A
C1203  H1257   1.082   .     S
C1203  C1065   1.416   1_655 S
C1204  N1225   1.366   .     A
C1204  H1258   1.082   .     S
C1205  H1259   1.081   .     S
C1205  N1225   1.366   .     A
C1206  N1226   1.367   .     A
C1206  H1260   1.082   .     S
C1206  C1064   1.416   1_655 S
C1207  O1233   1.293   .     A
C1207  O1231   1.297   .     A
C1207  C1209   1.471   .     S
C1208  O1234   1.292   .     A
C1208  C1210   1.461   .     S
C1208  O1232   1.294   .     A
C1209  C1213   1.402   .     A
C1209  C1215   1.406   .     A
C1210  C1216   1.395   .     A
C1210  C1214   1.401   .     A
C1211  C1219   1.409   .     A
C1211  O1243   1.382   .     S
C1211  C1213   1.404   .     A
C1212  O1245   1.382   .     S
C1212  C1214   1.407   .     A
C1212  C1220   1.411   .     A
C1213  H1242   1.083   .     S
C1214  H1241   1.084   .     S
C1215  C1217   1.410   .     A
C1215  O1239   1.383   .     S
C1216  C1218   1.409   .     A
C1216  O1237   1.383   .     S
C1217  C1219   1.417   .     A
C1217  C1221   1.416   .     A
C1218  C1222   1.416   .     A
C1218  C1220   1.418   .     A
C1219  C565    1.401   1_556 S
C1221  C592    1.403   1_556 S
N1225  Zn1235  2.009   .     S
N1226  Zn1236  2.009   .     S
O1227  Zn1235  1.990   .     S
O1228  Zn1236  1.990   .     S
O1229  Zn1236  1.986   .     S
O1230  Zn1235  1.986   .     S
O1231  Zn1235  1.942   .     S
O1232  Zn1236  1.942   .     S
O1233  Zn1236  1.904   .     S
O1234  Zn1235  1.904   .     S
O1237  H1238   0.991   .     S
O1239  H1240   0.991   .     S
H1244  O1103   0.992   1_655 S
O1245  H1246   0.992   .     S
O1247  H1248   0.990   .     S
O1249  H1250   0.991   .     S
O1251  H1252   0.989   .     S
O1253  H1254   0.990   .     S
