data_str_m2_o1_o1_pcu_sym.19
_audit_creation_date              2020-01-03
_audit_creation_method            'Materials Studio'
_symmetry_space_group_name_H-M    'P1'
_symmetry_Int_Tables_number       1
_symmetry_cell_setting            triclinic
loop_
_symmetry_equiv_pos_as_xyz
  x,y,z
_cell_length_a                    30.8526
_cell_length_b                    30.5173
_cell_length_c                    28.5097
_cell_angle_alpha                 91.1407
_cell_angle_beta                  88.6185
_cell_angle_gamma                 90.4990
loop_
_atom_site_label
_atom_site_type_symbol
_atom_site_fract_x
_atom_site_fract_y
_atom_site_fract_z
_atom_site_U_iso_or_equiv
_atom_site_adp_type
_atom_site_occupancy
C1     C     0.06067   0.19168   0.16573   0.00000  Uiso   1.00
C2     C     0.00355   0.28836   0.30924   0.00000  Uiso   1.00
C3     C     0.00348   0.28837   0.02555   0.00000  Uiso   1.00
C4     C     0.49652   0.21163   0.30779   0.00000  Uiso   1.00
C5     C     0.24645   0.46164   0.02409   0.00000  Uiso   1.00
C6     C     0.25355   0.03836   0.30924   0.00000  Uiso   1.00
C7     C     0.25349   0.03837   0.02555   0.00000  Uiso   1.00
C8     C     0.24651   0.46163   0.30779   0.00000  Uiso   1.00
C9     C     0.41728   0.11481   0.14896   0.00000  Uiso   1.00
C10    C     0.08272   0.38519   0.18439   0.00000  Uiso   1.00
C11    C     0.13410   0.33302   0.14642   0.00000  Uiso   1.00
C12    C     0.43933   0.30832   0.16760   0.00000  Uiso   1.00
C13    C     0.36589   0.16699   0.18689   0.00000  Uiso   1.00
C14    C     0.12404   0.15807   0.20225   0.00000  Uiso   1.00
C15    C     0.37596   0.34192   0.13108   0.00000  Uiso   1.00
C16    C     0.40020   0.37117   0.20735   0.00000  Uiso   1.00
C17    C     0.09978   0.12881   0.12599   0.00000  Uiso   1.00
C18    C     0.16728   0.36481   0.14894   0.00000  Uiso   1.00
C19    C     0.33272   0.13519   0.18439   0.00000  Uiso   1.00
C20    C     0.38410   0.08302   0.14643   0.00000  Uiso   1.00
C21    C     0.11590   0.41699   0.18690   0.00000  Uiso   1.00
C22    C     0.37403   0.40807   0.20226   0.00000  Uiso   1.00
C23    C     0.44039   0.19086   0.16690   0.00000  Uiso   1.00
C24    C     0.12595   0.09191   0.13108   0.00000  Uiso   1.00
C25    C     0.15020   0.12117   0.20735   0.00000  Uiso   1.00
C26    C     0.34979   0.37882   0.12598   0.00000  Uiso   1.00
C27    C     0.09263   0.34315   0.16562   0.00000  Uiso   1.00
C28    C     0.40737   0.15685   0.16772   0.00000  Uiso   1.00
C29    C     0.40392   0.34018   0.16956   0.00000  Uiso   1.00
C30    C     0.09607   0.15981   0.16377   0.00000  Uiso   1.00
C31    C     0.34263   0.09316   0.16562   0.00000  Uiso   1.00
C32    C     0.15737   0.40685   0.16772   0.00000  Uiso   1.00
C33    C     0.15391   0.09017   0.16956   0.00000  Uiso   1.00
C34    C     0.05961   0.30915   0.16644   0.00000  Uiso   1.00
C35    C     0.34608   0.40982   0.16377   0.00000  Uiso   1.00
C36    C     0.46336   0.10306   0.13389   0.00000  Uiso   1.00
C37    C     0.03665   0.39693   0.19951   0.00000  Uiso   1.00
C38    C     0.14198   0.28816   0.12355   0.00000  Uiso   1.00
C39    C     0.35800   0.21187   0.20974   0.00000  Uiso   1.00
C40    C     0.12923   0.19723   0.23565   0.00000  Uiso   1.00
C41    C     0.37078   0.30277   0.09767   0.00000  Uiso   1.00
C42    C     0.42240   0.36431   0.25374   0.00000  Uiso   1.00
C43    C     0.07755   0.13565   0.07961   0.00000  Uiso   1.00
C44    C     0.21336   0.35307   0.13385   0.00000  Uiso   1.00
C45    C     0.31067   0.44168   0.16573   0.00000  Uiso   1.00
C46    C     0.28664   0.14693   0.19951   0.00000  Uiso   1.00
C47    C     0.39199   0.03815   0.12356   0.00000  Uiso   1.00
C48    C     0.10801   0.46186   0.20975   0.00000  Uiso   1.00
C49    C     0.37922   0.44722   0.23566   0.00000  Uiso   1.00
C50    C     0.12077   0.05275   0.09768   0.00000  Uiso   1.00
C51    C     0.17240   0.11431   0.25374   0.00000  Uiso   1.00
C52    C     0.32758   0.38567   0.07960   0.00000  Uiso   1.00
C53    C     0.18933   0.05832   0.16760   0.00000  Uiso   1.00
C54    C     0.19039   0.44085   0.16690   0.00000  Uiso   1.00
C55    C     0.30961   0.05915   0.16644   0.00000  Uiso   1.00
C56    C     0.49645   0.21164   0.02409   0.00000  Uiso   1.00
Cu57   Cu    0.00000   0.25000   0.21355   0.00000  Uiso   1.00
Cu58   Cu    0.00000   0.25000   0.11978   0.00000  Uiso   1.00
Cu59   Cu    0.25000  -0.00000   0.21355   0.00000  Uiso   1.00
Cu60   Cu    0.25000  -0.00000   0.11978   0.00000  Uiso   1.00
H61    H     0.49345   0.18096   0.04223   0.00000  Uiso   1.00
H62    H     0.47349   0.07309   0.15202   0.00000  Uiso   1.00
H63    H     0.46531   0.09754   0.09528   0.00000  Uiso   1.00
H64    H     0.01236   0.37161   0.19010   0.00000  Uiso   1.00
H65    H     0.03473   0.40251   0.23810   0.00000  Uiso   1.00
H66    H     0.02647   0.42686   0.18133   0.00000  Uiso   1.00
H67    H     0.12057   0.28358   0.09309   0.00000  Uiso   1.00
H68    H     0.17537   0.28290   0.10982   0.00000  Uiso   1.00
H69    H     0.13489   0.26206   0.14913   0.00000  Uiso   1.00
H70    H     0.37939   0.21646   0.24021   0.00000  Uiso   1.00
H71    H     0.36512   0.23795   0.18414   0.00000  Uiso   1.00
H72    H     0.00655   0.31904   0.29111   0.00000  Uiso   1.00
H73    H     0.32460   0.21715   0.22343   0.00000  Uiso   1.00
H74    H     0.11888   0.22837   0.22024   0.00000  Uiso   1.00
H75    H     0.11037   0.19178   0.26872   0.00000  Uiso   1.00
H76    H     0.16397   0.20269   0.24351   0.00000  Uiso   1.00
H77    H     0.38114   0.27163   0.11305   0.00000  Uiso   1.00
H78    H     0.33604   0.29729   0.08981   0.00000  Uiso   1.00
H79    H     0.38962   0.30823   0.06459   0.00000  Uiso   1.00
H80    H     0.41353   0.33158   0.26751   0.00000  Uiso   1.00
H81    H     0.45798   0.36758   0.24916   0.00000  Uiso   1.00
H82    H     0.41218   0.38741   0.28221   0.00000  Uiso   1.00
H83    H     0.00623   0.31910   0.04486   0.00000  Uiso   1.00
H84    H     0.08643   0.16837   0.06582   0.00000  Uiso   1.00
H85    H     0.08774   0.11253   0.05114   0.00000  Uiso   1.00
H86    H     0.04198   0.13240   0.08422   0.00000  Uiso   1.00
H87    H     0.23765   0.37837   0.14331   0.00000  Uiso   1.00
H88    H     0.22350   0.32311   0.15198   0.00000  Uiso   1.00
H89    H     0.21529   0.34754   0.09525   0.00000  Uiso   1.00
H90    H     0.26236   0.12161   0.19010   0.00000  Uiso   1.00
H91    H     0.28473   0.15251   0.23810   0.00000  Uiso   1.00
H92    H     0.27646   0.17687   0.18134   0.00000  Uiso   1.00
H93    H     0.37057   0.03356   0.09312   0.00000  Uiso   1.00
H94    H     0.49377   0.18090   0.28847   0.00000  Uiso   1.00
H95    H     0.42538   0.03290   0.10982   0.00000  Uiso   1.00
H96    H     0.38492   0.01206   0.14916   0.00000  Uiso   1.00
H97    H     0.12940   0.46645   0.24021   0.00000  Uiso   1.00
H98    H     0.11512   0.48794   0.18415   0.00000  Uiso   1.00
H99    H     0.07461   0.46713   0.22344   0.00000  Uiso   1.00
H100   H     0.36887   0.47836   0.22027   0.00000  Uiso   1.00
H101   H     0.36036   0.44176   0.26874   0.00000  Uiso   1.00
H102   H     0.41396   0.45269   0.24353   0.00000  Uiso   1.00
H103   H     0.13114   0.02162   0.11306   0.00000  Uiso   1.00
H104   H     0.08603   0.04727   0.08982   0.00000  Uiso   1.00
H105   H     0.24344   0.43096   0.04223   0.00000  Uiso   1.00
H106   H     0.13962   0.05822   0.06460   0.00000  Uiso   1.00
H107   H     0.16353   0.08158   0.26751   0.00000  Uiso   1.00
H108   H     0.20798   0.11758   0.24915   0.00000  Uiso   1.00
H109   H     0.16218   0.13742   0.28220   0.00000  Uiso   1.00
H110   H     0.33645   0.41840   0.06582   0.00000  Uiso   1.00
H111   H     0.33778   0.36256   0.05113   0.00000  Uiso   1.00
H112   H     0.29200   0.38241   0.08419   0.00000  Uiso   1.00
H113   H     0.25656   0.06904   0.29111   0.00000  Uiso   1.00
H114   H     0.25624   0.06910   0.04486   0.00000  Uiso   1.00
H115   H     0.24376   0.43090   0.28847   0.00000  Uiso   1.00
H116   H     0.48766   0.12835   0.14338   0.00000  Uiso   1.00
N117   N     0.00000   0.25000   0.28402   0.00000  Uiso   1.00
N118   N     0.00000   0.25000   0.04931   0.00000  Uiso   1.00
N119   N     0.25000  -0.00000   0.28402   0.00000  Uiso   1.00
N120   N     0.25000  -0.00000   0.04931   0.00000  Uiso   1.00
O121   O     0.04509   0.20491   0.20625   0.00000  Uiso   1.00
O122   O     0.20492   0.04509   0.12709   0.00000  Uiso   1.00
O123   O     0.20492   0.04509   0.20625   0.00000  Uiso   1.00
O124   O     0.29509   0.45491   0.12709   0.00000  Uiso   1.00
O125   O     0.20492   0.45491   0.12709   0.00000  Uiso   1.00
O126   O     0.29509   0.04509   0.20625   0.00000  Uiso   1.00
O127   O     0.29509   0.04509   0.12709   0.00000  Uiso   1.00
O128   O     0.20492   0.45491   0.20625   0.00000  Uiso   1.00
O129   O     0.45492   0.29509   0.12709   0.00000  Uiso   1.00
O130   O     0.45492   0.29509   0.20625   0.00000  Uiso   1.00
O131   O     0.04509   0.20491   0.12709   0.00000  Uiso   1.00
O132   O     0.45492   0.20491   0.12709   0.00000  Uiso   1.00
O133   O     0.04509   0.29509   0.20625   0.00000  Uiso   1.00
O134   O     0.04509   0.29509   0.12709   0.00000  Uiso   1.00
O135   O     0.45492   0.20491   0.20625   0.00000  Uiso   1.00
O136   O     0.29509   0.45491   0.20625   0.00000  Uiso   1.00
C137   C     0.56067   0.19168   0.16573   0.00000  Uiso   1.00
C138   C     0.50355   0.28836   0.30924   0.00000  Uiso   1.00
C139   C     0.50348   0.28837   0.02555   0.00000  Uiso   1.00
C140   C     0.99652   0.21163   0.30779   0.00000  Uiso   1.00
C141   C     0.74645   0.46164   0.02409   0.00000  Uiso   1.00
C142   C     0.75355   0.03836   0.30924   0.00000  Uiso   1.00
C143   C     0.75349   0.03837   0.02555   0.00000  Uiso   1.00
C144   C     0.74651   0.46163   0.30779   0.00000  Uiso   1.00
C145   C     0.91728   0.11481   0.14896   0.00000  Uiso   1.00
C146   C     0.58272   0.38519   0.18439   0.00000  Uiso   1.00
C147   C     0.63410   0.33302   0.14642   0.00000  Uiso   1.00
C148   C     0.93933   0.30832   0.16760   0.00000  Uiso   1.00
C149   C     0.86589   0.16699   0.18689   0.00000  Uiso   1.00
C150   C     0.62404   0.15807   0.20225   0.00000  Uiso   1.00
C151   C     0.87596   0.34192   0.13108   0.00000  Uiso   1.00
C152   C     0.90020   0.37117   0.20735   0.00000  Uiso   1.00
C153   C     0.59978   0.12881   0.12599   0.00000  Uiso   1.00
C154   C     0.66728   0.36481   0.14894   0.00000  Uiso   1.00
C155   C     0.83272   0.13519   0.18439   0.00000  Uiso   1.00
C156   C     0.88410   0.08302   0.14643   0.00000  Uiso   1.00
C157   C     0.61590   0.41699   0.18690   0.00000  Uiso   1.00
C158   C     0.87403   0.40807   0.20226   0.00000  Uiso   1.00
C159   C     0.94039   0.19086   0.16690   0.00000  Uiso   1.00
C160   C     0.62595   0.09191   0.13108   0.00000  Uiso   1.00
C161   C     0.65020   0.12117   0.20735   0.00000  Uiso   1.00
C162   C     0.84979   0.37882   0.12598   0.00000  Uiso   1.00
C163   C     0.59263   0.34315   0.16562   0.00000  Uiso   1.00
C164   C     0.90737   0.15685   0.16772   0.00000  Uiso   1.00
C165   C     0.90392   0.34018   0.16956   0.00000  Uiso   1.00
C166   C     0.59607   0.15981   0.16377   0.00000  Uiso   1.00
C167   C     0.84263   0.09316   0.16562   0.00000  Uiso   1.00
C168   C     0.65737   0.40685   0.16772   0.00000  Uiso   1.00
C169   C     0.65391   0.09017   0.16956   0.00000  Uiso   1.00
C170   C     0.55961   0.30915   0.16644   0.00000  Uiso   1.00
C171   C     0.84608   0.40982   0.16377   0.00000  Uiso   1.00
C172   C     0.96336   0.10306   0.13389   0.00000  Uiso   1.00
C173   C     0.53665   0.39693   0.19951   0.00000  Uiso   1.00
C174   C     0.64198   0.28816   0.12355   0.00000  Uiso   1.00
C175   C     0.85800   0.21187   0.20974   0.00000  Uiso   1.00
C176   C     0.62923   0.19723   0.23565   0.00000  Uiso   1.00
C177   C     0.87078   0.30277   0.09767   0.00000  Uiso   1.00
C178   C     0.92240   0.36431   0.25374   0.00000  Uiso   1.00
C179   C     0.57755   0.13565   0.07961   0.00000  Uiso   1.00
C180   C     0.71336   0.35307   0.13385   0.00000  Uiso   1.00
C181   C     0.81067   0.44168   0.16573   0.00000  Uiso   1.00
C182   C     0.78664   0.14693   0.19951   0.00000  Uiso   1.00
C183   C     0.89199   0.03815   0.12356   0.00000  Uiso   1.00
C184   C     0.60801   0.46186   0.20975   0.00000  Uiso   1.00
C185   C     0.87922   0.44722   0.23566   0.00000  Uiso   1.00
C186   C     0.62077   0.05275   0.09768   0.00000  Uiso   1.00
C187   C     0.67240   0.11431   0.25374   0.00000  Uiso   1.00
C188   C     0.82758   0.38567   0.07960   0.00000  Uiso   1.00
C189   C     0.68933   0.05832   0.16760   0.00000  Uiso   1.00
C190   C     0.69039   0.44085   0.16690   0.00000  Uiso   1.00
C191   C     0.80961   0.05915   0.16644   0.00000  Uiso   1.00
C192   C     0.99645   0.21164   0.02409   0.00000  Uiso   1.00
Cu193  Cu    0.50000   0.25000   0.21355   0.00000  Uiso   1.00
Cu194  Cu    0.50000   0.25000   0.11978   0.00000  Uiso   1.00
Cu195  Cu    0.75000  -0.00000   0.21355   0.00000  Uiso   1.00
Cu196  Cu    0.75000  -0.00000   0.11978   0.00000  Uiso   1.00
H197   H     0.99345   0.18096   0.04223   0.00000  Uiso   1.00
H198   H     0.97349   0.07309   0.15202   0.00000  Uiso   1.00
H199   H     0.96531   0.09754   0.09528   0.00000  Uiso   1.00
H200   H     0.51236   0.37161   0.19010   0.00000  Uiso   1.00
H201   H     0.53473   0.40251   0.23810   0.00000  Uiso   1.00
H202   H     0.52647   0.42686   0.18133   0.00000  Uiso   1.00
H203   H     0.62057   0.28358   0.09309   0.00000  Uiso   1.00
H204   H     0.67537   0.28290   0.10982   0.00000  Uiso   1.00
H205   H     0.63489   0.26206   0.14913   0.00000  Uiso   1.00
H206   H     0.87939   0.21646   0.24021   0.00000  Uiso   1.00
H207   H     0.86512   0.23795   0.18414   0.00000  Uiso   1.00
H208   H     0.50655   0.31904   0.29111   0.00000  Uiso   1.00
H209   H     0.82460   0.21715   0.22343   0.00000  Uiso   1.00
H210   H     0.61888   0.22837   0.22024   0.00000  Uiso   1.00
H211   H     0.61037   0.19178   0.26872   0.00000  Uiso   1.00
H212   H     0.66397   0.20269   0.24351   0.00000  Uiso   1.00
H213   H     0.88114   0.27163   0.11305   0.00000  Uiso   1.00
H214   H     0.83604   0.29729   0.08981   0.00000  Uiso   1.00
H215   H     0.88962   0.30823   0.06459   0.00000  Uiso   1.00
H216   H     0.91353   0.33158   0.26751   0.00000  Uiso   1.00
H217   H     0.95798   0.36758   0.24916   0.00000  Uiso   1.00
H218   H     0.91218   0.38741   0.28221   0.00000  Uiso   1.00
H219   H     0.50623   0.31910   0.04486   0.00000  Uiso   1.00
H220   H     0.58643   0.16837   0.06582   0.00000  Uiso   1.00
H221   H     0.58774   0.11253   0.05114   0.00000  Uiso   1.00
H222   H     0.54198   0.13240   0.08422   0.00000  Uiso   1.00
H223   H     0.73765   0.37837   0.14331   0.00000  Uiso   1.00
H224   H     0.72350   0.32311   0.15198   0.00000  Uiso   1.00
H225   H     0.71529   0.34754   0.09525   0.00000  Uiso   1.00
H226   H     0.76236   0.12161   0.19010   0.00000  Uiso   1.00
H227   H     0.78473   0.15251   0.23810   0.00000  Uiso   1.00
H228   H     0.77646   0.17687   0.18134   0.00000  Uiso   1.00
H229   H     0.87057   0.03356   0.09312   0.00000  Uiso   1.00
H230   H     0.99377   0.18090   0.28847   0.00000  Uiso   1.00
H231   H     0.92538   0.03290   0.10982   0.00000  Uiso   1.00
H232   H     0.88492   0.01206   0.14916   0.00000  Uiso   1.00
H233   H     0.62940   0.46645   0.24021   0.00000  Uiso   1.00
H234   H     0.61512   0.48794   0.18415   0.00000  Uiso   1.00
H235   H     0.57461   0.46713   0.22344   0.00000  Uiso   1.00
H236   H     0.86887   0.47836   0.22027   0.00000  Uiso   1.00
H237   H     0.86036   0.44176   0.26874   0.00000  Uiso   1.00
H238   H     0.91396   0.45269   0.24353   0.00000  Uiso   1.00
H239   H     0.63114   0.02162   0.11306   0.00000  Uiso   1.00
H240   H     0.58603   0.04727   0.08982   0.00000  Uiso   1.00
H241   H     0.74344   0.43096   0.04223   0.00000  Uiso   1.00
H242   H     0.63962   0.05822   0.06460   0.00000  Uiso   1.00
H243   H     0.66353   0.08158   0.26751   0.00000  Uiso   1.00
H244   H     0.70798   0.11758   0.24915   0.00000  Uiso   1.00
H245   H     0.66218   0.13742   0.28220   0.00000  Uiso   1.00
H246   H     0.83645   0.41840   0.06582   0.00000  Uiso   1.00
H247   H     0.83778   0.36256   0.05113   0.00000  Uiso   1.00
H248   H     0.79200   0.38241   0.08419   0.00000  Uiso   1.00
H249   H     0.75656   0.06904   0.29111   0.00000  Uiso   1.00
H250   H     0.75624   0.06910   0.04486   0.00000  Uiso   1.00
H251   H     0.74376   0.43090   0.28847   0.00000  Uiso   1.00
H252   H     0.98766   0.12835   0.14338   0.00000  Uiso   1.00
N253   N     0.50000   0.25000   0.28402   0.00000  Uiso   1.00
N254   N     0.50000   0.25000   0.04931   0.00000  Uiso   1.00
N255   N     0.75000  -0.00000   0.28402   0.00000  Uiso   1.00
N256   N     0.75000  -0.00000   0.04931   0.00000  Uiso   1.00
O257   O     0.54509   0.20491   0.20625   0.00000  Uiso   1.00
O258   O     0.70492   0.04509   0.12709   0.00000  Uiso   1.00
O259   O     0.70492   0.04509   0.20625   0.00000  Uiso   1.00
O260   O     0.79509   0.45491   0.12709   0.00000  Uiso   1.00
O261   O     0.70492   0.45491   0.12709   0.00000  Uiso   1.00
O262   O     0.79509   0.04509   0.20625   0.00000  Uiso   1.00
O263   O     0.79509   0.04509   0.12709   0.00000  Uiso   1.00
O264   O     0.70492   0.45491   0.20625   0.00000  Uiso   1.00
O265   O     0.95492   0.29509   0.12709   0.00000  Uiso   1.00
O266   O     0.95492   0.29509   0.20625   0.00000  Uiso   1.00
O267   O     0.54509   0.20491   0.12709   0.00000  Uiso   1.00
O268   O     0.95492   0.20491   0.12709   0.00000  Uiso   1.00
O269   O     0.54509   0.29509   0.20625   0.00000  Uiso   1.00
O270   O     0.54509   0.29509   0.12709   0.00000  Uiso   1.00
O271   O     0.95492   0.20491   0.20625   0.00000  Uiso   1.00
O272   O     0.79509   0.45491   0.20625   0.00000  Uiso   1.00
C273   C     0.06067   0.69168   0.16573   0.00000  Uiso   1.00
C274   C     0.00355   0.78836   0.30924   0.00000  Uiso   1.00
C275   C     0.00348   0.78837   0.02555   0.00000  Uiso   1.00
C276   C     0.49652   0.71163   0.30779   0.00000  Uiso   1.00
C277   C     0.24645   0.96164   0.02409   0.00000  Uiso   1.00
C278   C     0.25355   0.53836   0.30924   0.00000  Uiso   1.00
C279   C     0.25349   0.53837   0.02555   0.00000  Uiso   1.00
C280   C     0.24651   0.96163   0.30779   0.00000  Uiso   1.00
C281   C     0.41728   0.61481   0.14896   0.00000  Uiso   1.00
C282   C     0.08272   0.88519   0.18439   0.00000  Uiso   1.00
C283   C     0.13410   0.83302   0.14642   0.00000  Uiso   1.00
C284   C     0.43933   0.80832   0.16760   0.00000  Uiso   1.00
C285   C     0.36589   0.66699   0.18689   0.00000  Uiso   1.00
C286   C     0.12404   0.65807   0.20225   0.00000  Uiso   1.00
C287   C     0.37596   0.84192   0.13108   0.00000  Uiso   1.00
C288   C     0.40020   0.87117   0.20735   0.00000  Uiso   1.00
C289   C     0.09978   0.62881   0.12599   0.00000  Uiso   1.00
C290   C     0.16728   0.86481   0.14894   0.00000  Uiso   1.00
C291   C     0.33272   0.63519   0.18439   0.00000  Uiso   1.00
C292   C     0.38410   0.58302   0.14643   0.00000  Uiso   1.00
C293   C     0.11590   0.91699   0.18690   0.00000  Uiso   1.00
C294   C     0.37403   0.90807   0.20226   0.00000  Uiso   1.00
C295   C     0.44039   0.69086   0.16690   0.00000  Uiso   1.00
C296   C     0.12595   0.59191   0.13108   0.00000  Uiso   1.00
C297   C     0.15020   0.62117   0.20735   0.00000  Uiso   1.00
C298   C     0.34979   0.87882   0.12598   0.00000  Uiso   1.00
C299   C     0.09263   0.84315   0.16562   0.00000  Uiso   1.00
C300   C     0.40737   0.65685   0.16772   0.00000  Uiso   1.00
C301   C     0.40392   0.84018   0.16956   0.00000  Uiso   1.00
C302   C     0.09607   0.65981   0.16377   0.00000  Uiso   1.00
C303   C     0.34263   0.59316   0.16562   0.00000  Uiso   1.00
C304   C     0.15737   0.90685   0.16772   0.00000  Uiso   1.00
C305   C     0.15391   0.59017   0.16956   0.00000  Uiso   1.00
C306   C     0.05961   0.80915   0.16644   0.00000  Uiso   1.00
C307   C     0.34608   0.90982   0.16377   0.00000  Uiso   1.00
C308   C     0.46336   0.60306   0.13389   0.00000  Uiso   1.00
C309   C     0.03665   0.89693   0.19951   0.00000  Uiso   1.00
C310   C     0.14198   0.78816   0.12355   0.00000  Uiso   1.00
C311   C     0.35800   0.71187   0.20974   0.00000  Uiso   1.00
C312   C     0.12923   0.69723   0.23565   0.00000  Uiso   1.00
C313   C     0.37078   0.80277   0.09767   0.00000  Uiso   1.00
C314   C     0.42240   0.86431   0.25374   0.00000  Uiso   1.00
C315   C     0.07755   0.63565   0.07961   0.00000  Uiso   1.00
C316   C     0.21336   0.85307   0.13385   0.00000  Uiso   1.00
C317   C     0.31067   0.94168   0.16573   0.00000  Uiso   1.00
C318   C     0.28664   0.64693   0.19951   0.00000  Uiso   1.00
C319   C     0.39199   0.53815   0.12356   0.00000  Uiso   1.00
C320   C     0.10801   0.96186   0.20975   0.00000  Uiso   1.00
C321   C     0.37922   0.94722   0.23566   0.00000  Uiso   1.00
C322   C     0.12077   0.55275   0.09768   0.00000  Uiso   1.00
C323   C     0.17240   0.61431   0.25374   0.00000  Uiso   1.00
C324   C     0.32758   0.88567   0.07960   0.00000  Uiso   1.00
C325   C     0.18933   0.55832   0.16760   0.00000  Uiso   1.00
C326   C     0.19039   0.94085   0.16690   0.00000  Uiso   1.00
C327   C     0.30961   0.55915   0.16644   0.00000  Uiso   1.00
C328   C     0.49645   0.71164   0.02409   0.00000  Uiso   1.00
Cu329  Cu    0.00000   0.75000   0.21355   0.00000  Uiso   1.00
Cu330  Cu    0.00000   0.75000   0.11978   0.00000  Uiso   1.00
Cu331  Cu    0.25000   0.50000   0.21355   0.00000  Uiso   1.00
Cu332  Cu    0.25000   0.50000   0.11978   0.00000  Uiso   1.00
H333   H     0.49345   0.68096   0.04223   0.00000  Uiso   1.00
H334   H     0.47349   0.57309   0.15202   0.00000  Uiso   1.00
H335   H     0.46531   0.59754   0.09528   0.00000  Uiso   1.00
H336   H     0.01236   0.87161   0.19010   0.00000  Uiso   1.00
H337   H     0.03473   0.90251   0.23810   0.00000  Uiso   1.00
H338   H     0.02647   0.92686   0.18133   0.00000  Uiso   1.00
H339   H     0.12057   0.78358   0.09309   0.00000  Uiso   1.00
H340   H     0.17537   0.78290   0.10982   0.00000  Uiso   1.00
H341   H     0.13489   0.76206   0.14913   0.00000  Uiso   1.00
H342   H     0.37939   0.71646   0.24021   0.00000  Uiso   1.00
H343   H     0.36512   0.73795   0.18414   0.00000  Uiso   1.00
H344   H     0.00655   0.81904   0.29111   0.00000  Uiso   1.00
H345   H     0.32460   0.71715   0.22343   0.00000  Uiso   1.00
H346   H     0.11888   0.72837   0.22024   0.00000  Uiso   1.00
H347   H     0.11037   0.69178   0.26872   0.00000  Uiso   1.00
H348   H     0.16397   0.70269   0.24351   0.00000  Uiso   1.00
H349   H     0.38114   0.77163   0.11305   0.00000  Uiso   1.00
H350   H     0.33604   0.79729   0.08981   0.00000  Uiso   1.00
H351   H     0.38962   0.80823   0.06459   0.00000  Uiso   1.00
H352   H     0.41353   0.83158   0.26751   0.00000  Uiso   1.00
H353   H     0.45798   0.86758   0.24916   0.00000  Uiso   1.00
H354   H     0.41218   0.88741   0.28221   0.00000  Uiso   1.00
H355   H     0.00623   0.81910   0.04486   0.00000  Uiso   1.00
H356   H     0.08643   0.66837   0.06582   0.00000  Uiso   1.00
H357   H     0.08774   0.61253   0.05114   0.00000  Uiso   1.00
H358   H     0.04198   0.63240   0.08422   0.00000  Uiso   1.00
H359   H     0.23765   0.87837   0.14331   0.00000  Uiso   1.00
H360   H     0.22350   0.82311   0.15198   0.00000  Uiso   1.00
H361   H     0.21529   0.84754   0.09525   0.00000  Uiso   1.00
H362   H     0.26236   0.62161   0.19010   0.00000  Uiso   1.00
H363   H     0.28473   0.65251   0.23810   0.00000  Uiso   1.00
H364   H     0.27646   0.67687   0.18134   0.00000  Uiso   1.00
H365   H     0.37057   0.53356   0.09312   0.00000  Uiso   1.00
H366   H     0.49377   0.68090   0.28847   0.00000  Uiso   1.00
H367   H     0.42538   0.53290   0.10982   0.00000  Uiso   1.00
H368   H     0.38492   0.51206   0.14916   0.00000  Uiso   1.00
H369   H     0.12940   0.96645   0.24021   0.00000  Uiso   1.00
H370   H     0.11512   0.98794   0.18415   0.00000  Uiso   1.00
H371   H     0.07461   0.96713   0.22344   0.00000  Uiso   1.00
H372   H     0.36887   0.97836   0.22027   0.00000  Uiso   1.00
H373   H     0.36036   0.94176   0.26874   0.00000  Uiso   1.00
H374   H     0.41396   0.95269   0.24353   0.00000  Uiso   1.00
H375   H     0.13114   0.52162   0.11306   0.00000  Uiso   1.00
H376   H     0.08603   0.54727   0.08982   0.00000  Uiso   1.00
H377   H     0.24344   0.93096   0.04223   0.00000  Uiso   1.00
H378   H     0.13962   0.55822   0.06460   0.00000  Uiso   1.00
H379   H     0.16353   0.58158   0.26751   0.00000  Uiso   1.00
H380   H     0.20798   0.61758   0.24915   0.00000  Uiso   1.00
H381   H     0.16218   0.63742   0.28220   0.00000  Uiso   1.00
H382   H     0.33645   0.91840   0.06582   0.00000  Uiso   1.00
H383   H     0.33778   0.86256   0.05113   0.00000  Uiso   1.00
H384   H     0.29200   0.88241   0.08419   0.00000  Uiso   1.00
H385   H     0.25656   0.56904   0.29111   0.00000  Uiso   1.00
H386   H     0.25624   0.56910   0.04486   0.00000  Uiso   1.00
H387   H     0.24376   0.93090   0.28847   0.00000  Uiso   1.00
H388   H     0.48766   0.62835   0.14338   0.00000  Uiso   1.00
N389   N     0.00000   0.75000   0.28402   0.00000  Uiso   1.00
N390   N     0.00000   0.75000   0.04931   0.00000  Uiso   1.00
N391   N     0.25000   0.50000   0.28402   0.00000  Uiso   1.00
N392   N     0.25000   0.50000   0.04931   0.00000  Uiso   1.00
O393   O     0.04509   0.70491   0.20625   0.00000  Uiso   1.00
O394   O     0.20492   0.54509   0.12709   0.00000  Uiso   1.00
O395   O     0.20492   0.54509   0.20625   0.00000  Uiso   1.00
O396   O     0.29509   0.95491   0.12709   0.00000  Uiso   1.00
O397   O     0.20492   0.95491   0.12709   0.00000  Uiso   1.00
O398   O     0.29509   0.54509   0.20625   0.00000  Uiso   1.00
O399   O     0.29509   0.54509   0.12709   0.00000  Uiso   1.00
O400   O     0.20492   0.95491   0.20625   0.00000  Uiso   1.00
O401   O     0.45492   0.79509   0.12709   0.00000  Uiso   1.00
O402   O     0.45492   0.79509   0.20625   0.00000  Uiso   1.00
O403   O     0.04509   0.70491   0.12709   0.00000  Uiso   1.00
O404   O     0.45492   0.70491   0.12709   0.00000  Uiso   1.00
O405   O     0.04509   0.79509   0.20625   0.00000  Uiso   1.00
O406   O     0.04509   0.79509   0.12709   0.00000  Uiso   1.00
O407   O     0.45492   0.70491   0.20625   0.00000  Uiso   1.00
O408   O     0.29509   0.95491   0.20625   0.00000  Uiso   1.00
C409   C     0.56067   0.69168   0.16573   0.00000  Uiso   1.00
C410   C     0.50355   0.78836   0.30924   0.00000  Uiso   1.00
C411   C     0.50348   0.78837   0.02555   0.00000  Uiso   1.00
C412   C     0.99652   0.71163   0.30779   0.00000  Uiso   1.00
C413   C     0.74645   0.96164   0.02409   0.00000  Uiso   1.00
C414   C     0.75355   0.53836   0.30924   0.00000  Uiso   1.00
C415   C     0.75349   0.53837   0.02555   0.00000  Uiso   1.00
C416   C     0.74651   0.96163   0.30779   0.00000  Uiso   1.00
C417   C     0.91728   0.61481   0.14896   0.00000  Uiso   1.00
C418   C     0.58272   0.88519   0.18439   0.00000  Uiso   1.00
C419   C     0.63410   0.83302   0.14642   0.00000  Uiso   1.00
C420   C     0.93933   0.80832   0.16760   0.00000  Uiso   1.00
C421   C     0.86589   0.66699   0.18689   0.00000  Uiso   1.00
C422   C     0.62404   0.65807   0.20225   0.00000  Uiso   1.00
C423   C     0.87596   0.84192   0.13108   0.00000  Uiso   1.00
C424   C     0.90020   0.87117   0.20735   0.00000  Uiso   1.00
C425   C     0.59978   0.62881   0.12599   0.00000  Uiso   1.00
C426   C     0.66728   0.86481   0.14894   0.00000  Uiso   1.00
C427   C     0.83272   0.63519   0.18439   0.00000  Uiso   1.00
C428   C     0.88410   0.58302   0.14643   0.00000  Uiso   1.00
C429   C     0.61590   0.91699   0.18690   0.00000  Uiso   1.00
C430   C     0.87403   0.90807   0.20226   0.00000  Uiso   1.00
C431   C     0.94039   0.69086   0.16690   0.00000  Uiso   1.00
C432   C     0.62595   0.59191   0.13108   0.00000  Uiso   1.00
C433   C     0.65020   0.62117   0.20735   0.00000  Uiso   1.00
C434   C     0.84979   0.87882   0.12598   0.00000  Uiso   1.00
C435   C     0.59263   0.84315   0.16562   0.00000  Uiso   1.00
C436   C     0.90737   0.65685   0.16772   0.00000  Uiso   1.00
C437   C     0.90392   0.84018   0.16956   0.00000  Uiso   1.00
C438   C     0.59607   0.65981   0.16377   0.00000  Uiso   1.00
C439   C     0.84263   0.59316   0.16562   0.00000  Uiso   1.00
C440   C     0.65737   0.90685   0.16772   0.00000  Uiso   1.00
C441   C     0.65391   0.59017   0.16956   0.00000  Uiso   1.00
C442   C     0.55961   0.80915   0.16644   0.00000  Uiso   1.00
C443   C     0.84608   0.90982   0.16377   0.00000  Uiso   1.00
C444   C     0.96336   0.60306   0.13389   0.00000  Uiso   1.00
C445   C     0.53665   0.89693   0.19951   0.00000  Uiso   1.00
C446   C     0.64198   0.78816   0.12355   0.00000  Uiso   1.00
C447   C     0.85800   0.71187   0.20974   0.00000  Uiso   1.00
C448   C     0.62923   0.69723   0.23565   0.00000  Uiso   1.00
C449   C     0.87078   0.80277   0.09767   0.00000  Uiso   1.00
C450   C     0.92240   0.86431   0.25374   0.00000  Uiso   1.00
C451   C     0.57755   0.63565   0.07961   0.00000  Uiso   1.00
C452   C     0.71336   0.85307   0.13385   0.00000  Uiso   1.00
C453   C     0.81067   0.94168   0.16573   0.00000  Uiso   1.00
C454   C     0.78664   0.64693   0.19951   0.00000  Uiso   1.00
C455   C     0.89199   0.53815   0.12356   0.00000  Uiso   1.00
C456   C     0.60801   0.96186   0.20975   0.00000  Uiso   1.00
C457   C     0.87922   0.94722   0.23566   0.00000  Uiso   1.00
C458   C     0.62077   0.55275   0.09768   0.00000  Uiso   1.00
C459   C     0.67240   0.61431   0.25374   0.00000  Uiso   1.00
C460   C     0.82758   0.88567   0.07960   0.00000  Uiso   1.00
C461   C     0.68933   0.55832   0.16760   0.00000  Uiso   1.00
C462   C     0.69039   0.94085   0.16690   0.00000  Uiso   1.00
C463   C     0.80961   0.55915   0.16644   0.00000  Uiso   1.00
C464   C     0.99645   0.71164   0.02409   0.00000  Uiso   1.00
Cu465  Cu    0.50000   0.75000   0.21355   0.00000  Uiso   1.00
Cu466  Cu    0.50000   0.75000   0.11978   0.00000  Uiso   1.00
Cu467  Cu    0.75000   0.50000   0.21355   0.00000  Uiso   1.00
Cu468  Cu    0.75000   0.50000   0.11978   0.00000  Uiso   1.00
H469   H     0.99345   0.68096   0.04223   0.00000  Uiso   1.00
H470   H     0.97349   0.57309   0.15202   0.00000  Uiso   1.00
H471   H     0.96531   0.59754   0.09528   0.00000  Uiso   1.00
H472   H     0.51236   0.87161   0.19010   0.00000  Uiso   1.00
H473   H     0.53473   0.90251   0.23810   0.00000  Uiso   1.00
H474   H     0.52647   0.92686   0.18133   0.00000  Uiso   1.00
H475   H     0.62057   0.78358   0.09309   0.00000  Uiso   1.00
H476   H     0.67537   0.78290   0.10982   0.00000  Uiso   1.00
H477   H     0.63489   0.76206   0.14913   0.00000  Uiso   1.00
H478   H     0.87939   0.71646   0.24021   0.00000  Uiso   1.00
H479   H     0.86512   0.73795   0.18414   0.00000  Uiso   1.00
H480   H     0.50655   0.81904   0.29111   0.00000  Uiso   1.00
H481   H     0.82460   0.71715   0.22343   0.00000  Uiso   1.00
H482   H     0.61888   0.72837   0.22024   0.00000  Uiso   1.00
H483   H     0.61037   0.69178   0.26872   0.00000  Uiso   1.00
H484   H     0.66397   0.70269   0.24351   0.00000  Uiso   1.00
H485   H     0.88114   0.77163   0.11305   0.00000  Uiso   1.00
H486   H     0.83604   0.79729   0.08981   0.00000  Uiso   1.00
H487   H     0.88962   0.80823   0.06459   0.00000  Uiso   1.00
H488   H     0.91353   0.83158   0.26751   0.00000  Uiso   1.00
H489   H     0.95798   0.86758   0.24916   0.00000  Uiso   1.00
H490   H     0.91218   0.88741   0.28221   0.00000  Uiso   1.00
H491   H     0.50623   0.81910   0.04486   0.00000  Uiso   1.00
H492   H     0.58643   0.66837   0.06582   0.00000  Uiso   1.00
H493   H     0.58774   0.61253   0.05114   0.00000  Uiso   1.00
H494   H     0.54198   0.63240   0.08422   0.00000  Uiso   1.00
H495   H     0.73765   0.87837   0.14331   0.00000  Uiso   1.00
H496   H     0.72350   0.82311   0.15198   0.00000  Uiso   1.00
H497   H     0.71529   0.84754   0.09525   0.00000  Uiso   1.00
H498   H     0.76236   0.62161   0.19010   0.00000  Uiso   1.00
H499   H     0.78473   0.65251   0.23810   0.00000  Uiso   1.00
H500   H     0.77646   0.67687   0.18134   0.00000  Uiso   1.00
H501   H     0.87057   0.53356   0.09312   0.00000  Uiso   1.00
H502   H     0.99377   0.68090   0.28847   0.00000  Uiso   1.00
H503   H     0.92538   0.53290   0.10982   0.00000  Uiso   1.00
H504   H     0.88492   0.51206   0.14916   0.00000  Uiso   1.00
H505   H     0.62940   0.96645   0.24021   0.00000  Uiso   1.00
H506   H     0.61512   0.98794   0.18415   0.00000  Uiso   1.00
H507   H     0.57461   0.96713   0.22344   0.00000  Uiso   1.00
H508   H     0.86887   0.97836   0.22027   0.00000  Uiso   1.00
H509   H     0.86036   0.94176   0.26874   0.00000  Uiso   1.00
H510   H     0.91396   0.95269   0.24353   0.00000  Uiso   1.00
H511   H     0.63114   0.52162   0.11306   0.00000  Uiso   1.00
H512   H     0.58603   0.54727   0.08982   0.00000  Uiso   1.00
H513   H     0.74344   0.93096   0.04223   0.00000  Uiso   1.00
H514   H     0.63962   0.55822   0.06460   0.00000  Uiso   1.00
H515   H     0.66353   0.58158   0.26751   0.00000  Uiso   1.00
H516   H     0.70798   0.61758   0.24915   0.00000  Uiso   1.00
H517   H     0.66218   0.63742   0.28220   0.00000  Uiso   1.00
H518   H     0.83645   0.91840   0.06582   0.00000  Uiso   1.00
H519   H     0.83778   0.86256   0.05113   0.00000  Uiso   1.00
H520   H     0.79200   0.88241   0.08419   0.00000  Uiso   1.00
H521   H     0.75656   0.56904   0.29111   0.00000  Uiso   1.00
H522   H     0.75624   0.56910   0.04486   0.00000  Uiso   1.00
H523   H     0.74376   0.93090   0.28847   0.00000  Uiso   1.00
H524   H     0.98766   0.62835   0.14338   0.00000  Uiso   1.00
N525   N     0.50000   0.75000   0.28402   0.00000  Uiso   1.00
N526   N     0.50000   0.75000   0.04931   0.00000  Uiso   1.00
N527   N     0.75000   0.50000   0.28402   0.00000  Uiso   1.00
N528   N     0.75000   0.50000   0.04931   0.00000  Uiso   1.00
O529   O     0.54509   0.70491   0.20625   0.00000  Uiso   1.00
O530   O     0.70492   0.54509   0.12709   0.00000  Uiso   1.00
O531   O     0.70492   0.54509   0.20625   0.00000  Uiso   1.00
O532   O     0.79509   0.95491   0.12709   0.00000  Uiso   1.00
O533   O     0.70492   0.95491   0.12709   0.00000  Uiso   1.00
O534   O     0.79509   0.54509   0.20625   0.00000  Uiso   1.00
O535   O     0.79509   0.54509   0.12709   0.00000  Uiso   1.00
O536   O     0.70492   0.95491   0.20625   0.00000  Uiso   1.00
O537   O     0.95492   0.79509   0.12709   0.00000  Uiso   1.00
O538   O     0.95492   0.79509   0.20625   0.00000  Uiso   1.00
O539   O     0.54509   0.70491   0.12709   0.00000  Uiso   1.00
O540   O     0.95492   0.70491   0.12709   0.00000  Uiso   1.00
O541   O     0.54509   0.79509   0.20625   0.00000  Uiso   1.00
O542   O     0.54509   0.79509   0.12709   0.00000  Uiso   1.00
O543   O     0.95492   0.70491   0.20625   0.00000  Uiso   1.00
O544   O     0.79509   0.95491   0.20625   0.00000  Uiso   1.00
C545   C     0.06067   0.19168   0.49906   0.00000  Uiso   1.00
C546   C     0.00355   0.28836   0.64257   0.00000  Uiso   1.00
C547   C     0.00348   0.28837   0.35888   0.00000  Uiso   1.00
C548   C     0.49652   0.21163   0.64112   0.00000  Uiso   1.00
C549   C     0.24645   0.46164   0.35743   0.00000  Uiso   1.00
C550   C     0.25355   0.03836   0.64257   0.00000  Uiso   1.00
C551   C     0.25349   0.03837   0.35888   0.00000  Uiso   1.00
C552   C     0.24651   0.46163   0.64112   0.00000  Uiso   1.00
C553   C     0.41728   0.11481   0.48229   0.00000  Uiso   1.00
C554   C     0.08272   0.38519   0.51773   0.00000  Uiso   1.00
C555   C     0.13410   0.33302   0.47976   0.00000  Uiso   1.00
C556   C     0.43933   0.30832   0.50094   0.00000  Uiso   1.00
C557   C     0.36589   0.16699   0.52023   0.00000  Uiso   1.00
C558   C     0.12404   0.15807   0.53559   0.00000  Uiso   1.00
C559   C     0.37596   0.34192   0.46441   0.00000  Uiso   1.00
C560   C     0.40020   0.37117   0.54069   0.00000  Uiso   1.00
C561   C     0.09978   0.12881   0.45932   0.00000  Uiso   1.00
C562   C     0.16728   0.36481   0.48228   0.00000  Uiso   1.00
C563   C     0.33272   0.13519   0.51772   0.00000  Uiso   1.00
C564   C     0.38410   0.08302   0.47976   0.00000  Uiso   1.00
C565   C     0.11590   0.41699   0.52023   0.00000  Uiso   1.00
C566   C     0.37403   0.40807   0.53559   0.00000  Uiso   1.00
C567   C     0.44039   0.19086   0.50023   0.00000  Uiso   1.00
C568   C     0.12595   0.09191   0.46441   0.00000  Uiso   1.00
C569   C     0.15020   0.12117   0.54068   0.00000  Uiso   1.00
C570   C     0.34979   0.37882   0.45932   0.00000  Uiso   1.00
C571   C     0.09263   0.34315   0.49895   0.00000  Uiso   1.00
C572   C     0.40737   0.15685   0.50105   0.00000  Uiso   1.00
C573   C     0.40392   0.34018   0.50290   0.00000  Uiso   1.00
C574   C     0.09607   0.15981   0.49710   0.00000  Uiso   1.00
C575   C     0.34263   0.09316   0.49895   0.00000  Uiso   1.00
C576   C     0.15737   0.40685   0.50105   0.00000  Uiso   1.00
C577   C     0.15391   0.09017   0.50290   0.00000  Uiso   1.00
C578   C     0.05961   0.30915   0.49977   0.00000  Uiso   1.00
C579   C     0.34608   0.40982   0.49710   0.00000  Uiso   1.00
C580   C     0.46336   0.10306   0.46722   0.00000  Uiso   1.00
C581   C     0.03665   0.39693   0.53284   0.00000  Uiso   1.00
C582   C     0.14198   0.28816   0.45688   0.00000  Uiso   1.00
C583   C     0.35800   0.21187   0.54307   0.00000  Uiso   1.00
C584   C     0.12923   0.19723   0.56898   0.00000  Uiso   1.00
C585   C     0.37078   0.30277   0.43100   0.00000  Uiso   1.00
C586   C     0.42240   0.36431   0.58708   0.00000  Uiso   1.00
C587   C     0.07755   0.13565   0.41294   0.00000  Uiso   1.00
C588   C     0.21336   0.35307   0.46718   0.00000  Uiso   1.00
C589   C     0.31067   0.44168   0.49906   0.00000  Uiso   1.00
C590   C     0.28664   0.14693   0.53284   0.00000  Uiso   1.00
C591   C     0.39199   0.03815   0.45690   0.00000  Uiso   1.00
C592   C     0.10801   0.46186   0.54308   0.00000  Uiso   1.00
C593   C     0.37922   0.44722   0.56900   0.00000  Uiso   1.00
C594   C     0.12077   0.05275   0.43101   0.00000  Uiso   1.00
C595   C     0.17240   0.11431   0.58707   0.00000  Uiso   1.00
C596   C     0.32758   0.38567   0.41293   0.00000  Uiso   1.00
C597   C     0.18933   0.05832   0.50094   0.00000  Uiso   1.00
C598   C     0.19039   0.44085   0.50023   0.00000  Uiso   1.00
C599   C     0.30961   0.05915   0.49977   0.00000  Uiso   1.00
C600   C     0.49645   0.21164   0.35743   0.00000  Uiso   1.00
Cu601  Cu    0.00000   0.25000   0.54689   0.00000  Uiso   1.00
Cu602  Cu    0.00000   0.25000   0.45311   0.00000  Uiso   1.00
Cu603  Cu    0.25000  -0.00000   0.54689   0.00000  Uiso   1.00
Cu604  Cu    0.25000  -0.00000   0.45311   0.00000  Uiso   1.00
H605   H     0.49345   0.18096   0.37556   0.00000  Uiso   1.00
H606   H     0.47349   0.07309   0.48535   0.00000  Uiso   1.00
H607   H     0.46531   0.09754   0.42862   0.00000  Uiso   1.00
H608   H     0.01236   0.37161   0.52344   0.00000  Uiso   1.00
H609   H     0.03473   0.40251   0.57143   0.00000  Uiso   1.00
H610   H     0.02647   0.42686   0.51467   0.00000  Uiso   1.00
H611   H     0.12057   0.28358   0.42643   0.00000  Uiso   1.00
H612   H     0.17537   0.28290   0.44315   0.00000  Uiso   1.00
H613   H     0.13489   0.26206   0.48247   0.00000  Uiso   1.00
H614   H     0.37939   0.21646   0.57354   0.00000  Uiso   1.00
H615   H     0.36512   0.23795   0.51747   0.00000  Uiso   1.00
H616   H     0.00655   0.31904   0.62444   0.00000  Uiso   1.00
H617   H     0.32460   0.21715   0.55676   0.00000  Uiso   1.00
H618   H     0.11888   0.22837   0.55358   0.00000  Uiso   1.00
H619   H     0.11037   0.19178   0.60206   0.00000  Uiso   1.00
H620   H     0.16397   0.20269   0.57685   0.00000  Uiso   1.00
H621   H     0.38114   0.27163   0.44639   0.00000  Uiso   1.00
H622   H     0.33604   0.29729   0.42315   0.00000  Uiso   1.00
H623   H     0.38962   0.30823   0.39792   0.00000  Uiso   1.00
H624   H     0.41353   0.33158   0.60084   0.00000  Uiso   1.00
H625   H     0.45798   0.36758   0.58249   0.00000  Uiso   1.00
H626   H     0.41218   0.38741   0.61555   0.00000  Uiso   1.00
H627   H     0.00623   0.31910   0.37819   0.00000  Uiso   1.00
H628   H     0.08643   0.16837   0.39915   0.00000  Uiso   1.00
H629   H     0.08774   0.11253   0.38448   0.00000  Uiso   1.00
H630   H     0.04198   0.13240   0.41755   0.00000  Uiso   1.00
H631   H     0.23765   0.37837   0.47664   0.00000  Uiso   1.00
H632   H     0.22350   0.32311   0.48531   0.00000  Uiso   1.00
H633   H     0.21529   0.34754   0.42859   0.00000  Uiso   1.00
H634   H     0.26236   0.12161   0.52343   0.00000  Uiso   1.00
H635   H     0.28473   0.15251   0.57144   0.00000  Uiso   1.00
H636   H     0.27646   0.17687   0.51467   0.00000  Uiso   1.00
H637   H     0.37057   0.03356   0.42645   0.00000  Uiso   1.00
H638   H     0.49377   0.18090   0.62181   0.00000  Uiso   1.00
H639   H     0.42538   0.03290   0.44315   0.00000  Uiso   1.00
H640   H     0.38492   0.01206   0.48250   0.00000  Uiso   1.00
H641   H     0.12940   0.46645   0.57355   0.00000  Uiso   1.00
H642   H     0.11512   0.48794   0.51748   0.00000  Uiso   1.00
H643   H     0.07461   0.46713   0.55677   0.00000  Uiso   1.00
H644   H     0.36887   0.47836   0.55360   0.00000  Uiso   1.00
H645   H     0.36036   0.44176   0.60207   0.00000  Uiso   1.00
H646   H     0.41396   0.45269   0.57687   0.00000  Uiso   1.00
H647   H     0.13114   0.02162   0.44640   0.00000  Uiso   1.00
H648   H     0.08603   0.04727   0.42316   0.00000  Uiso   1.00
H649   H     0.24344   0.43096   0.37556   0.00000  Uiso   1.00
H650   H     0.13962   0.05822   0.39793   0.00000  Uiso   1.00
H651   H     0.16353   0.08158   0.60084   0.00000  Uiso   1.00
H652   H     0.20798   0.11758   0.58249   0.00000  Uiso   1.00
H653   H     0.16218   0.13742   0.61554   0.00000  Uiso   1.00
H654   H     0.33645   0.41840   0.39915   0.00000  Uiso   1.00
H655   H     0.33778   0.36256   0.38446   0.00000  Uiso   1.00
H656   H     0.29200   0.38241   0.41753   0.00000  Uiso   1.00
H657   H     0.25656   0.06904   0.62444   0.00000  Uiso   1.00
H658   H     0.25624   0.06910   0.37819   0.00000  Uiso   1.00
H659   H     0.24376   0.43090   0.62181   0.00000  Uiso   1.00
H660   H     0.48766   0.12835   0.47671   0.00000  Uiso   1.00
N661   N     0.00000   0.25000   0.61736   0.00000  Uiso   1.00
N662   N     0.00000   0.25000   0.38264   0.00000  Uiso   1.00
N663   N     0.25000  -0.00000   0.61736   0.00000  Uiso   1.00
N664   N     0.25000  -0.00000   0.38264   0.00000  Uiso   1.00
O665   O     0.04509   0.20491   0.53958   0.00000  Uiso   1.00
O666   O     0.20492   0.04509   0.46042   0.00000  Uiso   1.00
O667   O     0.20492   0.04509   0.53958   0.00000  Uiso   1.00
O668   O     0.29509   0.45491   0.46042   0.00000  Uiso   1.00
O669   O     0.20492   0.45491   0.46042   0.00000  Uiso   1.00
O670   O     0.29509   0.04509   0.53958   0.00000  Uiso   1.00
O671   O     0.29509   0.04509   0.46042   0.00000  Uiso   1.00
O672   O     0.20492   0.45491   0.53958   0.00000  Uiso   1.00
O673   O     0.45492   0.29509   0.46042   0.00000  Uiso   1.00
O674   O     0.45492   0.29509   0.53958   0.00000  Uiso   1.00
O675   O     0.04509   0.20491   0.46042   0.00000  Uiso   1.00
O676   O     0.45492   0.20491   0.46042   0.00000  Uiso   1.00
O677   O     0.04509   0.29509   0.53958   0.00000  Uiso   1.00
O678   O     0.04509   0.29509   0.46042   0.00000  Uiso   1.00
O679   O     0.45492   0.20491   0.53958   0.00000  Uiso   1.00
O680   O     0.29509   0.45491   0.53958   0.00000  Uiso   1.00
C681   C     0.56067   0.19168   0.49906   0.00000  Uiso   1.00
C682   C     0.50355   0.28836   0.64257   0.00000  Uiso   1.00
C683   C     0.50348   0.28837   0.35888   0.00000  Uiso   1.00
C684   C     0.99652   0.21163   0.64112   0.00000  Uiso   1.00
C685   C     0.74645   0.46164   0.35743   0.00000  Uiso   1.00
C686   C     0.75355   0.03836   0.64257   0.00000  Uiso   1.00
C687   C     0.75349   0.03837   0.35888   0.00000  Uiso   1.00
C688   C     0.74651   0.46163   0.64112   0.00000  Uiso   1.00
C689   C     0.91728   0.11481   0.48229   0.00000  Uiso   1.00
C690   C     0.58272   0.38519   0.51773   0.00000  Uiso   1.00
C691   C     0.63410   0.33302   0.47976   0.00000  Uiso   1.00
C692   C     0.93933   0.30832   0.50094   0.00000  Uiso   1.00
C693   C     0.86589   0.16699   0.52023   0.00000  Uiso   1.00
C694   C     0.62404   0.15807   0.53559   0.00000  Uiso   1.00
C695   C     0.87596   0.34192   0.46441   0.00000  Uiso   1.00
C696   C     0.90020   0.37117   0.54069   0.00000  Uiso   1.00
C697   C     0.59978   0.12881   0.45932   0.00000  Uiso   1.00
C698   C     0.66728   0.36481   0.48228   0.00000  Uiso   1.00
C699   C     0.83272   0.13519   0.51772   0.00000  Uiso   1.00
C700   C     0.88410   0.08302   0.47976   0.00000  Uiso   1.00
C701   C     0.61590   0.41699   0.52023   0.00000  Uiso   1.00
C702   C     0.87403   0.40807   0.53559   0.00000  Uiso   1.00
C703   C     0.94039   0.19086   0.50023   0.00000  Uiso   1.00
C704   C     0.62595   0.09191   0.46441   0.00000  Uiso   1.00
C705   C     0.65020   0.12117   0.54068   0.00000  Uiso   1.00
C706   C     0.84979   0.37882   0.45932   0.00000  Uiso   1.00
C707   C     0.59263   0.34315   0.49895   0.00000  Uiso   1.00
C708   C     0.90737   0.15685   0.50105   0.00000  Uiso   1.00
C709   C     0.90392   0.34018   0.50290   0.00000  Uiso   1.00
C710   C     0.59607   0.15981   0.49710   0.00000  Uiso   1.00
C711   C     0.84263   0.09316   0.49895   0.00000  Uiso   1.00
C712   C     0.65737   0.40685   0.50105   0.00000  Uiso   1.00
C713   C     0.65391   0.09017   0.50290   0.00000  Uiso   1.00
C714   C     0.55961   0.30915   0.49977   0.00000  Uiso   1.00
C715   C     0.84608   0.40982   0.49710   0.00000  Uiso   1.00
C716   C     0.96336   0.10306   0.46722   0.00000  Uiso   1.00
C717   C     0.53665   0.39693   0.53284   0.00000  Uiso   1.00
C718   C     0.64198   0.28816   0.45688   0.00000  Uiso   1.00
C719   C     0.85800   0.21187   0.54307   0.00000  Uiso   1.00
C720   C     0.62923   0.19723   0.56898   0.00000  Uiso   1.00
C721   C     0.87078   0.30277   0.43100   0.00000  Uiso   1.00
C722   C     0.92240   0.36431   0.58708   0.00000  Uiso   1.00
C723   C     0.57755   0.13565   0.41294   0.00000  Uiso   1.00
C724   C     0.71336   0.35307   0.46718   0.00000  Uiso   1.00
C725   C     0.81067   0.44168   0.49906   0.00000  Uiso   1.00
C726   C     0.78664   0.14693   0.53284   0.00000  Uiso   1.00
C727   C     0.89199   0.03815   0.45690   0.00000  Uiso   1.00
C728   C     0.60801   0.46186   0.54308   0.00000  Uiso   1.00
C729   C     0.87922   0.44722   0.56900   0.00000  Uiso   1.00
C730   C     0.62077   0.05275   0.43101   0.00000  Uiso   1.00
C731   C     0.67240   0.11431   0.58707   0.00000  Uiso   1.00
C732   C     0.82758   0.38567   0.41293   0.00000  Uiso   1.00
C733   C     0.68933   0.05832   0.50094   0.00000  Uiso   1.00
C734   C     0.69039   0.44085   0.50023   0.00000  Uiso   1.00
C735   C     0.80961   0.05915   0.49977   0.00000  Uiso   1.00
C736   C     0.99645   0.21164   0.35743   0.00000  Uiso   1.00
Cu737  Cu    0.50000   0.25000   0.54689   0.00000  Uiso   1.00
Cu738  Cu    0.50000   0.25000   0.45311   0.00000  Uiso   1.00
Cu739  Cu    0.75000  -0.00000   0.54689   0.00000  Uiso   1.00
Cu740  Cu    0.75000  -0.00000   0.45311   0.00000  Uiso   1.00
H741   H     0.99345   0.18096   0.37556   0.00000  Uiso   1.00
H742   H     0.97349   0.07309   0.48535   0.00000  Uiso   1.00
H743   H     0.96531   0.09754   0.42862   0.00000  Uiso   1.00
H744   H     0.51236   0.37161   0.52344   0.00000  Uiso   1.00
H745   H     0.53473   0.40251   0.57143   0.00000  Uiso   1.00
H746   H     0.52647   0.42686   0.51467   0.00000  Uiso   1.00
H747   H     0.62057   0.28358   0.42643   0.00000  Uiso   1.00
H748   H     0.67537   0.28290   0.44315   0.00000  Uiso   1.00
H749   H     0.63489   0.26206   0.48247   0.00000  Uiso   1.00
H750   H     0.87939   0.21646   0.57354   0.00000  Uiso   1.00
H751   H     0.86512   0.23795   0.51747   0.00000  Uiso   1.00
H752   H     0.50655   0.31904   0.62444   0.00000  Uiso   1.00
H753   H     0.82460   0.21715   0.55676   0.00000  Uiso   1.00
H754   H     0.61888   0.22837   0.55358   0.00000  Uiso   1.00
H755   H     0.61037   0.19178   0.60206   0.00000  Uiso   1.00
H756   H     0.66397   0.20269   0.57685   0.00000  Uiso   1.00
H757   H     0.88114   0.27163   0.44639   0.00000  Uiso   1.00
H758   H     0.83604   0.29729   0.42315   0.00000  Uiso   1.00
H759   H     0.88962   0.30823   0.39792   0.00000  Uiso   1.00
H760   H     0.91353   0.33158   0.60084   0.00000  Uiso   1.00
H761   H     0.95798   0.36758   0.58249   0.00000  Uiso   1.00
H762   H     0.91218   0.38741   0.61555   0.00000  Uiso   1.00
H763   H     0.50623   0.31910   0.37819   0.00000  Uiso   1.00
H764   H     0.58643   0.16837   0.39915   0.00000  Uiso   1.00
H765   H     0.58774   0.11253   0.38448   0.00000  Uiso   1.00
H766   H     0.54198   0.13240   0.41755   0.00000  Uiso   1.00
H767   H     0.73765   0.37837   0.47664   0.00000  Uiso   1.00
H768   H     0.72350   0.32311   0.48531   0.00000  Uiso   1.00
H769   H     0.71529   0.34754   0.42859   0.00000  Uiso   1.00
H770   H     0.76236   0.12161   0.52343   0.00000  Uiso   1.00
H771   H     0.78473   0.15251   0.57144   0.00000  Uiso   1.00
H772   H     0.77646   0.17687   0.51467   0.00000  Uiso   1.00
H773   H     0.87057   0.03356   0.42645   0.00000  Uiso   1.00
H774   H     0.99377   0.18090   0.62181   0.00000  Uiso   1.00
H775   H     0.92538   0.03290   0.44315   0.00000  Uiso   1.00
H776   H     0.88492   0.01206   0.48250   0.00000  Uiso   1.00
H777   H     0.62940   0.46645   0.57355   0.00000  Uiso   1.00
H778   H     0.61512   0.48794   0.51748   0.00000  Uiso   1.00
H779   H     0.57461   0.46713   0.55677   0.00000  Uiso   1.00
H780   H     0.86887   0.47836   0.55360   0.00000  Uiso   1.00
H781   H     0.86036   0.44176   0.60207   0.00000  Uiso   1.00
H782   H     0.91396   0.45269   0.57687   0.00000  Uiso   1.00
H783   H     0.63114   0.02162   0.44640   0.00000  Uiso   1.00
H784   H     0.58603   0.04727   0.42316   0.00000  Uiso   1.00
H785   H     0.74344   0.43096   0.37556   0.00000  Uiso   1.00
H786   H     0.63962   0.05822   0.39793   0.00000  Uiso   1.00
H787   H     0.66353   0.08158   0.60084   0.00000  Uiso   1.00
H788   H     0.70798   0.11758   0.58249   0.00000  Uiso   1.00
H789   H     0.66218   0.13742   0.61554   0.00000  Uiso   1.00
H790   H     0.83645   0.41840   0.39915   0.00000  Uiso   1.00
H791   H     0.83778   0.36256   0.38446   0.00000  Uiso   1.00
H792   H     0.79200   0.38241   0.41753   0.00000  Uiso   1.00
H793   H     0.75656   0.06904   0.62444   0.00000  Uiso   1.00
H794   H     0.75624   0.06910   0.37819   0.00000  Uiso   1.00
H795   H     0.74376   0.43090   0.62181   0.00000  Uiso   1.00
H796   H     0.98766   0.12835   0.47671   0.00000  Uiso   1.00
N797   N     0.50000   0.25000   0.61736   0.00000  Uiso   1.00
N798   N     0.50000   0.25000   0.38264   0.00000  Uiso   1.00
N799   N     0.75000  -0.00000   0.61736   0.00000  Uiso   1.00
N800   N     0.75000  -0.00000   0.38264   0.00000  Uiso   1.00
O801   O     0.54509   0.20491   0.53958   0.00000  Uiso   1.00
O802   O     0.70492   0.04509   0.46042   0.00000  Uiso   1.00
O803   O     0.70492   0.04509   0.53958   0.00000  Uiso   1.00
O804   O     0.79509   0.45491   0.46042   0.00000  Uiso   1.00
O805   O     0.70492   0.45491   0.46042   0.00000  Uiso   1.00
O806   O     0.79509   0.04509   0.53958   0.00000  Uiso   1.00
O807   O     0.79509   0.04509   0.46042   0.00000  Uiso   1.00
O808   O     0.70492   0.45491   0.53958   0.00000  Uiso   1.00
O809   O     0.95492   0.29509   0.46042   0.00000  Uiso   1.00
O810   O     0.95492   0.29509   0.53958   0.00000  Uiso   1.00
O811   O     0.54509   0.20491   0.46042   0.00000  Uiso   1.00
O812   O     0.95492   0.20491   0.46042   0.00000  Uiso   1.00
O813   O     0.54509   0.29509   0.53958   0.00000  Uiso   1.00
O814   O     0.54509   0.29509   0.46042   0.00000  Uiso   1.00
O815   O     0.95492   0.20491   0.53958   0.00000  Uiso   1.00
O816   O     0.79509   0.45491   0.53958   0.00000  Uiso   1.00
C817   C     0.06067   0.69168   0.49906   0.00000  Uiso   1.00
C818   C     0.00355   0.78836   0.64257   0.00000  Uiso   1.00
C819   C     0.00348   0.78837   0.35888   0.00000  Uiso   1.00
C820   C     0.49652   0.71163   0.64112   0.00000  Uiso   1.00
C821   C     0.24645   0.96164   0.35743   0.00000  Uiso   1.00
C822   C     0.25355   0.53836   0.64257   0.00000  Uiso   1.00
C823   C     0.25349   0.53837   0.35888   0.00000  Uiso   1.00
C824   C     0.24651   0.96163   0.64112   0.00000  Uiso   1.00
C825   C     0.41728   0.61481   0.48229   0.00000  Uiso   1.00
C826   C     0.08272   0.88519   0.51773   0.00000  Uiso   1.00
C827   C     0.13410   0.83302   0.47976   0.00000  Uiso   1.00
C828   C     0.43933   0.80832   0.50094   0.00000  Uiso   1.00
C829   C     0.36589   0.66699   0.52023   0.00000  Uiso   1.00
C830   C     0.12404   0.65807   0.53559   0.00000  Uiso   1.00
C831   C     0.37596   0.84192   0.46441   0.00000  Uiso   1.00
C832   C     0.40020   0.87117   0.54069   0.00000  Uiso   1.00
C833   C     0.09978   0.62881   0.45932   0.00000  Uiso   1.00
C834   C     0.16728   0.86481   0.48228   0.00000  Uiso   1.00
C835   C     0.33272   0.63519   0.51772   0.00000  Uiso   1.00
C836   C     0.38410   0.58302   0.47976   0.00000  Uiso   1.00
C837   C     0.11590   0.91699   0.52023   0.00000  Uiso   1.00
C838   C     0.37403   0.90807   0.53559   0.00000  Uiso   1.00
C839   C     0.44039   0.69086   0.50023   0.00000  Uiso   1.00
C840   C     0.12595   0.59191   0.46441   0.00000  Uiso   1.00
C841   C     0.15020   0.62117   0.54068   0.00000  Uiso   1.00
C842   C     0.34979   0.87882   0.45932   0.00000  Uiso   1.00
C843   C     0.09263   0.84315   0.49895   0.00000  Uiso   1.00
C844   C     0.40737   0.65685   0.50105   0.00000  Uiso   1.00
C845   C     0.40392   0.84018   0.50290   0.00000  Uiso   1.00
C846   C     0.09607   0.65981   0.49710   0.00000  Uiso   1.00
C847   C     0.34263   0.59316   0.49895   0.00000  Uiso   1.00
C848   C     0.15737   0.90685   0.50105   0.00000  Uiso   1.00
C849   C     0.15391   0.59017   0.50290   0.00000  Uiso   1.00
C850   C     0.05961   0.80915   0.49977   0.00000  Uiso   1.00
C851   C     0.34608   0.90982   0.49710   0.00000  Uiso   1.00
C852   C     0.46336   0.60306   0.46722   0.00000  Uiso   1.00
C853   C     0.03665   0.89693   0.53284   0.00000  Uiso   1.00
C854   C     0.14198   0.78816   0.45688   0.00000  Uiso   1.00
C855   C     0.35800   0.71187   0.54307   0.00000  Uiso   1.00
C856   C     0.12923   0.69723   0.56898   0.00000  Uiso   1.00
C857   C     0.37078   0.80277   0.43100   0.00000  Uiso   1.00
C858   C     0.42240   0.86431   0.58708   0.00000  Uiso   1.00
C859   C     0.07755   0.63565   0.41294   0.00000  Uiso   1.00
C860   C     0.21336   0.85307   0.46718   0.00000  Uiso   1.00
C861   C     0.31067   0.94168   0.49906   0.00000  Uiso   1.00
C862   C     0.28664   0.64693   0.53284   0.00000  Uiso   1.00
C863   C     0.39199   0.53815   0.45690   0.00000  Uiso   1.00
C864   C     0.10801   0.96186   0.54308   0.00000  Uiso   1.00
C865   C     0.37922   0.94722   0.56900   0.00000  Uiso   1.00
C866   C     0.12077   0.55275   0.43101   0.00000  Uiso   1.00
C867   C     0.17240   0.61431   0.58707   0.00000  Uiso   1.00
C868   C     0.32758   0.88567   0.41293   0.00000  Uiso   1.00
C869   C     0.18933   0.55832   0.50094   0.00000  Uiso   1.00
C870   C     0.19039   0.94085   0.50023   0.00000  Uiso   1.00
C871   C     0.30961   0.55915   0.49977   0.00000  Uiso   1.00
C872   C     0.49645   0.71164   0.35743   0.00000  Uiso   1.00
Cu873  Cu    0.00000   0.75000   0.54689   0.00000  Uiso   1.00
Cu874  Cu    0.00000   0.75000   0.45311   0.00000  Uiso   1.00
Cu875  Cu    0.25000   0.50000   0.54689   0.00000  Uiso   1.00
Cu876  Cu    0.25000   0.50000   0.45311   0.00000  Uiso   1.00
H877   H     0.49345   0.68096   0.37556   0.00000  Uiso   1.00
H878   H     0.47349   0.57309   0.48535   0.00000  Uiso   1.00
H879   H     0.46531   0.59754   0.42862   0.00000  Uiso   1.00
H880   H     0.01236   0.87161   0.52344   0.00000  Uiso   1.00
H881   H     0.03473   0.90251   0.57143   0.00000  Uiso   1.00
H882   H     0.02647   0.92686   0.51467   0.00000  Uiso   1.00
H883   H     0.12057   0.78358   0.42643   0.00000  Uiso   1.00
H884   H     0.17537   0.78290   0.44315   0.00000  Uiso   1.00
H885   H     0.13489   0.76206   0.48247   0.00000  Uiso   1.00
H886   H     0.37939   0.71646   0.57354   0.00000  Uiso   1.00
H887   H     0.36512   0.73795   0.51747   0.00000  Uiso   1.00
H888   H     0.00655   0.81904   0.62444   0.00000  Uiso   1.00
H889   H     0.32460   0.71715   0.55676   0.00000  Uiso   1.00
H890   H     0.11888   0.72837   0.55358   0.00000  Uiso   1.00
H891   H     0.11037   0.69178   0.60206   0.00000  Uiso   1.00
H892   H     0.16397   0.70269   0.57685   0.00000  Uiso   1.00
H893   H     0.38114   0.77163   0.44639   0.00000  Uiso   1.00
H894   H     0.33604   0.79729   0.42315   0.00000  Uiso   1.00
H895   H     0.38962   0.80823   0.39792   0.00000  Uiso   1.00
H896   H     0.41353   0.83158   0.60084   0.00000  Uiso   1.00
H897   H     0.45798   0.86758   0.58249   0.00000  Uiso   1.00
H898   H     0.41218   0.88741   0.61555   0.00000  Uiso   1.00
H899   H     0.00623   0.81910   0.37819   0.00000  Uiso   1.00
H900   H     0.08643   0.66837   0.39915   0.00000  Uiso   1.00
H901   H     0.08774   0.61253   0.38448   0.00000  Uiso   1.00
H902   H     0.04198   0.63240   0.41755   0.00000  Uiso   1.00
H903   H     0.23765   0.87837   0.47664   0.00000  Uiso   1.00
H904   H     0.22350   0.82311   0.48531   0.00000  Uiso   1.00
H905   H     0.21529   0.84754   0.42859   0.00000  Uiso   1.00
H906   H     0.26236   0.62161   0.52343   0.00000  Uiso   1.00
H907   H     0.28473   0.65251   0.57144   0.00000  Uiso   1.00
H908   H     0.27646   0.67687   0.51467   0.00000  Uiso   1.00
H909   H     0.37057   0.53356   0.42645   0.00000  Uiso   1.00
H910   H     0.49377   0.68090   0.62181   0.00000  Uiso   1.00
H911   H     0.42538   0.53290   0.44315   0.00000  Uiso   1.00
H912   H     0.38492   0.51206   0.48250   0.00000  Uiso   1.00
H913   H     0.12940   0.96645   0.57355   0.00000  Uiso   1.00
H914   H     0.11512   0.98794   0.51748   0.00000  Uiso   1.00
H915   H     0.07461   0.96713   0.55677   0.00000  Uiso   1.00
H916   H     0.36887   0.97836   0.55360   0.00000  Uiso   1.00
H917   H     0.36036   0.94176   0.60207   0.00000  Uiso   1.00
H918   H     0.41396   0.95269   0.57687   0.00000  Uiso   1.00
H919   H     0.13114   0.52162   0.44640   0.00000  Uiso   1.00
H920   H     0.08603   0.54727   0.42316   0.00000  Uiso   1.00
H921   H     0.24344   0.93096   0.37556   0.00000  Uiso   1.00
H922   H     0.13962   0.55822   0.39793   0.00000  Uiso   1.00
H923   H     0.16353   0.58158   0.60084   0.00000  Uiso   1.00
H924   H     0.20798   0.61758   0.58249   0.00000  Uiso   1.00
H925   H     0.16218   0.63742   0.61554   0.00000  Uiso   1.00
H926   H     0.33645   0.91840   0.39915   0.00000  Uiso   1.00
H927   H     0.33778   0.86256   0.38446   0.00000  Uiso   1.00
H928   H     0.29200   0.88241   0.41753   0.00000  Uiso   1.00
H929   H     0.25656   0.56904   0.62444   0.00000  Uiso   1.00
H930   H     0.25624   0.56910   0.37819   0.00000  Uiso   1.00
H931   H     0.24376   0.93090   0.62181   0.00000  Uiso   1.00
H932   H     0.48766   0.62835   0.47671   0.00000  Uiso   1.00
N933   N     0.00000   0.75000   0.61736   0.00000  Uiso   1.00
N934   N     0.00000   0.75000   0.38264   0.00000  Uiso   1.00
N935   N     0.25000   0.50000   0.61736   0.00000  Uiso   1.00
N936   N     0.25000   0.50000   0.38264   0.00000  Uiso   1.00
O937   O     0.04509   0.70491   0.53958   0.00000  Uiso   1.00
O938   O     0.20492   0.54509   0.46042   0.00000  Uiso   1.00
O939   O     0.20492   0.54509   0.53958   0.00000  Uiso   1.00
O940   O     0.29509   0.95491   0.46042   0.00000  Uiso   1.00
O941   O     0.20492   0.95491   0.46042   0.00000  Uiso   1.00
O942   O     0.29509   0.54509   0.53958   0.00000  Uiso   1.00
O943   O     0.29509   0.54509   0.46042   0.00000  Uiso   1.00
O944   O     0.20492   0.95491   0.53958   0.00000  Uiso   1.00
O945   O     0.45492   0.79509   0.46042   0.00000  Uiso   1.00
O946   O     0.45492   0.79509   0.53958   0.00000  Uiso   1.00
O947   O     0.04509   0.70491   0.46042   0.00000  Uiso   1.00
O948   O     0.45492   0.70491   0.46042   0.00000  Uiso   1.00
O949   O     0.04509   0.79509   0.53958   0.00000  Uiso   1.00
O950   O     0.04509   0.79509   0.46042   0.00000  Uiso   1.00
O951   O     0.45492   0.70491   0.53958   0.00000  Uiso   1.00
O952   O     0.29509   0.95491   0.53958   0.00000  Uiso   1.00
C953   C     0.56067   0.69168   0.49906   0.00000  Uiso   1.00
C954   C     0.50355   0.78836   0.64257   0.00000  Uiso   1.00
C955   C     0.50348   0.78837   0.35888   0.00000  Uiso   1.00
C956   C     0.99652   0.71163   0.64112   0.00000  Uiso   1.00
C957   C     0.74645   0.96164   0.35743   0.00000  Uiso   1.00
C958   C     0.75355   0.53836   0.64257   0.00000  Uiso   1.00
C959   C     0.75349   0.53837   0.35888   0.00000  Uiso   1.00
C960   C     0.74651   0.96163   0.64112   0.00000  Uiso   1.00
C961   C     0.91728   0.61481   0.48229   0.00000  Uiso   1.00
C962   C     0.58272   0.88519   0.51773   0.00000  Uiso   1.00
C963   C     0.63410   0.83302   0.47976   0.00000  Uiso   1.00
C964   C     0.93933   0.80832   0.50094   0.00000  Uiso   1.00
C965   C     0.86589   0.66699   0.52023   0.00000  Uiso   1.00
C966   C     0.62404   0.65807   0.53559   0.00000  Uiso   1.00
C967   C     0.87596   0.84192   0.46441   0.00000  Uiso   1.00
C968   C     0.90020   0.87117   0.54069   0.00000  Uiso   1.00
C969   C     0.59978   0.62881   0.45932   0.00000  Uiso   1.00
C970   C     0.66728   0.86481   0.48228   0.00000  Uiso   1.00
C971   C     0.83272   0.63519   0.51772   0.00000  Uiso   1.00
C972   C     0.88410   0.58302   0.47976   0.00000  Uiso   1.00
C973   C     0.61590   0.91699   0.52023   0.00000  Uiso   1.00
C974   C     0.87403   0.90807   0.53559   0.00000  Uiso   1.00
C975   C     0.94039   0.69086   0.50023   0.00000  Uiso   1.00
C976   C     0.62595   0.59191   0.46441   0.00000  Uiso   1.00
C977   C     0.65020   0.62117   0.54068   0.00000  Uiso   1.00
C978   C     0.84979   0.87882   0.45932   0.00000  Uiso   1.00
C979   C     0.59263   0.84315   0.49895   0.00000  Uiso   1.00
C980   C     0.90737   0.65685   0.50105   0.00000  Uiso   1.00
C981   C     0.90392   0.84018   0.50290   0.00000  Uiso   1.00
C982   C     0.59607   0.65981   0.49710   0.00000  Uiso   1.00
C983   C     0.84263   0.59316   0.49895   0.00000  Uiso   1.00
C984   C     0.65737   0.90685   0.50105   0.00000  Uiso   1.00
C985   C     0.65391   0.59017   0.50290   0.00000  Uiso   1.00
C986   C     0.55961   0.80915   0.49977   0.00000  Uiso   1.00
C987   C     0.84608   0.90982   0.49710   0.00000  Uiso   1.00
C988   C     0.96336   0.60306   0.46722   0.00000  Uiso   1.00
C989   C     0.53665   0.89693   0.53284   0.00000  Uiso   1.00
C990   C     0.64198   0.78816   0.45688   0.00000  Uiso   1.00
C991   C     0.85800   0.71187   0.54307   0.00000  Uiso   1.00
C992   C     0.62923   0.69723   0.56898   0.00000  Uiso   1.00
C993   C     0.87078   0.80277   0.43100   0.00000  Uiso   1.00
C994   C     0.92240   0.86431   0.58708   0.00000  Uiso   1.00
C995   C     0.57755   0.63565   0.41294   0.00000  Uiso   1.00
C996   C     0.71336   0.85307   0.46718   0.00000  Uiso   1.00
C997   C     0.81067   0.94168   0.49906   0.00000  Uiso   1.00
C998   C     0.78664   0.64693   0.53284   0.00000  Uiso   1.00
C999   C     0.89199   0.53815   0.45690   0.00000  Uiso   1.00
C1000  C     0.60801   0.96186   0.54308   0.00000  Uiso   1.00
C1001  C     0.87922   0.94722   0.56900   0.00000  Uiso   1.00
C1002  C     0.62077   0.55275   0.43101   0.00000  Uiso   1.00
C1003  C     0.67240   0.61431   0.58707   0.00000  Uiso   1.00
C1004  C     0.82758   0.88567   0.41293   0.00000  Uiso   1.00
C1005  C     0.68933   0.55832   0.50094   0.00000  Uiso   1.00
C1006  C     0.69039   0.94085   0.50023   0.00000  Uiso   1.00
C1007  C     0.80961   0.55915   0.49977   0.00000  Uiso   1.00
C1008  C     0.99645   0.71164   0.35743   0.00000  Uiso   1.00
Cu1009 Cu    0.50000   0.75000   0.54689   0.00000  Uiso   1.00
Cu1010 Cu    0.50000   0.75000   0.45311   0.00000  Uiso   1.00
Cu1011 Cu    0.75000   0.50000   0.54689   0.00000  Uiso   1.00
Cu1012 Cu    0.75000   0.50000   0.45311   0.00000  Uiso   1.00
H1013  H     0.99345   0.68096   0.37556   0.00000  Uiso   1.00
H1014  H     0.97349   0.57309   0.48535   0.00000  Uiso   1.00
H1015  H     0.96531   0.59754   0.42862   0.00000  Uiso   1.00
H1016  H     0.51236   0.87161   0.52344   0.00000  Uiso   1.00
H1017  H     0.53473   0.90251   0.57143   0.00000  Uiso   1.00
H1018  H     0.52647   0.92686   0.51467   0.00000  Uiso   1.00
H1019  H     0.62057   0.78358   0.42643   0.00000  Uiso   1.00
H1020  H     0.67537   0.78290   0.44315   0.00000  Uiso   1.00
H1021  H     0.63489   0.76206   0.48247   0.00000  Uiso   1.00
H1022  H     0.87939   0.71646   0.57354   0.00000  Uiso   1.00
H1023  H     0.86512   0.73795   0.51747   0.00000  Uiso   1.00
H1024  H     0.50655   0.81904   0.62444   0.00000  Uiso   1.00
H1025  H     0.82460   0.71715   0.55676   0.00000  Uiso   1.00
H1026  H     0.61888   0.72837   0.55358   0.00000  Uiso   1.00
H1027  H     0.61037   0.69178   0.60206   0.00000  Uiso   1.00
H1028  H     0.66397   0.70269   0.57685   0.00000  Uiso   1.00
H1029  H     0.88114   0.77163   0.44639   0.00000  Uiso   1.00
H1030  H     0.83604   0.79729   0.42315   0.00000  Uiso   1.00
H1031  H     0.88962   0.80823   0.39792   0.00000  Uiso   1.00
H1032  H     0.91353   0.83158   0.60084   0.00000  Uiso   1.00
H1033  H     0.95798   0.86758   0.58249   0.00000  Uiso   1.00
H1034  H     0.91218   0.88741   0.61555   0.00000  Uiso   1.00
H1035  H     0.50623   0.81910   0.37819   0.00000  Uiso   1.00
H1036  H     0.58643   0.66837   0.39915   0.00000  Uiso   1.00
H1037  H     0.58774   0.61253   0.38448   0.00000  Uiso   1.00
H1038  H     0.54198   0.63240   0.41755   0.00000  Uiso   1.00
H1039  H     0.73765   0.87837   0.47664   0.00000  Uiso   1.00
H1040  H     0.72350   0.82311   0.48531   0.00000  Uiso   1.00
H1041  H     0.71529   0.84754   0.42859   0.00000  Uiso   1.00
H1042  H     0.76236   0.62161   0.52343   0.00000  Uiso   1.00
H1043  H     0.78473   0.65251   0.57144   0.00000  Uiso   1.00
H1044  H     0.77646   0.67687   0.51467   0.00000  Uiso   1.00
H1045  H     0.87057   0.53356   0.42645   0.00000  Uiso   1.00
H1046  H     0.99377   0.68090   0.62181   0.00000  Uiso   1.00
H1047  H     0.92538   0.53290   0.44315   0.00000  Uiso   1.00
H1048  H     0.88492   0.51206   0.48250   0.00000  Uiso   1.00
H1049  H     0.62940   0.96645   0.57355   0.00000  Uiso   1.00
H1050  H     0.61512   0.98794   0.51748   0.00000  Uiso   1.00
H1051  H     0.57461   0.96713   0.55677   0.00000  Uiso   1.00
H1052  H     0.86887   0.97836   0.55360   0.00000  Uiso   1.00
H1053  H     0.86036   0.94176   0.60207   0.00000  Uiso   1.00
H1054  H     0.91396   0.95269   0.57687   0.00000  Uiso   1.00
H1055  H     0.63114   0.52162   0.44640   0.00000  Uiso   1.00
H1056  H     0.58603   0.54727   0.42316   0.00000  Uiso   1.00
H1057  H     0.74344   0.93096   0.37556   0.00000  Uiso   1.00
H1058  H     0.63962   0.55822   0.39793   0.00000  Uiso   1.00
H1059  H     0.66353   0.58158   0.60084   0.00000  Uiso   1.00
H1060  H     0.70798   0.61758   0.58249   0.00000  Uiso   1.00
H1061  H     0.66218   0.63742   0.61554   0.00000  Uiso   1.00
H1062  H     0.83645   0.91840   0.39915   0.00000  Uiso   1.00
H1063  H     0.83778   0.86256   0.38446   0.00000  Uiso   1.00
H1064  H     0.79200   0.88241   0.41753   0.00000  Uiso   1.00
H1065  H     0.75656   0.56904   0.62444   0.00000  Uiso   1.00
H1066  H     0.75624   0.56910   0.37819   0.00000  Uiso   1.00
H1067  H     0.74376   0.93090   0.62181   0.00000  Uiso   1.00
H1068  H     0.98766   0.62835   0.47671   0.00000  Uiso   1.00
N1069  N     0.50000   0.75000   0.61736   0.00000  Uiso   1.00
N1070  N     0.50000   0.75000   0.38264   0.00000  Uiso   1.00
N1071  N     0.75000   0.50000   0.61736   0.00000  Uiso   1.00
N1072  N     0.75000   0.50000   0.38264   0.00000  Uiso   1.00
O1073  O     0.54509   0.70491   0.53958   0.00000  Uiso   1.00
O1074  O     0.70492   0.54509   0.46042   0.00000  Uiso   1.00
O1075  O     0.70492   0.54509   0.53958   0.00000  Uiso   1.00
O1076  O     0.79509   0.95491   0.46042   0.00000  Uiso   1.00
O1077  O     0.70492   0.95491   0.46042   0.00000  Uiso   1.00
O1078  O     0.79509   0.54509   0.53958   0.00000  Uiso   1.00
O1079  O     0.79509   0.54509   0.46042   0.00000  Uiso   1.00
O1080  O     0.70492   0.95491   0.53958   0.00000  Uiso   1.00
O1081  O     0.95492   0.79509   0.46042   0.00000  Uiso   1.00
O1082  O     0.95492   0.79509   0.53958   0.00000  Uiso   1.00
O1083  O     0.54509   0.70491   0.46042   0.00000  Uiso   1.00
O1084  O     0.95492   0.70491   0.46042   0.00000  Uiso   1.00
O1085  O     0.54509   0.79509   0.53958   0.00000  Uiso   1.00
O1086  O     0.54509   0.79509   0.46042   0.00000  Uiso   1.00
O1087  O     0.95492   0.70491   0.53958   0.00000  Uiso   1.00
O1088  O     0.79509   0.95491   0.53958   0.00000  Uiso   1.00
C1089  C     0.06067   0.19168   0.83240   0.00000  Uiso   1.00
C1090  C     0.00355   0.28836   0.97591   0.00000  Uiso   1.00
C1091  C     0.00348   0.28837   0.69221   0.00000  Uiso   1.00
C1092  C     0.49652   0.21163   0.97445   0.00000  Uiso   1.00
C1093  C     0.24645   0.46164   0.69076   0.00000  Uiso   1.00
C1094  C     0.25355   0.03836   0.97591   0.00000  Uiso   1.00
C1095  C     0.25349   0.03837   0.69221   0.00000  Uiso   1.00
C1096  C     0.24651   0.46163   0.97445   0.00000  Uiso   1.00
C1097  C     0.41728   0.11481   0.81562   0.00000  Uiso   1.00
C1098  C     0.08272   0.38519   0.85106   0.00000  Uiso   1.00
C1099  C     0.13410   0.33302   0.81309   0.00000  Uiso   1.00
C1100  C     0.43933   0.30832   0.83427   0.00000  Uiso   1.00
C1101  C     0.36589   0.16699   0.85356   0.00000  Uiso   1.00
C1102  C     0.12404   0.15807   0.86892   0.00000  Uiso   1.00
C1103  C     0.37596   0.34192   0.79774   0.00000  Uiso   1.00
C1104  C     0.40020   0.37117   0.87402   0.00000  Uiso   1.00
C1105  C     0.09978   0.12881   0.79265   0.00000  Uiso   1.00
C1106  C     0.16728   0.36481   0.81561   0.00000  Uiso   1.00
C1107  C     0.33272   0.13519   0.85105   0.00000  Uiso   1.00
C1108  C     0.38410   0.08302   0.81310   0.00000  Uiso   1.00
C1109  C     0.11590   0.41699   0.85357   0.00000  Uiso   1.00
C1110  C     0.37403   0.40807   0.86893   0.00000  Uiso   1.00
C1111  C     0.44039   0.19086   0.83356   0.00000  Uiso   1.00
C1112  C     0.12595   0.09191   0.79775   0.00000  Uiso   1.00
C1113  C     0.15020   0.12117   0.87402   0.00000  Uiso   1.00
C1114  C     0.34979   0.37882   0.79265   0.00000  Uiso   1.00
C1115  C     0.09263   0.34315   0.83228   0.00000  Uiso   1.00
C1116  C     0.40737   0.15685   0.83439   0.00000  Uiso   1.00
C1117  C     0.40392   0.34018   0.83623   0.00000  Uiso   1.00
C1118  C     0.09607   0.15981   0.83044   0.00000  Uiso   1.00
C1119  C     0.34263   0.09316   0.83228   0.00000  Uiso   1.00
C1120  C     0.15737   0.40685   0.83438   0.00000  Uiso   1.00
C1121  C     0.15391   0.09017   0.83623   0.00000  Uiso   1.00
C1122  C     0.05961   0.30915   0.83310   0.00000  Uiso   1.00
C1123  C     0.34608   0.40982   0.83044   0.00000  Uiso   1.00
C1124  C     0.46336   0.10306   0.80055   0.00000  Uiso   1.00
C1125  C     0.03665   0.39693   0.86617   0.00000  Uiso   1.00
C1126  C     0.14198   0.28816   0.79021   0.00000  Uiso   1.00
C1127  C     0.35800   0.21187   0.87641   0.00000  Uiso   1.00
C1128  C     0.12923   0.19723   0.90231   0.00000  Uiso   1.00
C1129  C     0.37078   0.30277   0.76434   0.00000  Uiso   1.00
C1130  C     0.42240   0.36431   0.92041   0.00000  Uiso   1.00
C1131  C     0.07755   0.13565   0.74627   0.00000  Uiso   1.00
C1132  C     0.21336   0.35307   0.80051   0.00000  Uiso   1.00
C1133  C     0.31067   0.44168   0.83240   0.00000  Uiso   1.00
C1134  C     0.28664   0.14693   0.86617   0.00000  Uiso   1.00
C1135  C     0.39199   0.03815   0.79023   0.00000  Uiso   1.00
C1136  C     0.10801   0.46186   0.87641   0.00000  Uiso   1.00
C1137  C     0.37922   0.44722   0.90233   0.00000  Uiso   1.00
C1138  C     0.12077   0.05275   0.76434   0.00000  Uiso   1.00
C1139  C     0.17240   0.11431   0.92041   0.00000  Uiso   1.00
C1140  C     0.32758   0.38567   0.74626   0.00000  Uiso   1.00
C1141  C     0.18933   0.05832   0.83427   0.00000  Uiso   1.00
C1142  C     0.19039   0.44085   0.83356   0.00000  Uiso   1.00
C1143  C     0.30961   0.05915   0.83310   0.00000  Uiso   1.00
C1144  C     0.49645   0.21164   0.69076   0.00000  Uiso   1.00
Cu1145 Cu    0.00000   0.25000   0.88022   0.00000  Uiso   1.00
Cu1146 Cu    0.00000   0.25000   0.78645   0.00000  Uiso   1.00
Cu1147 Cu    0.25000  -0.00000   0.88022   0.00000  Uiso   1.00
Cu1148 Cu    0.25000  -0.00000   0.78645   0.00000  Uiso   1.00
H1149  H     0.49345   0.18096   0.70889   0.00000  Uiso   1.00
H1150  H     0.47349   0.07309   0.81869   0.00000  Uiso   1.00
H1151  H     0.46531   0.09754   0.76195   0.00000  Uiso   1.00
H1152  H     0.01236   0.37161   0.85677   0.00000  Uiso   1.00
H1153  H     0.03473   0.40251   0.90476   0.00000  Uiso   1.00
H1154  H     0.02647   0.42686   0.84800   0.00000  Uiso   1.00
H1155  H     0.12057   0.28358   0.75976   0.00000  Uiso   1.00
H1156  H     0.17537   0.28290   0.77649   0.00000  Uiso   1.00
H1157  H     0.13489   0.26206   0.81580   0.00000  Uiso   1.00
H1158  H     0.37939   0.21646   0.90688   0.00000  Uiso   1.00
H1159  H     0.36512   0.23795   0.85081   0.00000  Uiso   1.00
H1160  H     0.00655   0.31904   0.95777   0.00000  Uiso   1.00
H1161  H     0.32460   0.21715   0.89010   0.00000  Uiso   1.00
H1162  H     0.11888   0.22837   0.88691   0.00000  Uiso   1.00
H1163  H     0.11037   0.19178   0.93539   0.00000  Uiso   1.00
H1164  H     0.16397   0.20269   0.91018   0.00000  Uiso   1.00
H1165  H     0.38114   0.27163   0.77972   0.00000  Uiso   1.00
H1166  H     0.33604   0.29729   0.75648   0.00000  Uiso   1.00
H1167  H     0.38962   0.30823   0.73126   0.00000  Uiso   1.00
H1168  H     0.41353   0.33158   0.93418   0.00000  Uiso   1.00
H1169  H     0.45798   0.36758   0.91582   0.00000  Uiso   1.00
H1170  H     0.41218   0.38741   0.94888   0.00000  Uiso   1.00
H1171  H     0.00623   0.31910   0.71153   0.00000  Uiso   1.00
H1172  H     0.08643   0.16837   0.73248   0.00000  Uiso   1.00
H1173  H     0.08774   0.11253   0.71781   0.00000  Uiso   1.00
H1174  H     0.04198   0.13240   0.75088   0.00000  Uiso   1.00
H1175  H     0.23765   0.37837   0.80998   0.00000  Uiso   1.00
H1176  H     0.22350   0.32311   0.81865   0.00000  Uiso   1.00
H1177  H     0.21529   0.34754   0.76192   0.00000  Uiso   1.00
H1178  H     0.26236   0.12161   0.85676   0.00000  Uiso   1.00
H1179  H     0.28473   0.15251   0.90477   0.00000  Uiso   1.00
H1180  H     0.27646   0.17687   0.84801   0.00000  Uiso   1.00
H1181  H     0.37057   0.03356   0.75979   0.00000  Uiso   1.00
H1182  H     0.49377   0.18090   0.95514   0.00000  Uiso   1.00
H1183  H     0.42538   0.03290   0.77649   0.00000  Uiso   1.00
H1184  H     0.38492   0.01206   0.81583   0.00000  Uiso   1.00
H1185  H     0.12940   0.46645   0.90688   0.00000  Uiso   1.00
H1186  H     0.11512   0.48794   0.85082   0.00000  Uiso   1.00
H1187  H     0.07461   0.46713   0.89011   0.00000  Uiso   1.00
H1188  H     0.36887   0.47836   0.88694   0.00000  Uiso   1.00
H1189  H     0.36036   0.44176   0.93540   0.00000  Uiso   1.00
H1190  H     0.41396   0.45269   0.91020   0.00000  Uiso   1.00
H1191  H     0.13114   0.02162   0.77973   0.00000  Uiso   1.00
H1192  H     0.08603   0.04727   0.75649   0.00000  Uiso   1.00
H1193  H     0.24344   0.43096   0.70889   0.00000  Uiso   1.00
H1194  H     0.13962   0.05822   0.73127   0.00000  Uiso   1.00
H1195  H     0.16353   0.08158   0.93418   0.00000  Uiso   1.00
H1196  H     0.20798   0.11758   0.91582   0.00000  Uiso   1.00
H1197  H     0.16218   0.13742   0.94887   0.00000  Uiso   1.00
H1198  H     0.33645   0.41840   0.73249   0.00000  Uiso   1.00
H1199  H     0.33778   0.36256   0.71780   0.00000  Uiso   1.00
H1200  H     0.29200   0.38241   0.75086   0.00000  Uiso   1.00
H1201  H     0.25656   0.06904   0.95777   0.00000  Uiso   1.00
H1202  H     0.25624   0.06910   0.71153   0.00000  Uiso   1.00
H1203  H     0.24376   0.43090   0.95514   0.00000  Uiso   1.00
H1204  H     0.48766   0.12835   0.81004   0.00000  Uiso   1.00
N1205  N     0.00000   0.25000   0.95069   0.00000  Uiso   1.00
N1206  N     0.00000   0.25000   0.71598   0.00000  Uiso   1.00
N1207  N     0.25000  -0.00000   0.95069   0.00000  Uiso   1.00
N1208  N     0.25000  -0.00000   0.71598   0.00000  Uiso   1.00
O1209  O     0.04509   0.20491   0.87291   0.00000  Uiso   1.00
O1210  O     0.20492   0.04509   0.79375   0.00000  Uiso   1.00
O1211  O     0.20492   0.04509   0.87291   0.00000  Uiso   1.00
O1212  O     0.29509   0.45491   0.79375   0.00000  Uiso   1.00
O1213  O     0.20492   0.45491   0.79375   0.00000  Uiso   1.00
O1214  O     0.29509   0.04509   0.87291   0.00000  Uiso   1.00
O1215  O     0.29509   0.04509   0.79375   0.00000  Uiso   1.00
O1216  O     0.20492   0.45491   0.87291   0.00000  Uiso   1.00
O1217  O     0.45492   0.29509   0.79375   0.00000  Uiso   1.00
O1218  O     0.45492   0.29509   0.87291   0.00000  Uiso   1.00
O1219  O     0.04509   0.20491   0.79375   0.00000  Uiso   1.00
O1220  O     0.45492   0.20491   0.79375   0.00000  Uiso   1.00
O1221  O     0.04509   0.29509   0.87291   0.00000  Uiso   1.00
O1222  O     0.04509   0.29509   0.79375   0.00000  Uiso   1.00
O1223  O     0.45492   0.20491   0.87291   0.00000  Uiso   1.00
O1224  O     0.29509   0.45491   0.87291   0.00000  Uiso   1.00
C1225  C     0.56067   0.19168   0.83240   0.00000  Uiso   1.00
C1226  C     0.50355   0.28836   0.97591   0.00000  Uiso   1.00
C1227  C     0.50348   0.28837   0.69221   0.00000  Uiso   1.00
C1228  C     0.99652   0.21163   0.97445   0.00000  Uiso   1.00
C1229  C     0.74645   0.46164   0.69076   0.00000  Uiso   1.00
C1230  C     0.75355   0.03836   0.97591   0.00000  Uiso   1.00
C1231  C     0.75349   0.03837   0.69221   0.00000  Uiso   1.00
C1232  C     0.74651   0.46163   0.97445   0.00000  Uiso   1.00
C1233  C     0.91728   0.11481   0.81562   0.00000  Uiso   1.00
C1234  C     0.58272   0.38519   0.85106   0.00000  Uiso   1.00
C1235  C     0.63410   0.33302   0.81309   0.00000  Uiso   1.00
C1236  C     0.93933   0.30832   0.83427   0.00000  Uiso   1.00
C1237  C     0.86589   0.16699   0.85356   0.00000  Uiso   1.00
C1238  C     0.62404   0.15807   0.86892   0.00000  Uiso   1.00
C1239  C     0.87596   0.34192   0.79774   0.00000  Uiso   1.00
C1240  C     0.90020   0.37117   0.87402   0.00000  Uiso   1.00
C1241  C     0.59978   0.12881   0.79265   0.00000  Uiso   1.00
C1242  C     0.66728   0.36481   0.81561   0.00000  Uiso   1.00
C1243  C     0.83272   0.13519   0.85105   0.00000  Uiso   1.00
C1244  C     0.88410   0.08302   0.81310   0.00000  Uiso   1.00
C1245  C     0.61590   0.41699   0.85357   0.00000  Uiso   1.00
C1246  C     0.87403   0.40807   0.86893   0.00000  Uiso   1.00
C1247  C     0.94039   0.19086   0.83356   0.00000  Uiso   1.00
C1248  C     0.62595   0.09191   0.79775   0.00000  Uiso   1.00
C1249  C     0.65020   0.12117   0.87402   0.00000  Uiso   1.00
C1250  C     0.84979   0.37882   0.79265   0.00000  Uiso   1.00
C1251  C     0.59263   0.34315   0.83228   0.00000  Uiso   1.00
C1252  C     0.90737   0.15685   0.83439   0.00000  Uiso   1.00
C1253  C     0.90392   0.34018   0.83623   0.00000  Uiso   1.00
C1254  C     0.59607   0.15981   0.83044   0.00000  Uiso   1.00
C1255  C     0.84263   0.09316   0.83228   0.00000  Uiso   1.00
C1256  C     0.65737   0.40685   0.83438   0.00000  Uiso   1.00
C1257  C     0.65391   0.09017   0.83623   0.00000  Uiso   1.00
C1258  C     0.55961   0.30915   0.83310   0.00000  Uiso   1.00
C1259  C     0.84608   0.40982   0.83044   0.00000  Uiso   1.00
C1260  C     0.96336   0.10306   0.80055   0.00000  Uiso   1.00
C1261  C     0.53665   0.39693   0.86617   0.00000  Uiso   1.00
C1262  C     0.64198   0.28816   0.79021   0.00000  Uiso   1.00
C1263  C     0.85800   0.21187   0.87641   0.00000  Uiso   1.00
C1264  C     0.62923   0.19723   0.90231   0.00000  Uiso   1.00
C1265  C     0.87078   0.30277   0.76434   0.00000  Uiso   1.00
C1266  C     0.92240   0.36431   0.92041   0.00000  Uiso   1.00
C1267  C     0.57755   0.13565   0.74627   0.00000  Uiso   1.00
C1268  C     0.71336   0.35307   0.80051   0.00000  Uiso   1.00
C1269  C     0.81067   0.44168   0.83240   0.00000  Uiso   1.00
C1270  C     0.78664   0.14693   0.86617   0.00000  Uiso   1.00
C1271  C     0.89199   0.03815   0.79023   0.00000  Uiso   1.00
C1272  C     0.60801   0.46186   0.87641   0.00000  Uiso   1.00
C1273  C     0.87922   0.44722   0.90233   0.00000  Uiso   1.00
C1274  C     0.62077   0.05275   0.76434   0.00000  Uiso   1.00
C1275  C     0.67240   0.11431   0.92041   0.00000  Uiso   1.00
C1276  C     0.82758   0.38567   0.74626   0.00000  Uiso   1.00
C1277  C     0.68933   0.05832   0.83427   0.00000  Uiso   1.00
C1278  C     0.69039   0.44085   0.83356   0.00000  Uiso   1.00
C1279  C     0.80961   0.05915   0.83310   0.00000  Uiso   1.00
C1280  C     0.99645   0.21164   0.69076   0.00000  Uiso   1.00
Cu1281 Cu    0.50000   0.25000   0.88022   0.00000  Uiso   1.00
Cu1282 Cu    0.50000   0.25000   0.78645   0.00000  Uiso   1.00
Cu1283 Cu    0.75000  -0.00000   0.88022   0.00000  Uiso   1.00
Cu1284 Cu    0.75000  -0.00000   0.78645   0.00000  Uiso   1.00
H1285  H     0.99345   0.18096   0.70889   0.00000  Uiso   1.00
H1286  H     0.97349   0.07309   0.81869   0.00000  Uiso   1.00
H1287  H     0.96531   0.09754   0.76195   0.00000  Uiso   1.00
H1288  H     0.51236   0.37161   0.85677   0.00000  Uiso   1.00
H1289  H     0.53473   0.40251   0.90476   0.00000  Uiso   1.00
H1290  H     0.52647   0.42686   0.84800   0.00000  Uiso   1.00
H1291  H     0.62057   0.28358   0.75976   0.00000  Uiso   1.00
H1292  H     0.67537   0.28290   0.77649   0.00000  Uiso   1.00
H1293  H     0.63489   0.26206   0.81580   0.00000  Uiso   1.00
H1294  H     0.87939   0.21646   0.90688   0.00000  Uiso   1.00
H1295  H     0.86512   0.23795   0.85081   0.00000  Uiso   1.00
H1296  H     0.50655   0.31904   0.95777   0.00000  Uiso   1.00
H1297  H     0.82460   0.21715   0.89010   0.00000  Uiso   1.00
H1298  H     0.61888   0.22837   0.88691   0.00000  Uiso   1.00
H1299  H     0.61037   0.19178   0.93539   0.00000  Uiso   1.00
H1300  H     0.66397   0.20269   0.91018   0.00000  Uiso   1.00
H1301  H     0.88114   0.27163   0.77972   0.00000  Uiso   1.00
H1302  H     0.83604   0.29729   0.75648   0.00000  Uiso   1.00
H1303  H     0.88962   0.30823   0.73126   0.00000  Uiso   1.00
H1304  H     0.91353   0.33158   0.93418   0.00000  Uiso   1.00
H1305  H     0.95798   0.36758   0.91582   0.00000  Uiso   1.00
H1306  H     0.91218   0.38741   0.94888   0.00000  Uiso   1.00
H1307  H     0.50623   0.31910   0.71153   0.00000  Uiso   1.00
H1308  H     0.58643   0.16837   0.73248   0.00000  Uiso   1.00
H1309  H     0.58774   0.11253   0.71781   0.00000  Uiso   1.00
H1310  H     0.54198   0.13240   0.75088   0.00000  Uiso   1.00
H1311  H     0.73765   0.37837   0.80998   0.00000  Uiso   1.00
H1312  H     0.72350   0.32311   0.81865   0.00000  Uiso   1.00
H1313  H     0.71529   0.34754   0.76192   0.00000  Uiso   1.00
H1314  H     0.76236   0.12161   0.85676   0.00000  Uiso   1.00
H1315  H     0.78473   0.15251   0.90477   0.00000  Uiso   1.00
H1316  H     0.77646   0.17687   0.84801   0.00000  Uiso   1.00
H1317  H     0.87057   0.03356   0.75979   0.00000  Uiso   1.00
H1318  H     0.99377   0.18090   0.95514   0.00000  Uiso   1.00
H1319  H     0.92538   0.03290   0.77649   0.00000  Uiso   1.00
H1320  H     0.88492   0.01206   0.81583   0.00000  Uiso   1.00
H1321  H     0.62940   0.46645   0.90688   0.00000  Uiso   1.00
H1322  H     0.61512   0.48794   0.85082   0.00000  Uiso   1.00
H1323  H     0.57461   0.46713   0.89011   0.00000  Uiso   1.00
H1324  H     0.86887   0.47836   0.88694   0.00000  Uiso   1.00
H1325  H     0.86036   0.44176   0.93540   0.00000  Uiso   1.00
H1326  H     0.91396   0.45269   0.91020   0.00000  Uiso   1.00
H1327  H     0.63114   0.02162   0.77973   0.00000  Uiso   1.00
H1328  H     0.58603   0.04727   0.75649   0.00000  Uiso   1.00
H1329  H     0.74344   0.43096   0.70889   0.00000  Uiso   1.00
H1330  H     0.63962   0.05822   0.73127   0.00000  Uiso   1.00
H1331  H     0.66353   0.08158   0.93418   0.00000  Uiso   1.00
H1332  H     0.70798   0.11758   0.91582   0.00000  Uiso   1.00
H1333  H     0.66218   0.13742   0.94887   0.00000  Uiso   1.00
H1334  H     0.83645   0.41840   0.73249   0.00000  Uiso   1.00
H1335  H     0.83778   0.36256   0.71780   0.00000  Uiso   1.00
H1336  H     0.79200   0.38241   0.75086   0.00000  Uiso   1.00
H1337  H     0.75656   0.06904   0.95777   0.00000  Uiso   1.00
H1338  H     0.75624   0.06910   0.71153   0.00000  Uiso   1.00
H1339  H     0.74376   0.43090   0.95514   0.00000  Uiso   1.00
H1340  H     0.98766   0.12835   0.81004   0.00000  Uiso   1.00
N1341  N     0.50000   0.25000   0.95069   0.00000  Uiso   1.00
N1342  N     0.50000   0.25000   0.71598   0.00000  Uiso   1.00
N1343  N     0.75000  -0.00000   0.95069   0.00000  Uiso   1.00
N1344  N     0.75000  -0.00000   0.71598   0.00000  Uiso   1.00
O1345  O     0.54509   0.20491   0.87291   0.00000  Uiso   1.00
O1346  O     0.70492   0.04509   0.79375   0.00000  Uiso   1.00
O1347  O     0.70492   0.04509   0.87291   0.00000  Uiso   1.00
O1348  O     0.79509   0.45491   0.79375   0.00000  Uiso   1.00
O1349  O     0.70492   0.45491   0.79375   0.00000  Uiso   1.00
O1350  O     0.79509   0.04509   0.87291   0.00000  Uiso   1.00
O1351  O     0.79509   0.04509   0.79375   0.00000  Uiso   1.00
O1352  O     0.70492   0.45491   0.87291   0.00000  Uiso   1.00
O1353  O     0.95492   0.29509   0.79375   0.00000  Uiso   1.00
O1354  O     0.95492   0.29509   0.87291   0.00000  Uiso   1.00
O1355  O     0.54509   0.20491   0.79375   0.00000  Uiso   1.00
O1356  O     0.95492   0.20491   0.79375   0.00000  Uiso   1.00
O1357  O     0.54509   0.29509   0.87291   0.00000  Uiso   1.00
O1358  O     0.54509   0.29509   0.79375   0.00000  Uiso   1.00
O1359  O     0.95492   0.20491   0.87291   0.00000  Uiso   1.00
O1360  O     0.79509   0.45491   0.87291   0.00000  Uiso   1.00
C1361  C     0.06067   0.69168   0.83240   0.00000  Uiso   1.00
C1362  C     0.00355   0.78836   0.97591   0.00000  Uiso   1.00
C1363  C     0.00348   0.78837   0.69221   0.00000  Uiso   1.00
C1364  C     0.49652   0.71163   0.97445   0.00000  Uiso   1.00
C1365  C     0.24645   0.96164   0.69076   0.00000  Uiso   1.00
C1366  C     0.25355   0.53836   0.97591   0.00000  Uiso   1.00
C1367  C     0.25349   0.53837   0.69221   0.00000  Uiso   1.00
C1368  C     0.24651   0.96163   0.97445   0.00000  Uiso   1.00
C1369  C     0.41728   0.61481   0.81562   0.00000  Uiso   1.00
C1370  C     0.08272   0.88519   0.85106   0.00000  Uiso   1.00
C1371  C     0.13410   0.83302   0.81309   0.00000  Uiso   1.00
C1372  C     0.43933   0.80832   0.83427   0.00000  Uiso   1.00
C1373  C     0.36589   0.66699   0.85356   0.00000  Uiso   1.00
C1374  C     0.12404   0.65807   0.86892   0.00000  Uiso   1.00
C1375  C     0.37596   0.84192   0.79774   0.00000  Uiso   1.00
C1376  C     0.40020   0.87117   0.87402   0.00000  Uiso   1.00
C1377  C     0.09978   0.62881   0.79265   0.00000  Uiso   1.00
C1378  C     0.16728   0.86481   0.81561   0.00000  Uiso   1.00
C1379  C     0.33272   0.63519   0.85105   0.00000  Uiso   1.00
C1380  C     0.38410   0.58302   0.81310   0.00000  Uiso   1.00
C1381  C     0.11590   0.91699   0.85357   0.00000  Uiso   1.00
C1382  C     0.37403   0.90807   0.86893   0.00000  Uiso   1.00
C1383  C     0.44039   0.69086   0.83356   0.00000  Uiso   1.00
C1384  C     0.12595   0.59191   0.79775   0.00000  Uiso   1.00
C1385  C     0.15020   0.62117   0.87402   0.00000  Uiso   1.00
C1386  C     0.34979   0.87882   0.79265   0.00000  Uiso   1.00
C1387  C     0.09263   0.84315   0.83228   0.00000  Uiso   1.00
C1388  C     0.40737   0.65685   0.83439   0.00000  Uiso   1.00
C1389  C     0.40392   0.84018   0.83623   0.00000  Uiso   1.00
C1390  C     0.09607   0.65981   0.83044   0.00000  Uiso   1.00
C1391  C     0.34263   0.59316   0.83228   0.00000  Uiso   1.00
C1392  C     0.15737   0.90685   0.83438   0.00000  Uiso   1.00
C1393  C     0.15391   0.59017   0.83623   0.00000  Uiso   1.00
C1394  C     0.05961   0.80915   0.83310   0.00000  Uiso   1.00
C1395  C     0.34608   0.90982   0.83044   0.00000  Uiso   1.00
C1396  C     0.46336   0.60306   0.80055   0.00000  Uiso   1.00
C1397  C     0.03665   0.89693   0.86617   0.00000  Uiso   1.00
C1398  C     0.14198   0.78816   0.79021   0.00000  Uiso   1.00
C1399  C     0.35800   0.71187   0.87641   0.00000  Uiso   1.00
C1400  C     0.12923   0.69723   0.90231   0.00000  Uiso   1.00
C1401  C     0.37078   0.80277   0.76434   0.00000  Uiso   1.00
C1402  C     0.42240   0.86431   0.92041   0.00000  Uiso   1.00
C1403  C     0.07755   0.63565   0.74627   0.00000  Uiso   1.00
C1404  C     0.21336   0.85307   0.80051   0.00000  Uiso   1.00
C1405  C     0.31067   0.94168   0.83240   0.00000  Uiso   1.00
C1406  C     0.28664   0.64693   0.86617   0.00000  Uiso   1.00
C1407  C     0.39199   0.53815   0.79023   0.00000  Uiso   1.00
C1408  C     0.10801   0.96186   0.87641   0.00000  Uiso   1.00
C1409  C     0.37922   0.94722   0.90233   0.00000  Uiso   1.00
C1410  C     0.12077   0.55275   0.76434   0.00000  Uiso   1.00
C1411  C     0.17240   0.61431   0.92041   0.00000  Uiso   1.00
C1412  C     0.32758   0.88567   0.74626   0.00000  Uiso   1.00
C1413  C     0.18933   0.55832   0.83427   0.00000  Uiso   1.00
C1414  C     0.19039   0.94085   0.83356   0.00000  Uiso   1.00
C1415  C     0.30961   0.55915   0.83310   0.00000  Uiso   1.00
C1416  C     0.49645   0.71164   0.69076   0.00000  Uiso   1.00
Cu1417 Cu    0.00000   0.75000   0.88022   0.00000  Uiso   1.00
Cu1418 Cu    0.00000   0.75000   0.78645   0.00000  Uiso   1.00
Cu1419 Cu    0.25000   0.50000   0.88022   0.00000  Uiso   1.00
Cu1420 Cu    0.25000   0.50000   0.78645   0.00000  Uiso   1.00
H1421  H     0.49345   0.68096   0.70889   0.00000  Uiso   1.00
H1422  H     0.47349   0.57309   0.81869   0.00000  Uiso   1.00
H1423  H     0.46531   0.59754   0.76195   0.00000  Uiso   1.00
H1424  H     0.01236   0.87161   0.85677   0.00000  Uiso   1.00
H1425  H     0.03473   0.90251   0.90476   0.00000  Uiso   1.00
H1426  H     0.02647   0.92686   0.84800   0.00000  Uiso   1.00
H1427  H     0.12057   0.78358   0.75976   0.00000  Uiso   1.00
H1428  H     0.17537   0.78290   0.77649   0.00000  Uiso   1.00
H1429  H     0.13489   0.76206   0.81580   0.00000  Uiso   1.00
H1430  H     0.37939   0.71646   0.90688   0.00000  Uiso   1.00
H1431  H     0.36512   0.73795   0.85081   0.00000  Uiso   1.00
H1432  H     0.00655   0.81904   0.95777   0.00000  Uiso   1.00
H1433  H     0.32460   0.71715   0.89010   0.00000  Uiso   1.00
H1434  H     0.11888   0.72837   0.88691   0.00000  Uiso   1.00
H1435  H     0.11037   0.69178   0.93539   0.00000  Uiso   1.00
H1436  H     0.16397   0.70269   0.91018   0.00000  Uiso   1.00
H1437  H     0.38114   0.77163   0.77972   0.00000  Uiso   1.00
H1438  H     0.33604   0.79729   0.75648   0.00000  Uiso   1.00
H1439  H     0.38962   0.80823   0.73126   0.00000  Uiso   1.00
H1440  H     0.41353   0.83158   0.93418   0.00000  Uiso   1.00
H1441  H     0.45798   0.86758   0.91582   0.00000  Uiso   1.00
H1442  H     0.41218   0.88741   0.94888   0.00000  Uiso   1.00
H1443  H     0.00623   0.81910   0.71153   0.00000  Uiso   1.00
H1444  H     0.08643   0.66837   0.73248   0.00000  Uiso   1.00
H1445  H     0.08774   0.61253   0.71781   0.00000  Uiso   1.00
H1446  H     0.04198   0.63240   0.75088   0.00000  Uiso   1.00
H1447  H     0.23765   0.87837   0.80998   0.00000  Uiso   1.00
H1448  H     0.22350   0.82311   0.81865   0.00000  Uiso   1.00
H1449  H     0.21529   0.84754   0.76192   0.00000  Uiso   1.00
H1450  H     0.26236   0.62161   0.85676   0.00000  Uiso   1.00
H1451  H     0.28473   0.65251   0.90477   0.00000  Uiso   1.00
H1452  H     0.27646   0.67687   0.84801   0.00000  Uiso   1.00
H1453  H     0.37057   0.53356   0.75979   0.00000  Uiso   1.00
H1454  H     0.49377   0.68090   0.95514   0.00000  Uiso   1.00
H1455  H     0.42538   0.53290   0.77649   0.00000  Uiso   1.00
H1456  H     0.38492   0.51206   0.81583   0.00000  Uiso   1.00
H1457  H     0.12940   0.96645   0.90688   0.00000  Uiso   1.00
H1458  H     0.11512   0.98794   0.85082   0.00000  Uiso   1.00
H1459  H     0.07461   0.96713   0.89011   0.00000  Uiso   1.00
H1460  H     0.36887   0.97836   0.88694   0.00000  Uiso   1.00
H1461  H     0.36036   0.94176   0.93540   0.00000  Uiso   1.00
H1462  H     0.41396   0.95269   0.91020   0.00000  Uiso   1.00
H1463  H     0.13114   0.52162   0.77973   0.00000  Uiso   1.00
H1464  H     0.08603   0.54727   0.75649   0.00000  Uiso   1.00
H1465  H     0.24344   0.93096   0.70889   0.00000  Uiso   1.00
H1466  H     0.13962   0.55822   0.73127   0.00000  Uiso   1.00
H1467  H     0.16353   0.58158   0.93418   0.00000  Uiso   1.00
H1468  H     0.20798   0.61758   0.91582   0.00000  Uiso   1.00
H1469  H     0.16218   0.63742   0.94887   0.00000  Uiso   1.00
H1470  H     0.33645   0.91840   0.73249   0.00000  Uiso   1.00
H1471  H     0.33778   0.86256   0.71780   0.00000  Uiso   1.00
H1472  H     0.29200   0.88241   0.75086   0.00000  Uiso   1.00
H1473  H     0.25656   0.56904   0.95777   0.00000  Uiso   1.00
H1474  H     0.25624   0.56910   0.71153   0.00000  Uiso   1.00
H1475  H     0.24376   0.93090   0.95514   0.00000  Uiso   1.00
H1476  H     0.48766   0.62835   0.81004   0.00000  Uiso   1.00
N1477  N     0.00000   0.75000   0.95069   0.00000  Uiso   1.00
N1478  N     0.00000   0.75000   0.71598   0.00000  Uiso   1.00
N1479  N     0.25000   0.50000   0.95069   0.00000  Uiso   1.00
N1480  N     0.25000   0.50000   0.71598   0.00000  Uiso   1.00
O1481  O     0.04509   0.70491   0.87291   0.00000  Uiso   1.00
O1482  O     0.20492   0.54509   0.79375   0.00000  Uiso   1.00
O1483  O     0.20492   0.54509   0.87291   0.00000  Uiso   1.00
O1484  O     0.29509   0.95491   0.79375   0.00000  Uiso   1.00
O1485  O     0.20492   0.95491   0.79375   0.00000  Uiso   1.00
O1486  O     0.29509   0.54509   0.87291   0.00000  Uiso   1.00
O1487  O     0.29509   0.54509   0.79375   0.00000  Uiso   1.00
O1488  O     0.20492   0.95491   0.87291   0.00000  Uiso   1.00
O1489  O     0.45492   0.79509   0.79375   0.00000  Uiso   1.00
O1490  O     0.45492   0.79509   0.87291   0.00000  Uiso   1.00
O1491  O     0.04509   0.70491   0.79375   0.00000  Uiso   1.00
O1492  O     0.45492   0.70491   0.79375   0.00000  Uiso   1.00
O1493  O     0.04509   0.79509   0.87291   0.00000  Uiso   1.00
O1494  O     0.04509   0.79509   0.79375   0.00000  Uiso   1.00
O1495  O     0.45492   0.70491   0.87291   0.00000  Uiso   1.00
O1496  O     0.29509   0.95491   0.87291   0.00000  Uiso   1.00
C1497  C     0.56067   0.69168   0.83240   0.00000  Uiso   1.00
C1498  C     0.50355   0.78836   0.97591   0.00000  Uiso   1.00
C1499  C     0.50348   0.78837   0.69221   0.00000  Uiso   1.00
C1500  C     0.99652   0.71163   0.97445   0.00000  Uiso   1.00
C1501  C     0.74645   0.96164   0.69076   0.00000  Uiso   1.00
C1502  C     0.75355   0.53836   0.97591   0.00000  Uiso   1.00
C1503  C     0.75349   0.53837   0.69221   0.00000  Uiso   1.00
C1504  C     0.74651   0.96163   0.97445   0.00000  Uiso   1.00
C1505  C     0.91728   0.61481   0.81562   0.00000  Uiso   1.00
C1506  C     0.58272   0.88519   0.85106   0.00000  Uiso   1.00
C1507  C     0.63410   0.83302   0.81309   0.00000  Uiso   1.00
C1508  C     0.93933   0.80832   0.83427   0.00000  Uiso   1.00
C1509  C     0.86589   0.66699   0.85356   0.00000  Uiso   1.00
C1510  C     0.62404   0.65807   0.86892   0.00000  Uiso   1.00
C1511  C     0.87596   0.84192   0.79774   0.00000  Uiso   1.00
C1512  C     0.90020   0.87117   0.87402   0.00000  Uiso   1.00
C1513  C     0.59978   0.62881   0.79265   0.00000  Uiso   1.00
C1514  C     0.66728   0.86481   0.81561   0.00000  Uiso   1.00
C1515  C     0.83272   0.63519   0.85105   0.00000  Uiso   1.00
C1516  C     0.88410   0.58302   0.81310   0.00000  Uiso   1.00
C1517  C     0.61590   0.91699   0.85357   0.00000  Uiso   1.00
C1518  C     0.87403   0.90807   0.86893   0.00000  Uiso   1.00
C1519  C     0.94039   0.69086   0.83356   0.00000  Uiso   1.00
C1520  C     0.62595   0.59191   0.79775   0.00000  Uiso   1.00
C1521  C     0.65020   0.62117   0.87402   0.00000  Uiso   1.00
C1522  C     0.84979   0.87882   0.79265   0.00000  Uiso   1.00
C1523  C     0.59263   0.84315   0.83228   0.00000  Uiso   1.00
C1524  C     0.90737   0.65685   0.83439   0.00000  Uiso   1.00
C1525  C     0.90392   0.84018   0.83623   0.00000  Uiso   1.00
C1526  C     0.59607   0.65981   0.83044   0.00000  Uiso   1.00
C1527  C     0.84263   0.59316   0.83228   0.00000  Uiso   1.00
C1528  C     0.65737   0.90685   0.83438   0.00000  Uiso   1.00
C1529  C     0.65391   0.59017   0.83623   0.00000  Uiso   1.00
C1530  C     0.55961   0.80915   0.83310   0.00000  Uiso   1.00
C1531  C     0.84608   0.90982   0.83044   0.00000  Uiso   1.00
C1532  C     0.96336   0.60306   0.80055   0.00000  Uiso   1.00
C1533  C     0.53665   0.89693   0.86617   0.00000  Uiso   1.00
C1534  C     0.64198   0.78816   0.79021   0.00000  Uiso   1.00
C1535  C     0.85800   0.71187   0.87641   0.00000  Uiso   1.00
C1536  C     0.62923   0.69723   0.90231   0.00000  Uiso   1.00
C1537  C     0.87078   0.80277   0.76434   0.00000  Uiso   1.00
C1538  C     0.92240   0.86431   0.92041   0.00000  Uiso   1.00
C1539  C     0.57755   0.63565   0.74627   0.00000  Uiso   1.00
C1540  C     0.71336   0.85307   0.80051   0.00000  Uiso   1.00
C1541  C     0.81067   0.94168   0.83240   0.00000  Uiso   1.00
C1542  C     0.78664   0.64693   0.86617   0.00000  Uiso   1.00
C1543  C     0.89199   0.53815   0.79023   0.00000  Uiso   1.00
C1544  C     0.60801   0.96186   0.87641   0.00000  Uiso   1.00
C1545  C     0.87922   0.94722   0.90233   0.00000  Uiso   1.00
C1546  C     0.62077   0.55275   0.76434   0.00000  Uiso   1.00
C1547  C     0.67240   0.61431   0.92041   0.00000  Uiso   1.00
C1548  C     0.82758   0.88567   0.74626   0.00000  Uiso   1.00
C1549  C     0.68933   0.55832   0.83427   0.00000  Uiso   1.00
C1550  C     0.69039   0.94085   0.83356   0.00000  Uiso   1.00
C1551  C     0.80961   0.55915   0.83310   0.00000  Uiso   1.00
C1552  C     0.99645   0.71164   0.69076   0.00000  Uiso   1.00
Cu1553 Cu    0.50000   0.75000   0.88022   0.00000  Uiso   1.00
Cu1554 Cu    0.50000   0.75000   0.78645   0.00000  Uiso   1.00
Cu1555 Cu    0.75000   0.50000   0.88022   0.00000  Uiso   1.00
Cu1556 Cu    0.75000   0.50000   0.78645   0.00000  Uiso   1.00
H1557  H     0.99345   0.68096   0.70889   0.00000  Uiso   1.00
H1558  H     0.97349   0.57309   0.81869   0.00000  Uiso   1.00
H1559  H     0.96531   0.59754   0.76195   0.00000  Uiso   1.00
H1560  H     0.51236   0.87161   0.85677   0.00000  Uiso   1.00
H1561  H     0.53473   0.90251   0.90476   0.00000  Uiso   1.00
H1562  H     0.52647   0.92686   0.84800   0.00000  Uiso   1.00
H1563  H     0.62057   0.78358   0.75976   0.00000  Uiso   1.00
H1564  H     0.67537   0.78290   0.77649   0.00000  Uiso   1.00
H1565  H     0.63489   0.76206   0.81580   0.00000  Uiso   1.00
H1566  H     0.87939   0.71646   0.90688   0.00000  Uiso   1.00
H1567  H     0.86512   0.73795   0.85081   0.00000  Uiso   1.00
H1568  H     0.50655   0.81904   0.95777   0.00000  Uiso   1.00
H1569  H     0.82460   0.71715   0.89010   0.00000  Uiso   1.00
H1570  H     0.61888   0.72837   0.88691   0.00000  Uiso   1.00
H1571  H     0.61037   0.69178   0.93539   0.00000  Uiso   1.00
H1572  H     0.66397   0.70269   0.91018   0.00000  Uiso   1.00
H1573  H     0.88114   0.77163   0.77972   0.00000  Uiso   1.00
H1574  H     0.83604   0.79729   0.75648   0.00000  Uiso   1.00
H1575  H     0.88962   0.80823   0.73126   0.00000  Uiso   1.00
H1576  H     0.91353   0.83158   0.93418   0.00000  Uiso   1.00
H1577  H     0.95798   0.86758   0.91582   0.00000  Uiso   1.00
H1578  H     0.91218   0.88741   0.94888   0.00000  Uiso   1.00
H1579  H     0.50623   0.81910   0.71153   0.00000  Uiso   1.00
H1580  H     0.58643   0.66837   0.73248   0.00000  Uiso   1.00
H1581  H     0.58774   0.61253   0.71781   0.00000  Uiso   1.00
H1582  H     0.54198   0.63240   0.75088   0.00000  Uiso   1.00
H1583  H     0.73765   0.87837   0.80998   0.00000  Uiso   1.00
H1584  H     0.72350   0.82311   0.81865   0.00000  Uiso   1.00
H1585  H     0.71529   0.84754   0.76192   0.00000  Uiso   1.00
H1586  H     0.76236   0.62161   0.85676   0.00000  Uiso   1.00
H1587  H     0.78473   0.65251   0.90477   0.00000  Uiso   1.00
H1588  H     0.77646   0.67687   0.84801   0.00000  Uiso   1.00
H1589  H     0.87057   0.53356   0.75979   0.00000  Uiso   1.00
H1590  H     0.99377   0.68090   0.95514   0.00000  Uiso   1.00
H1591  H     0.92538   0.53290   0.77649   0.00000  Uiso   1.00
H1592  H     0.88492   0.51206   0.81583   0.00000  Uiso   1.00
H1593  H     0.62940   0.96645   0.90688   0.00000  Uiso   1.00
H1594  H     0.61512   0.98794   0.85082   0.00000  Uiso   1.00
H1595  H     0.57461   0.96713   0.89011   0.00000  Uiso   1.00
H1596  H     0.86887   0.97836   0.88694   0.00000  Uiso   1.00
H1597  H     0.86036   0.94176   0.93540   0.00000  Uiso   1.00
H1598  H     0.91396   0.95269   0.91020   0.00000  Uiso   1.00
H1599  H     0.63114   0.52162   0.77973   0.00000  Uiso   1.00
H1600  H     0.58603   0.54727   0.75649   0.00000  Uiso   1.00
H1601  H     0.74344   0.93096   0.70889   0.00000  Uiso   1.00
H1602  H     0.63962   0.55822   0.73127   0.00000  Uiso   1.00
H1603  H     0.66353   0.58158   0.93418   0.00000  Uiso   1.00
H1604  H     0.70798   0.61758   0.91582   0.00000  Uiso   1.00
H1605  H     0.66218   0.63742   0.94887   0.00000  Uiso   1.00
H1606  H     0.83645   0.91840   0.73249   0.00000  Uiso   1.00
H1607  H     0.83778   0.86256   0.71780   0.00000  Uiso   1.00
H1608  H     0.79200   0.88241   0.75086   0.00000  Uiso   1.00
H1609  H     0.75656   0.56904   0.95777   0.00000  Uiso   1.00
H1610  H     0.75624   0.56910   0.71153   0.00000  Uiso   1.00
H1611  H     0.74376   0.93090   0.95514   0.00000  Uiso   1.00
H1612  H     0.98766   0.62835   0.81004   0.00000  Uiso   1.00
N1613  N     0.50000   0.75000   0.95069   0.00000  Uiso   1.00
N1614  N     0.50000   0.75000   0.71598   0.00000  Uiso   1.00
N1615  N     0.75000   0.50000   0.95069   0.00000  Uiso   1.00
N1616  N     0.75000   0.50000   0.71598   0.00000  Uiso   1.00
O1617  O     0.54509   0.70491   0.87291   0.00000  Uiso   1.00
O1618  O     0.70492   0.54509   0.79375   0.00000  Uiso   1.00
O1619  O     0.70492   0.54509   0.87291   0.00000  Uiso   1.00
O1620  O     0.79509   0.95491   0.79375   0.00000  Uiso   1.00
O1621  O     0.70492   0.95491   0.79375   0.00000  Uiso   1.00
O1622  O     0.79509   0.54509   0.87291   0.00000  Uiso   1.00
O1623  O     0.79509   0.54509   0.79375   0.00000  Uiso   1.00
O1624  O     0.70492   0.95491   0.87291   0.00000  Uiso   1.00
O1625  O     0.95492   0.79509   0.79375   0.00000  Uiso   1.00
O1626  O     0.95492   0.79509   0.87291   0.00000  Uiso   1.00
O1627  O     0.54509   0.70491   0.79375   0.00000  Uiso   1.00
O1628  O     0.95492   0.70491   0.79375   0.00000  Uiso   1.00
O1629  O     0.54509   0.79509   0.87291   0.00000  Uiso   1.00
O1630  O     0.54509   0.79509   0.79375   0.00000  Uiso   1.00
O1631  O     0.95492   0.70491   0.87291   0.00000  Uiso   1.00
O1632  O     0.79509   0.95491   0.87291   0.00000  Uiso   1.00
loop_
_geom_bond_atom_site_label_1
_geom_bond_atom_site_label_2
_geom_bond_distance
_geom_bond_site_symmetry_2
_ccdc_geom_bond_type
C1     O131    1.286   .     A
C1     C30     1.468   .     S
C1     O121    1.299   .     A
C2     H72     1.081   .     S
C2     N117    1.366   .     A
C2     C547    1.415   .     S
C3     H83     1.082   .     S
C3     C1090   1.415   1_554 S
C3     N118    1.367   .     S
C4     H94     1.082   .     S
C4     C600    1.415   .     S
C4     N253    1.367   .     S
C5     H105    1.081   .     S
C5     C1096   1.415   1_554 S
C5     N392    1.366   .     S
C6     H113    1.081   .     S
C6     C551    1.415   .     S
C6     N119    1.366   .     S
C7     H114    1.082   .     S
C7     N120    1.367   .     A
C7     C1094   1.415   1_554 S
C8     H115    1.082   .     S
C8     N391    1.367   .     A
C8     C549    1.415   .     S
C9     C36     1.519   .     S
C9     C20     1.406   .     A
C9     C28     1.413   .     A
C10    C27     1.413   .     A
C10    C37     1.519   .     S
C10    C21     1.406   .     A
C11    C18     1.406   .     A
C11    C38     1.524   .     S
C11    C27     1.414   .     A
C12    C29     1.468   .     S
C12    O130    1.286   .     A
C12    O129    1.299   .     A
C13    C28     1.414   .     A
C13    C19     1.406   .     A
C13    C39     1.524   .     S
C14    C30     1.414   .     A
C14    C25     1.403   .     A
C14    C40     1.523   .     S
C15    C29     1.414   .     A
C15    C41     1.523   .     S
C15    C26     1.403   .     A
C16    C22     1.403   .     A
C16    C42     1.523   .     S
C16    C29     1.423   .     A
C17    C43     1.523   .     S
C17    C30     1.423   .     A
C17    C24     1.403   .     A
C18    C44     1.519   .     S
C18    C32     1.413   .     A
C19    C31     1.413   .     A
C19    C46     1.519   .     S
C20    C47     1.524   .     S
C20    C31     1.414   .     A
C21    C48     1.524   .     S
C21    C32     1.414   .     A
C22    C35     1.414   .     A
C22    C49     1.523   .     S
C23    C28     1.448   .     S
C23    O135    1.283   .     A
C23    O132    1.290   .     A
C24    C50     1.523   .     S
C24    C33     1.414   .     A
C25    C51     1.523   .     S
C25    C33     1.423   .     A
C26    C52     1.523   .     S
C26    C35     1.423   .     A
C27    C34     1.448   .     S
C31    C55     1.448   .     S
C32    C54     1.448   .     S
C33    C53     1.468   .     S
C34    O133    1.290   .     A
C34    O134    1.283   .     A
C35    C45     1.468   .     S
C36    H62     1.110   .     S
C36    H116    1.106   .     S
C36    H63     1.110   .     S
C37    H65     1.110   .     S
C37    H66     1.110   .     S
C37    H64     1.105   .     S
C38    H69     1.107   .     S
C38    H68     1.105   .     S
C38    H67     1.109   .     S
C39    H71     1.108   .     S
C39    H70     1.109   .     S
C39    H73     1.105   .     S
C40    H76     1.111   .     S
C40    H75     1.111   .     S
C40    H74     1.107   .     S
C41    H78     1.111   .     S
C41    H79     1.111   .     S
C41    H77     1.107   .     S
C42    H82     1.106   .     S
C42    H80     1.110   .     S
C42    H81     1.106   .     S
C43    H84     1.110   .     S
C43    H85     1.106   .     S
C43    H86     1.106   .     S
C44    H87     1.105   .     S
C44    H88     1.110   .     S
C44    H89     1.110   .     S
C45    O124    1.286   .     A
C45    O136    1.299   .     A
C46    H92     1.110   .     S
C46    H91     1.110   .     S
C46    H90     1.105   .     S
C47    H95     1.105   .     S
C47    H96     1.108   .     S
C47    H93     1.109   .     S
C48    H97     1.109   .     S
C48    H99     1.105   .     S
C48    H98     1.107   .     S
C49    H101    1.111   .     S
C49    H102    1.111   .     S
C49    H100    1.107   .     S
C50    H104    1.111   .     S
C50    H103    1.107   .     S
C50    H106    1.111   .     S
C51    H108    1.106   .     S
C51    H107    1.110   .     S
C51    H109    1.106   .     S
C52    H112    1.106   .     S
C52    H110    1.110   .     S
C52    H111    1.106   .     S
C53    O122    1.299   .     A
C53    O123    1.286   .     A
C54    O125    1.290   .     A
C54    O128    1.283   .     A
C55    O126    1.290   .     A
C55    O127    1.283   .     A
C56    N254    1.366   .     A
C56    H61     1.081   .     S
C56    C1092   1.415   1_554 S
Cu57   O133    1.959   .     S
Cu57   N117    2.009   .     S
Cu57   O121    1.970   .     S
Cu57   Cu58    2.673   .     S
Cu57   O266    1.983   1_455 S
Cu57   O271    1.960   1_455 S
Cu58   O134    1.960   .     S
Cu58   O131    1.983   .     S
Cu58   N118    2.009   .     S
Cu58   O265    1.970   1_455 S
Cu58   O268    1.959   1_455 S
Cu59   O126    1.959   .     S
Cu59   O123    1.983   .     S
Cu59   Cu60    2.673   .     S
Cu59   N119    2.009   .     S
Cu59   O400    1.960   1_545 S
Cu59   O408    1.970   1_545 S
Cu60   O122    1.970   .     S
Cu60   O127    1.960   .     S
Cu60   N120    2.009   .     S
Cu60   O396    1.983   1_545 S
Cu60   O397    1.959   1_545 S
N117   C140    1.367   1_455 S
N118   C192    1.366   1_455 A
N119   C280    1.367   1_545 A
N120   C277    1.366   1_545 S
O124   Cu332   1.983   .     S
O125   Cu332   1.959   .     S
O128   Cu331   1.960   .     S
O129   Cu194   1.970   .     S
O130   Cu193   1.983   .     S
O132   Cu194   1.959   .     S
O135   Cu193   1.960   .     S
O136   Cu331   1.970   .     S
C137   O267    1.286   .     A
C137   C166    1.468   .     S
C137   O257    1.299   .     A
C138   H208    1.081   .     S
C138   N253    1.366   .     A
C138   C683    1.415   .     S
C139   H219    1.082   .     S
C139   C1226   1.415   1_554 S
C139   N254    1.367   .     S
C140   H230    1.082   .     S
C140   C736    1.415   .     S
C140   N117    1.367   1_655 S
C141   H241    1.081   .     S
C141   C1232   1.415   1_554 S
C141   N528    1.366   .     S
C142   H249    1.081   .     S
C142   C687    1.415   .     S
C142   N255    1.366   .     S
C143   H250    1.082   .     S
C143   N256    1.367   .     A
C143   C1230   1.415   1_554 S
C144   H251    1.082   .     S
C144   N527    1.367   .     A
C144   C685    1.415   .     S
C145   C172    1.519   .     S
C145   C156    1.406   .     A
C145   C164    1.413   .     A
C146   C163    1.413   .     A
C146   C173    1.519   .     S
C146   C157    1.406   .     A
C147   C154    1.406   .     A
C147   C174    1.524   .     S
C147   C163    1.414   .     A
C148   C165    1.468   .     S
C148   O266    1.286   .     A
C148   O265    1.299   .     A
C149   C164    1.414   .     A
C149   C155    1.406   .     A
C149   C175    1.524   .     S
C150   C166    1.414   .     A
C150   C161    1.403   .     A
C150   C176    1.523   .     S
C151   C165    1.414   .     A
C151   C177    1.523   .     S
C151   C162    1.403   .     A
C152   C158    1.403   .     A
C152   C178    1.523   .     S
C152   C165    1.423   .     A
C153   C179    1.523   .     S
C153   C166    1.423   .     A
C153   C160    1.403   .     A
C154   C180    1.519   .     S
C154   C168    1.413   .     A
C155   C167    1.413   .     A
C155   C182    1.519   .     S
C156   C183    1.524   .     S
C156   C167    1.414   .     A
C157   C184    1.524   .     S
C157   C168    1.414   .     A
C158   C171    1.414   .     A
C158   C185    1.523   .     S
C159   C164    1.448   .     S
C159   O271    1.283   .     A
C159   O268    1.290   .     A
C160   C186    1.523   .     S
C160   C169    1.414   .     A
C161   C187    1.523   .     S
C161   C169    1.423   .     A
C162   C188    1.523   .     S
C162   C171    1.423   .     A
C163   C170    1.448   .     S
C167   C191    1.448   .     S
C168   C190    1.448   .     S
C169   C189    1.468   .     S
C170   O269    1.290   .     A
C170   O270    1.283   .     A
C171   C181    1.468   .     S
C172   H198    1.110   .     S
C172   H252    1.106   .     S
C172   H199    1.110   .     S
C173   H201    1.110   .     S
C173   H202    1.110   .     S
C173   H200    1.105   .     S
C174   H205    1.107   .     S
C174   H204    1.105   .     S
C174   H203    1.109   .     S
C175   H207    1.108   .     S
C175   H206    1.109   .     S
C175   H209    1.105   .     S
C176   H212    1.111   .     S
C176   H211    1.111   .     S
C176   H210    1.107   .     S
C177   H214    1.111   .     S
C177   H215    1.111   .     S
C177   H213    1.107   .     S
C178   H218    1.106   .     S
C178   H216    1.110   .     S
C178   H217    1.106   .     S
C179   H220    1.110   .     S
C179   H221    1.106   .     S
C179   H222    1.106   .     S
C180   H223    1.105   .     S
C180   H224    1.110   .     S
C180   H225    1.110   .     S
C181   O260    1.286   .     A
C181   O272    1.299   .     A
C182   H228    1.110   .     S
C182   H227    1.110   .     S
C182   H226    1.105   .     S
C183   H231    1.105   .     S
C183   H232    1.108   .     S
C183   H229    1.109   .     S
C184   H233    1.109   .     S
C184   H235    1.105   .     S
C184   H234    1.107   .     S
C185   H237    1.111   .     S
C185   H238    1.111   .     S
C185   H236    1.107   .     S
C186   H240    1.111   .     S
C186   H239    1.107   .     S
C186   H242    1.111   .     S
C187   H244    1.106   .     S
C187   H243    1.110   .     S
C187   H245    1.106   .     S
C188   H248    1.106   .     S
C188   H246    1.110   .     S
C188   H247    1.106   .     S
C189   O258    1.299   .     A
C189   O259    1.286   .     A
C190   O261    1.290   .     A
C190   O264    1.283   .     A
C191   O262    1.290   .     A
C191   O263    1.283   .     A
C192   N118    1.366   1_655 A
C192   H197    1.081   .     S
C192   C1228   1.415   1_554 S
Cu193  O269    1.959   .     S
Cu193  N253    2.009   .     S
Cu193  O257    1.970   .     S
Cu193  Cu194   2.673   .     S
Cu194  O270    1.960   .     S
Cu194  O267    1.983   .     S
Cu194  N254    2.009   .     S
Cu195  O262    1.959   .     S
Cu195  O259    1.983   .     S
Cu195  Cu196   2.673   .     S
Cu195  N255    2.009   .     S
Cu195  O536    1.960   1_545 S
Cu195  O544    1.970   1_545 S
Cu196  O258    1.970   .     S
Cu196  O263    1.960   .     S
Cu196  N256    2.009   .     S
Cu196  O532    1.983   1_545 S
Cu196  O533    1.959   1_545 S
N255   C416    1.367   1_545 A
N256   C413    1.366   1_545 S
O260   Cu468   1.983   .     S
O261   Cu468   1.959   .     S
O264   Cu467   1.960   .     S
O265   Cu58    1.970   1_655 S
O266   Cu57    1.983   1_655 S
O268   Cu58    1.959   1_655 S
O271   Cu57    1.960   1_655 S
O272   Cu467   1.970   .     S
C273   O403    1.286   .     A
C273   C302    1.468   .     S
C273   O393    1.299   .     A
C274   H344    1.081   .     S
C274   N389    1.366   .     A
C274   C819    1.415   .     S
C275   H355    1.082   .     S
C275   C1362   1.415   1_554 S
C275   N390    1.367   .     S
C276   H366    1.082   .     S
C276   C872    1.415   .     S
C276   N525    1.367   .     S
C277   H377    1.081   .     S
C277   C1368   1.415   1_554 S
C277   N120    1.366   1_565 S
C278   H385    1.081   .     S
C278   C823    1.415   .     S
C278   N391    1.366   .     S
C279   H386    1.082   .     S
C279   N392    1.367   .     A
C279   C1366   1.415   1_554 S
C280   H387    1.082   .     S
C280   N119    1.367   1_565 A
C280   C821    1.415   .     S
C281   C308    1.519   .     S
C281   C292    1.406   .     A
C281   C300    1.413   .     A
C282   C299    1.413   .     A
C282   C309    1.519   .     S
C282   C293    1.406   .     A
C283   C290    1.406   .     A
C283   C310    1.524   .     S
C283   C299    1.414   .     A
C284   C301    1.468   .     S
C284   O402    1.286   .     A
C284   O401    1.299   .     A
C285   C300    1.414   .     A
C285   C291    1.406   .     A
C285   C311    1.524   .     S
C286   C302    1.414   .     A
C286   C297    1.403   .     A
C286   C312    1.523   .     S
C287   C301    1.414   .     A
C287   C313    1.523   .     S
C287   C298    1.403   .     A
C288   C294    1.403   .     A
C288   C314    1.523   .     S
C288   C301    1.423   .     A
C289   C315    1.523   .     S
C289   C302    1.423   .     A
C289   C296    1.403   .     A
C290   C316    1.519   .     S
C290   C304    1.413   .     A
C291   C303    1.413   .     A
C291   C318    1.519   .     S
C292   C319    1.524   .     S
C292   C303    1.414   .     A
C293   C320    1.524   .     S
C293   C304    1.414   .     A
C294   C307    1.414   .     A
C294   C321    1.523   .     S
C295   C300    1.448   .     S
C295   O407    1.283   .     A
C295   O404    1.290   .     A
C296   C322    1.523   .     S
C296   C305    1.414   .     A
C297   C323    1.523   .     S
C297   C305    1.423   .     A
C298   C324    1.523   .     S
C298   C307    1.423   .     A
C299   C306    1.448   .     S
C303   C327    1.448   .     S
C304   C326    1.448   .     S
C305   C325    1.468   .     S
C306   O405    1.290   .     A
C306   O406    1.283   .     A
C307   C317    1.468   .     S
C308   H334    1.110   .     S
C308   H388    1.106   .     S
C308   H335    1.110   .     S
C309   H337    1.110   .     S
C309   H338    1.110   .     S
C309   H336    1.105   .     S
C310   H341    1.107   .     S
C310   H340    1.105   .     S
C310   H339    1.109   .     S
C311   H343    1.108   .     S
C311   H342    1.109   .     S
C311   H345    1.105   .     S
C312   H348    1.111   .     S
C312   H347    1.111   .     S
C312   H346    1.107   .     S
C313   H350    1.111   .     S
C313   H351    1.111   .     S
C313   H349    1.107   .     S
C314   H354    1.106   .     S
C314   H352    1.110   .     S
C314   H353    1.106   .     S
C315   H356    1.110   .     S
C315   H357    1.106   .     S
C315   H358    1.106   .     S
C316   H359    1.105   .     S
C316   H360    1.110   .     S
C316   H361    1.110   .     S
C317   O396    1.286   .     A
C317   O408    1.299   .     A
C318   H364    1.110   .     S
C318   H363    1.110   .     S
C318   H362    1.105   .     S
C319   H367    1.105   .     S
C319   H368    1.108   .     S
C319   H365    1.109   .     S
C320   H369    1.109   .     S
C320   H371    1.105   .     S
C320   H370    1.107   .     S
C321   H373    1.111   .     S
C321   H374    1.111   .     S
C321   H372    1.107   .     S
C322   H376    1.111   .     S
C322   H375    1.107   .     S
C322   H378    1.111   .     S
C323   H380    1.106   .     S
C323   H379    1.110   .     S
C323   H381    1.106   .     S
C324   H384    1.106   .     S
C324   H382    1.110   .     S
C324   H383    1.106   .     S
C325   O394    1.299   .     A
C325   O395    1.286   .     A
C326   O397    1.290   .     A
C326   O400    1.283   .     A
C327   O398    1.290   .     A
C327   O399    1.283   .     A
C328   N526    1.366   .     A
C328   H333    1.081   .     S
C328   C1364   1.415   1_554 S
Cu329  O405    1.959   .     S
Cu329  N389    2.009   .     S
Cu329  O393    1.970   .     S
Cu329  Cu330   2.673   .     S
Cu329  O538    1.983   1_455 S
Cu329  O543    1.960   1_455 S
Cu330  O406    1.960   .     S
Cu330  O403    1.983   .     S
Cu330  N390    2.009   .     S
Cu330  O537    1.970   1_455 S
Cu330  O540    1.959   1_455 S
Cu331  O398    1.959   .     S
Cu331  O395    1.983   .     S
Cu331  Cu332   2.673   .     S
Cu331  N391    2.009   .     S
Cu332  O394    1.970   .     S
Cu332  O399    1.960   .     S
Cu332  N392    2.009   .     S
N389   C412    1.367   1_455 S
N390   C464    1.366   1_455 A
O396   Cu60    1.983   1_565 S
O397   Cu60    1.959   1_565 S
O400   Cu59    1.960   1_565 S
O401   Cu466   1.970   .     S
O402   Cu465   1.983   .     S
O404   Cu466   1.959   .     S
O407   Cu465   1.960   .     S
O408   Cu59    1.970   1_565 S
C409   O539    1.286   .     A
C409   C438    1.468   .     S
C409   O529    1.299   .     A
C410   H480    1.081   .     S
C410   N525    1.366   .     A
C410   C955    1.415   .     S
C411   H491    1.082   .     S
C411   C1498   1.415   1_554 S
C411   N526    1.367   .     S
C412   H502    1.082   .     S
C412   C1008   1.415   .     S
C412   N389    1.367   1_655 S
C413   H513    1.081   .     S
C413   C1504   1.415   1_554 S
C413   N256    1.366   1_565 S
C414   H521    1.081   .     S
C414   C959    1.415   .     S
C414   N527    1.366   .     S
C415   H522    1.082   .     S
C415   N528    1.367   .     A
C415   C1502   1.415   1_554 S
C416   H523    1.082   .     S
C416   N255    1.367   1_565 A
C416   C957    1.415   .     S
C417   C444    1.519   .     S
C417   C428    1.406   .     A
C417   C436    1.413   .     A
C418   C435    1.413   .     A
C418   C445    1.519   .     S
C418   C429    1.406   .     A
C419   C426    1.406   .     A
C419   C446    1.524   .     S
C419   C435    1.414   .     A
C420   C437    1.468   .     S
C420   O538    1.286   .     A
C420   O537    1.299   .     A
C421   C436    1.414   .     A
C421   C427    1.406   .     A
C421   C447    1.524   .     S
C422   C438    1.414   .     A
C422   C433    1.403   .     A
C422   C448    1.523   .     S
C423   C437    1.414   .     A
C423   C449    1.523   .     S
C423   C434    1.403   .     A
C424   C430    1.403   .     A
C424   C450    1.523   .     S
C424   C437    1.423   .     A
C425   C451    1.523   .     S
C425   C438    1.423   .     A
C425   C432    1.403   .     A
C426   C452    1.519   .     S
C426   C440    1.413   .     A
C427   C439    1.413   .     A
C427   C454    1.519   .     S
C428   C455    1.524   .     S
C428   C439    1.414   .     A
C429   C456    1.524   .     S
C429   C440    1.414   .     A
C430   C443    1.414   .     A
C430   C457    1.523   .     S
C431   C436    1.448   .     S
C431   O543    1.283   .     A
C431   O540    1.290   .     A
C432   C458    1.523   .     S
C432   C441    1.414   .     A
C433   C459    1.523   .     S
C433   C441    1.423   .     A
C434   C460    1.523   .     S
C434   C443    1.423   .     A
C435   C442    1.448   .     S
C439   C463    1.448   .     S
C440   C462    1.448   .     S
C441   C461    1.468   .     S
C442   O541    1.290   .     A
C442   O542    1.283   .     A
C443   C453    1.468   .     S
C444   H470    1.110   .     S
C444   H524    1.106   .     S
C444   H471    1.110   .     S
C445   H473    1.110   .     S
C445   H474    1.110   .     S
C445   H472    1.105   .     S
C446   H477    1.107   .     S
C446   H476    1.105   .     S
C446   H475    1.109   .     S
C447   H479    1.108   .     S
C447   H478    1.109   .     S
C447   H481    1.105   .     S
C448   H484    1.111   .     S
C448   H483    1.111   .     S
C448   H482    1.107   .     S
C449   H486    1.111   .     S
C449   H487    1.111   .     S
C449   H485    1.107   .     S
C450   H490    1.106   .     S
C450   H488    1.110   .     S
C450   H489    1.106   .     S
C451   H492    1.110   .     S
C451   H493    1.106   .     S
C451   H494    1.106   .     S
C452   H495    1.105   .     S
C452   H496    1.110   .     S
C452   H497    1.110   .     S
C453   O532    1.286   .     A
C453   O544    1.299   .     A
C454   H500    1.110   .     S
C454   H499    1.110   .     S
C454   H498    1.105   .     S
C455   H503    1.105   .     S
C455   H504    1.108   .     S
C455   H501    1.109   .     S
C456   H505    1.109   .     S
C456   H507    1.105   .     S
C456   H506    1.107   .     S
C457   H509    1.111   .     S
C457   H510    1.111   .     S
C457   H508    1.107   .     S
C458   H512    1.111   .     S
C458   H511    1.107   .     S
C458   H514    1.111   .     S
C459   H516    1.106   .     S
C459   H515    1.110   .     S
C459   H517    1.106   .     S
C460   H520    1.106   .     S
C460   H518    1.110   .     S
C460   H519    1.106   .     S
C461   O530    1.299   .     A
C461   O531    1.286   .     A
C462   O533    1.290   .     A
C462   O536    1.283   .     A
C463   O534    1.290   .     A
C463   O535    1.283   .     A
C464   N390    1.366   1_655 A
C464   H469    1.081   .     S
C464   C1500   1.415   1_554 S
Cu465  O541    1.959   .     S
Cu465  N525    2.009   .     S
Cu465  O529    1.970   .     S
Cu465  Cu466   2.673   .     S
Cu466  O542    1.960   .     S
Cu466  O539    1.983   .     S
Cu466  N526    2.009   .     S
Cu467  O534    1.959   .     S
Cu467  O531    1.983   .     S
Cu467  Cu468   2.673   .     S
Cu467  N527    2.009   .     S
Cu468  O530    1.970   .     S
Cu468  O535    1.960   .     S
Cu468  N528    2.009   .     S
O532   Cu196   1.983   1_565 S
O533   Cu196   1.959   1_565 S
O536   Cu195   1.960   1_565 S
O537   Cu330   1.970   1_655 S
O538   Cu329   1.983   1_655 S
O540   Cu330   1.959   1_655 S
O543   Cu329   1.960   1_655 S
O544   Cu195   1.970   1_565 S
C545   O675    1.286   .     A
C545   C574    1.468   .     S
C545   O665    1.299   .     A
C546   H616    1.081   .     S
C546   N661    1.366   .     A
C546   C1091   1.415   .     S
C547   H627    1.082   .     S
C547   N662    1.367   .     S
C548   H638    1.082   .     S
C548   C1144   1.415   .     S
C548   N797    1.367   .     S
C549   H649    1.081   .     S
C549   N936    1.366   .     S
C550   H657    1.081   .     S
C550   C1095   1.415   .     S
C550   N663    1.366   .     S
C551   H658    1.082   .     S
C551   N664    1.367   .     A
C552   H659    1.082   .     S
C552   N935    1.367   .     A
C552   C1093   1.415   .     S
C553   C580    1.519   .     S
C553   C564    1.406   .     A
C553   C572    1.413   .     A
C554   C571    1.413   .     A
C554   C581    1.519   .     S
C554   C565    1.406   .     A
C555   C562    1.406   .     A
C555   C582    1.524   .     S
C555   C571    1.414   .     A
C556   C573    1.468   .     S
C556   O674    1.286   .     A
C556   O673    1.299   .     A
C557   C572    1.414   .     A
C557   C563    1.406   .     A
C557   C583    1.524   .     S
C558   C574    1.414   .     A
C558   C569    1.403   .     A
C558   C584    1.523   .     S
C559   C573    1.414   .     A
C559   C585    1.523   .     S
C559   C570    1.403   .     A
C560   C566    1.403   .     A
C560   C586    1.523   .     S
C560   C573    1.423   .     A
C561   C587    1.523   .     S
C561   C574    1.423   .     A
C561   C568    1.403   .     A
C562   C588    1.519   .     S
C562   C576    1.413   .     A
C563   C575    1.413   .     A
C563   C590    1.519   .     S
C564   C591    1.524   .     S
C564   C575    1.414   .     A
C565   C592    1.524   .     S
C565   C576    1.414   .     A
C566   C579    1.414   .     A
C566   C593    1.523   .     S
C567   C572    1.448   .     S
C567   O679    1.283   .     A
C567   O676    1.290   .     A
C568   C594    1.523   .     S
C568   C577    1.414   .     A
C569   C595    1.523   .     S
C569   C577    1.423   .     A
C570   C596    1.523   .     S
C570   C579    1.423   .     A
C571   C578    1.448   .     S
C575   C599    1.448   .     S
C576   C598    1.448   .     S
C577   C597    1.468   .     S
C578   O677    1.290   .     A
C578   O678    1.283   .     A
C579   C589    1.468   .     S
C580   H606    1.110   .     S
C580   H660    1.106   .     S
C580   H607    1.110   .     S
C581   H609    1.110   .     S
C581   H610    1.110   .     S
C581   H608    1.105   .     S
C582   H613    1.107   .     S
C582   H612    1.105   .     S
C582   H611    1.109   .     S
C583   H615    1.108   .     S
C583   H614    1.109   .     S
C583   H617    1.105   .     S
C584   H620    1.111   .     S
C584   H619    1.111   .     S
C584   H618    1.107   .     S
C585   H622    1.111   .     S
C585   H623    1.111   .     S
C585   H621    1.107   .     S
C586   H626    1.106   .     S
C586   H624    1.110   .     S
C586   H625    1.106   .     S
C587   H628    1.110   .     S
C587   H629    1.106   .     S
C587   H630    1.106   .     S
C588   H631    1.105   .     S
C588   H632    1.110   .     S
C588   H633    1.110   .     S
C589   O668    1.286   .     A
C589   O680    1.299   .     A
C590   H636    1.110   .     S
C590   H635    1.110   .     S
C590   H634    1.105   .     S
C591   H639    1.105   .     S
C591   H640    1.108   .     S
C591   H637    1.109   .     S
C592   H641    1.109   .     S
C592   H643    1.105   .     S
C592   H642    1.107   .     S
C593   H645    1.111   .     S
C593   H646    1.111   .     S
C593   H644    1.107   .     S
C594   H648    1.111   .     S
C594   H647    1.107   .     S
C594   H650    1.111   .     S
C595   H652    1.106   .     S
C595   H651    1.110   .     S
C595   H653    1.106   .     S
C596   H656    1.106   .     S
C596   H654    1.110   .     S
C596   H655    1.106   .     S
C597   O666    1.299   .     A
C597   O667    1.286   .     A
C598   O669    1.290   .     A
C598   O672    1.283   .     A
C599   O670    1.290   .     A
C599   O671    1.283   .     A
C600   N798    1.366   .     A
C600   H605    1.081   .     S
Cu601  O677    1.959   .     S
Cu601  N661    2.009   .     S
Cu601  O665    1.970   .     S
Cu601  Cu602   2.673   .     S
Cu601  O810    1.983   1_455 S
Cu601  O815    1.960   1_455 S
Cu602  O678    1.960   .     S
Cu602  O675    1.983   .     S
Cu602  N662    2.009   .     S
Cu602  O809    1.970   1_455 S
Cu602  O812    1.959   1_455 S
Cu603  O670    1.959   .     S
Cu603  O667    1.983   .     S
Cu603  Cu604   2.673   .     S
Cu603  N663    2.009   .     S
Cu603  O944    1.960   1_545 S
Cu603  O952    1.970   1_545 S
Cu604  O666    1.970   .     S
Cu604  O671    1.960   .     S
Cu604  N664    2.009   .     S
Cu604  O940    1.983   1_545 S
Cu604  O941    1.959   1_545 S
N661   C684    1.367   1_455 S
N662   C736    1.366   1_455 A
N663   C824    1.367   1_545 A
N664   C821    1.366   1_545 S
O668   Cu876   1.983   .     S
O669   Cu876   1.959   .     S
O672   Cu875   1.960   .     S
O673   Cu738   1.970   .     S
O674   Cu737   1.983   .     S
O676   Cu738   1.959   .     S
O679   Cu737   1.960   .     S
O680   Cu875   1.970   .     S
C681   O811    1.286   .     A
C681   C710    1.468   .     S
C681   O801    1.299   .     A
C682   H752    1.081   .     S
C682   N797    1.366   .     A
C682   C1227   1.415   .     S
C683   H763    1.082   .     S
C683   N798    1.367   .     S
C684   H774    1.082   .     S
C684   C1280   1.415   .     S
C684   N661    1.367   1_655 S
C685   H785    1.081   .     S
C685   N1072   1.366   .     S
C686   H793    1.081   .     S
C686   C1231   1.415   .     S
C686   N799    1.366   .     S
C687   H794    1.082   .     S
C687   N800    1.367   .     A
C688   H795    1.082   .     S
C688   N1071   1.367   .     A
C688   C1229   1.415   .     S
C689   C716    1.519   .     S
C689   C700    1.406   .     A
C689   C708    1.413   .     A
C690   C707    1.413   .     A
C690   C717    1.519   .     S
C690   C701    1.406   .     A
C691   C698    1.406   .     A
C691   C718    1.524   .     S
C691   C707    1.414   .     A
C692   C709    1.468   .     S
C692   O810    1.286   .     A
C692   O809    1.299   .     A
C693   C708    1.414   .     A
C693   C699    1.406   .     A
C693   C719    1.524   .     S
C694   C710    1.414   .     A
C694   C705    1.403   .     A
C694   C720    1.523   .     S
C695   C709    1.414   .     A
C695   C721    1.523   .     S
C695   C706    1.403   .     A
C696   C702    1.403   .     A
C696   C722    1.523   .     S
C696   C709    1.423   .     A
C697   C723    1.523   .     S
C697   C710    1.423   .     A
C697   C704    1.403   .     A
C698   C724    1.519   .     S
C698   C712    1.413   .     A
C699   C711    1.413   .     A
C699   C726    1.519   .     S
C700   C727    1.524   .     S
C700   C711    1.414   .     A
C701   C728    1.524   .     S
C701   C712    1.414   .     A
C702   C715    1.414   .     A
C702   C729    1.523   .     S
C703   C708    1.448   .     S
C703   O815    1.283   .     A
C703   O812    1.290   .     A
C704   C730    1.523   .     S
C704   C713    1.414   .     A
C705   C731    1.523   .     S
C705   C713    1.423   .     A
C706   C732    1.523   .     S
C706   C715    1.423   .     A
C707   C714    1.448   .     S
C711   C735    1.448   .     S
C712   C734    1.448   .     S
C713   C733    1.468   .     S
C714   O813    1.290   .     A
C714   O814    1.283   .     A
C715   C725    1.468   .     S
C716   H742    1.110   .     S
C716   H796    1.106   .     S
C716   H743    1.110   .     S
C717   H745    1.110   .     S
C717   H746    1.110   .     S
C717   H744    1.105   .     S
C718   H749    1.107   .     S
C718   H748    1.105   .     S
C718   H747    1.109   .     S
C719   H751    1.108   .     S
C719   H750    1.109   .     S
C719   H753    1.105   .     S
C720   H756    1.111   .     S
C720   H755    1.111   .     S
C720   H754    1.107   .     S
C721   H758    1.111   .     S
C721   H759    1.111   .     S
C721   H757    1.107   .     S
C722   H762    1.106   .     S
C722   H760    1.110   .     S
C722   H761    1.106   .     S
C723   H764    1.110   .     S
C723   H765    1.106   .     S
C723   H766    1.106   .     S
C724   H767    1.105   .     S
C724   H768    1.110   .     S
C724   H769    1.110   .     S
C725   O804    1.286   .     A
C725   O816    1.299   .     A
C726   H772    1.110   .     S
C726   H771    1.110   .     S
C726   H770    1.105   .     S
C727   H775    1.105   .     S
C727   H776    1.108   .     S
C727   H773    1.109   .     S
C728   H777    1.109   .     S
C728   H779    1.105   .     S
C728   H778    1.107   .     S
C729   H781    1.111   .     S
C729   H782    1.111   .     S
C729   H780    1.107   .     S
C730   H784    1.111   .     S
C730   H783    1.107   .     S
C730   H786    1.111   .     S
C731   H788    1.106   .     S
C731   H787    1.110   .     S
C731   H789    1.106   .     S
C732   H792    1.106   .     S
C732   H790    1.110   .     S
C732   H791    1.106   .     S
C733   O802    1.299   .     A
C733   O803    1.286   .     A
C734   O805    1.290   .     A
C734   O808    1.283   .     A
C735   O806    1.290   .     A
C735   O807    1.283   .     A
C736   N662    1.366   1_655 A
C736   H741    1.081   .     S
Cu737  O813    1.959   .     S
Cu737  N797    2.009   .     S
Cu737  O801    1.970   .     S
Cu737  Cu738   2.673   .     S
Cu738  O814    1.960   .     S
Cu738  O811    1.983   .     S
Cu738  N798    2.009   .     S
Cu739  O806    1.959   .     S
Cu739  O803    1.983   .     S
Cu739  Cu740   2.673   .     S
Cu739  N799    2.009   .     S
Cu739  O1080   1.960   1_545 S
Cu739  O1088   1.970   1_545 S
Cu740  O802    1.970   .     S
Cu740  O807    1.960   .     S
Cu740  N800    2.009   .     S
Cu740  O1076   1.983   1_545 S
Cu740  O1077   1.959   1_545 S
N799   C960    1.367   1_545 A
N800   C957    1.366   1_545 S
O804   Cu1012  1.983   .     S
O805   Cu1012  1.959   .     S
O808   Cu1011  1.960   .     S
O809   Cu602   1.970   1_655 S
O810   Cu601   1.983   1_655 S
O812   Cu602   1.959   1_655 S
O815   Cu601   1.960   1_655 S
O816   Cu1011  1.970   .     S
C817   O947    1.286   .     A
C817   C846    1.468   .     S
C817   O937    1.299   .     A
C818   H888    1.081   .     S
C818   N933    1.366   .     A
C818   C1363   1.415   .     S
C819   H899    1.082   .     S
C819   N934    1.367   .     S
C820   H910    1.082   .     S
C820   C1416   1.415   .     S
C820   N1069   1.367   .     S
C821   H921    1.081   .     S
C821   N664    1.366   1_565 S
C822   H929    1.081   .     S
C822   C1367   1.415   .     S
C822   N935    1.366   .     S
C823   H930    1.082   .     S
C823   N936    1.367   .     A
C824   H931    1.082   .     S
C824   N663    1.367   1_565 A
C824   C1365   1.415   .     S
C825   C852    1.519   .     S
C825   C836    1.406   .     A
C825   C844    1.413   .     A
C826   C843    1.413   .     A
C826   C853    1.519   .     S
C826   C837    1.406   .     A
C827   C834    1.406   .     A
C827   C854    1.524   .     S
C827   C843    1.414   .     A
C828   C845    1.468   .     S
C828   O946    1.286   .     A
C828   O945    1.299   .     A
C829   C844    1.414   .     A
C829   C835    1.406   .     A
C829   C855    1.524   .     S
C830   C846    1.414   .     A
C830   C841    1.403   .     A
C830   C856    1.523   .     S
C831   C845    1.414   .     A
C831   C857    1.523   .     S
C831   C842    1.403   .     A
C832   C838    1.403   .     A
C832   C858    1.523   .     S
C832   C845    1.423   .     A
C833   C859    1.523   .     S
C833   C846    1.423   .     A
C833   C840    1.403   .     A
C834   C860    1.519   .     S
C834   C848    1.413   .     A
C835   C847    1.413   .     A
C835   C862    1.519   .     S
C836   C863    1.524   .     S
C836   C847    1.414   .     A
C837   C864    1.524   .     S
C837   C848    1.414   .     A
C838   C851    1.414   .     A
C838   C865    1.523   .     S
C839   C844    1.448   .     S
C839   O951    1.283   .     A
C839   O948    1.290   .     A
C840   C866    1.523   .     S
C840   C849    1.414   .     A
C841   C867    1.523   .     S
C841   C849    1.423   .     A
C842   C868    1.523   .     S
C842   C851    1.423   .     A
C843   C850    1.448   .     S
C847   C871    1.448   .     S
C848   C870    1.448   .     S
C849   C869    1.468   .     S
C850   O949    1.290   .     A
C850   O950    1.283   .     A
C851   C861    1.468   .     S
C852   H878    1.110   .     S
C852   H932    1.106   .     S
C852   H879    1.110   .     S
C853   H881    1.110   .     S
C853   H882    1.110   .     S
C853   H880    1.105   .     S
C854   H885    1.107   .     S
C854   H884    1.105   .     S
C854   H883    1.109   .     S
C855   H887    1.108   .     S
C855   H886    1.109   .     S
C855   H889    1.105   .     S
C856   H892    1.111   .     S
C856   H891    1.111   .     S
C856   H890    1.107   .     S
C857   H894    1.111   .     S
C857   H895    1.111   .     S
C857   H893    1.107   .     S
C858   H898    1.106   .     S
C858   H896    1.110   .     S
C858   H897    1.106   .     S
C859   H900    1.110   .     S
C859   H901    1.106   .     S
C859   H902    1.106   .     S
C860   H903    1.105   .     S
C860   H904    1.110   .     S
C860   H905    1.110   .     S
C861   O940    1.286   .     A
C861   O952    1.299   .     A
C862   H908    1.110   .     S
C862   H907    1.110   .     S
C862   H906    1.105   .     S
C863   H911    1.105   .     S
C863   H912    1.108   .     S
C863   H909    1.109   .     S
C864   H913    1.109   .     S
C864   H915    1.105   .     S
C864   H914    1.107   .     S
C865   H917    1.111   .     S
C865   H918    1.111   .     S
C865   H916    1.107   .     S
C866   H920    1.111   .     S
C866   H919    1.107   .     S
C866   H922    1.111   .     S
C867   H924    1.106   .     S
C867   H923    1.110   .     S
C867   H925    1.106   .     S
C868   H928    1.106   .     S
C868   H926    1.110   .     S
C868   H927    1.106   .     S
C869   O938    1.299   .     A
C869   O939    1.286   .     A
C870   O941    1.290   .     A
C870   O944    1.283   .     A
C871   O942    1.290   .     A
C871   O943    1.283   .     A
C872   N1070   1.366   .     A
C872   H877    1.081   .     S
Cu873  O949    1.959   .     S
Cu873  N933    2.009   .     S
Cu873  O937    1.970   .     S
Cu873  Cu874   2.673   .     S
Cu873  O1082   1.983   1_455 S
Cu873  O1087   1.960   1_455 S
Cu874  O950    1.960   .     S
Cu874  O947    1.983   .     S
Cu874  N934    2.009   .     S
Cu874  O1081   1.970   1_455 S
Cu874  O1084   1.959   1_455 S
Cu875  O942    1.959   .     S
Cu875  O939    1.983   .     S
Cu875  Cu876   2.673   .     S
Cu875  N935    2.009   .     S
Cu876  O938    1.970   .     S
Cu876  O943    1.960   .     S
Cu876  N936    2.009   .     S
N933   C956    1.367   1_455 S
N934   C1008   1.366   1_455 A
O940   Cu604   1.983   1_565 S
O941   Cu604   1.959   1_565 S
O944   Cu603   1.960   1_565 S
O945   Cu1010  1.970   .     S
O946   Cu1009  1.983   .     S
O948   Cu1010  1.959   .     S
O951   Cu1009  1.960   .     S
O952   Cu603   1.970   1_565 S
C953   O1083   1.286   .     A
C953   C982    1.468   .     S
C953   O1073   1.299   .     A
C954   H1024   1.081   .     S
C954   N1069   1.366   .     A
C954   C1499   1.415   .     S
C955   H1035   1.082   .     S
C955   N1070   1.367   .     S
C956   H1046   1.082   .     S
C956   C1552   1.415   .     S
C956   N933    1.367   1_655 S
C957   H1057   1.081   .     S
C957   N800    1.366   1_565 S
C958   H1065   1.081   .     S
C958   C1503   1.415   .     S
C958   N1071   1.366   .     S
C959   H1066   1.082   .     S
C959   N1072   1.367   .     A
C960   H1067   1.082   .     S
C960   N799    1.367   1_565 A
C960   C1501   1.415   .     S
C961   C988    1.519   .     S
C961   C972    1.406   .     A
C961   C980    1.413   .     A
C962   C979    1.413   .     A
C962   C989    1.519   .     S
C962   C973    1.406   .     A
C963   C970    1.406   .     A
C963   C990    1.524   .     S
C963   C979    1.414   .     A
C964   C981    1.468   .     S
C964   O1082   1.286   .     A
C964   O1081   1.299   .     A
C965   C980    1.414   .     A
C965   C971    1.406   .     A
C965   C991    1.524   .     S
C966   C982    1.414   .     A
C966   C977    1.403   .     A
C966   C992    1.523   .     S
C967   C981    1.414   .     A
C967   C993    1.523   .     S
C967   C978    1.403   .     A
C968   C974    1.403   .     A
C968   C994    1.523   .     S
C968   C981    1.423   .     A
C969   C995    1.523   .     S
C969   C982    1.423   .     A
C969   C976    1.403   .     A
C970   C996    1.519   .     S
C970   C984    1.413   .     A
C971   C983    1.413   .     A
C971   C998    1.519   .     S
C972   C999    1.524   .     S
C972   C983    1.414   .     A
C973   C1000   1.524   .     S
C973   C984    1.414   .     A
C974   C987    1.414   .     A
C974   C1001   1.523   .     S
C975   C980    1.448   .     S
C975   O1087   1.283   .     A
C975   O1084   1.290   .     A
C976   C1002   1.523   .     S
C976   C985    1.414   .     A
C977   C1003   1.523   .     S
C977   C985    1.423   .     A
C978   C1004   1.523   .     S
C978   C987    1.423   .     A
C979   C986    1.448   .     S
C983   C1007   1.448   .     S
C984   C1006   1.448   .     S
C985   C1005   1.468   .     S
C986   O1085   1.290   .     A
C986   O1086   1.283   .     A
C987   C997    1.468   .     S
C988   H1014   1.110   .     S
C988   H1068   1.106   .     S
C988   H1015   1.110   .     S
C989   H1017   1.110   .     S
C989   H1018   1.110   .     S
C989   H1016   1.105   .     S
C990   H1021   1.107   .     S
C990   H1020   1.105   .     S
C990   H1019   1.109   .     S
C991   H1023   1.108   .     S
C991   H1022   1.109   .     S
C991   H1025   1.105   .     S
C992   H1028   1.111   .     S
C992   H1027   1.111   .     S
C992   H1026   1.107   .     S
C993   H1030   1.111   .     S
C993   H1031   1.111   .     S
C993   H1029   1.107   .     S
C994   H1034   1.106   .     S
C994   H1032   1.110   .     S
C994   H1033   1.106   .     S
C995   H1036   1.110   .     S
C995   H1037   1.106   .     S
C995   H1038   1.106   .     S
C996   H1039   1.105   .     S
C996   H1040   1.110   .     S
C996   H1041   1.110   .     S
C997   O1076   1.286   .     A
C997   O1088   1.299   .     A
C998   H1044   1.110   .     S
C998   H1043   1.110   .     S
C998   H1042   1.105   .     S
C999   H1047   1.105   .     S
C999   H1048   1.108   .     S
C999   H1045   1.109   .     S
C1000  H1049   1.109   .     S
C1000  H1051   1.105   .     S
C1000  H1050   1.107   .     S
C1001  H1053   1.111   .     S
C1001  H1054   1.111   .     S
C1001  H1052   1.107   .     S
C1002  H1056   1.111   .     S
C1002  H1055   1.107   .     S
C1002  H1058   1.111   .     S
C1003  H1060   1.106   .     S
C1003  H1059   1.110   .     S
C1003  H1061   1.106   .     S
C1004  H1064   1.106   .     S
C1004  H1062   1.110   .     S
C1004  H1063   1.106   .     S
C1005  O1074   1.299   .     A
C1005  O1075   1.286   .     A
C1006  O1077   1.290   .     A
C1006  O1080   1.283   .     A
C1007  O1078   1.290   .     A
C1007  O1079   1.283   .     A
C1008  N934    1.366   1_655 A
C1008  H1013   1.081   .     S
Cu1009 O1085   1.959   .     S
Cu1009 N1069   2.009   .     S
Cu1009 O1073   1.970   .     S
Cu1009 Cu1010  2.673   .     S
Cu1010 O1086   1.960   .     S
Cu1010 O1083   1.983   .     S
Cu1010 N1070   2.009   .     S
Cu1011 O1078   1.959   .     S
Cu1011 O1075   1.983   .     S
Cu1011 Cu1012  2.673   .     S
Cu1011 N1071   2.009   .     S
Cu1012 O1074   1.970   .     S
Cu1012 O1079   1.960   .     S
Cu1012 N1072   2.009   .     S
O1076  Cu740   1.983   1_565 S
O1077  Cu740   1.959   1_565 S
O1080  Cu739   1.960   1_565 S
O1081  Cu874   1.970   1_655 S
O1082  Cu873   1.983   1_655 S
O1084  Cu874   1.959   1_655 S
O1087  Cu873   1.960   1_655 S
O1088  Cu739   1.970   1_565 S
C1089  O1219   1.286   .     A
C1089  C1118   1.468   .     S
C1089  O1209   1.299   .     A
C1090  H1160   1.081   .     S
C1090  N1205   1.366   .     A
C1090  C3      1.415   1_556 S
C1091  H1171   1.082   .     S
C1091  N1206   1.367   .     S
C1092  H1182   1.082   .     S
C1092  C56     1.415   1_556 S
C1092  N1341   1.367   .     S
C1093  H1193   1.081   .     S
C1093  N1480   1.366   .     S
C1094  H1201   1.081   .     S
C1094  C7      1.415   1_556 S
C1094  N1207   1.366   .     S
C1095  H1202   1.082   .     S
C1095  N1208   1.367   .     A
C1096  H1203   1.082   .     S
C1096  N1479   1.367   .     A
C1096  C5      1.415   1_556 S
C1097  C1124   1.519   .     S
C1097  C1108   1.406   .     A
C1097  C1116   1.413   .     A
C1098  C1115   1.413   .     A
C1098  C1125   1.519   .     S
C1098  C1109   1.406   .     A
C1099  C1106   1.406   .     A
C1099  C1126   1.524   .     S
C1099  C1115   1.414   .     A
C1100  C1117   1.468   .     S
C1100  O1218   1.286   .     A
C1100  O1217   1.299   .     A
C1101  C1116   1.414   .     A
C1101  C1107   1.406   .     A
C1101  C1127   1.524   .     S
C1102  C1118   1.414   .     A
C1102  C1113   1.403   .     A
C1102  C1128   1.523   .     S
C1103  C1117   1.414   .     A
C1103  C1129   1.523   .     S
C1103  C1114   1.403   .     A
C1104  C1110   1.403   .     A
C1104  C1130   1.523   .     S
C1104  C1117   1.423   .     A
C1105  C1131   1.523   .     S
C1105  C1118   1.423   .     A
C1105  C1112   1.403   .     A
C1106  C1132   1.519   .     S
C1106  C1120   1.413   .     A
C1107  C1119   1.413   .     A
C1107  C1134   1.519   .     S
C1108  C1135   1.524   .     S
C1108  C1119   1.414   .     A
C1109  C1136   1.524   .     S
C1109  C1120   1.414   .     A
C1110  C1123   1.414   .     A
C1110  C1137   1.523   .     S
C1111  C1116   1.448   .     S
C1111  O1223   1.283   .     A
C1111  O1220   1.290   .     A
C1112  C1138   1.523   .     S
C1112  C1121   1.414   .     A
C1113  C1139   1.523   .     S
C1113  C1121   1.423   .     A
C1114  C1140   1.523   .     S
C1114  C1123   1.423   .     A
C1115  C1122   1.448   .     S
C1119  C1143   1.448   .     S
C1120  C1142   1.448   .     S
C1121  C1141   1.468   .     S
C1122  O1221   1.290   .     A
C1122  O1222   1.283   .     A
C1123  C1133   1.468   .     S
C1124  H1150   1.110   .     S
C1124  H1204   1.106   .     S
C1124  H1151   1.110   .     S
C1125  H1153   1.110   .     S
C1125  H1154   1.110   .     S
C1125  H1152   1.105   .     S
C1126  H1157   1.107   .     S
C1126  H1156   1.105   .     S
C1126  H1155   1.109   .     S
C1127  H1159   1.108   .     S
C1127  H1158   1.109   .     S
C1127  H1161   1.105   .     S
C1128  H1164   1.111   .     S
C1128  H1163   1.111   .     S
C1128  H1162   1.107   .     S
C1129  H1166   1.111   .     S
C1129  H1167   1.111   .     S
C1129  H1165   1.107   .     S
C1130  H1170   1.106   .     S
C1130  H1168   1.110   .     S
C1130  H1169   1.106   .     S
C1131  H1172   1.110   .     S
C1131  H1173   1.106   .     S
C1131  H1174   1.106   .     S
C1132  H1175   1.105   .     S
C1132  H1176   1.110   .     S
C1132  H1177   1.110   .     S
C1133  O1212   1.286   .     A
C1133  O1224   1.299   .     A
C1134  H1180   1.110   .     S
C1134  H1179   1.110   .     S
C1134  H1178   1.105   .     S
C1135  H1183   1.105   .     S
C1135  H1184   1.108   .     S
C1135  H1181   1.109   .     S
C1136  H1185   1.109   .     S
C1136  H1187   1.105   .     S
C1136  H1186   1.107   .     S
C1137  H1189   1.111   .     S
C1137  H1190   1.111   .     S
C1137  H1188   1.107   .     S
C1138  H1192   1.111   .     S
C1138  H1191   1.107   .     S
C1138  H1194   1.111   .     S
C1139  H1196   1.106   .     S
C1139  H1195   1.110   .     S
C1139  H1197   1.106   .     S
C1140  H1200   1.106   .     S
C1140  H1198   1.110   .     S
C1140  H1199   1.106   .     S
C1141  O1210   1.299   .     A
C1141  O1211   1.286   .     A
C1142  O1213   1.290   .     A
C1142  O1216   1.283   .     A
C1143  O1214   1.290   .     A
C1143  O1215   1.283   .     A
C1144  N1342   1.366   .     A
C1144  H1149   1.081   .     S
Cu1145 O1221   1.959   .     S
Cu1145 N1205   2.009   .     S
Cu1145 O1209   1.970   .     S
Cu1145 Cu1146  2.673   .     S
Cu1145 O1354   1.983   1_455 S
Cu1145 O1359   1.960   1_455 S
Cu1146 O1222   1.960   .     S
Cu1146 O1219   1.983   .     S
Cu1146 N1206   2.009   .     S
Cu1146 O1353   1.970   1_455 S
Cu1146 O1356   1.959   1_455 S
Cu1147 O1214   1.959   .     S
Cu1147 O1211   1.983   .     S
Cu1147 Cu1148  2.673   .     S
Cu1147 N1207   2.009   .     S
Cu1147 O1488   1.960   1_545 S
Cu1147 O1496   1.970   1_545 S
Cu1148 O1210   1.970   .     S
Cu1148 O1215   1.960   .     S
Cu1148 N1208   2.009   .     S
Cu1148 O1484   1.983   1_545 S
Cu1148 O1485   1.959   1_545 S
N1205  C1228   1.367   1_455 S
N1206  C1280   1.366   1_455 A
N1207  C1368   1.367   1_545 A
N1208  C1365   1.366   1_545 S
O1212  Cu1420  1.983   .     S
O1213  Cu1420  1.959   .     S
O1216  Cu1419  1.960   .     S
O1217  Cu1282  1.970   .     S
O1218  Cu1281  1.983   .     S
O1220  Cu1282  1.959   .     S
O1223  Cu1281  1.960   .     S
O1224  Cu1419  1.970   .     S
C1225  O1355   1.286   .     A
C1225  C1254   1.468   .     S
C1225  O1345   1.299   .     A
C1226  H1296   1.081   .     S
C1226  N1341   1.366   .     A
C1226  C139    1.415   1_556 S
C1227  H1307   1.082   .     S
C1227  N1342   1.367   .     S
C1228  H1318   1.082   .     S
C1228  C192    1.415   1_556 S
C1228  N1205   1.367   1_655 S
C1229  H1329   1.081   .     S
C1229  N1616   1.366   .     S
C1230  H1337   1.081   .     S
C1230  C143    1.415   1_556 S
C1230  N1343   1.366   .     S
C1231  H1338   1.082   .     S
C1231  N1344   1.367   .     A
C1232  H1339   1.082   .     S
C1232  N1615   1.367   .     A
C1232  C141    1.415   1_556 S
C1233  C1260   1.519   .     S
C1233  C1244   1.406   .     A
C1233  C1252   1.413   .     A
C1234  C1251   1.413   .     A
C1234  C1261   1.519   .     S
C1234  C1245   1.406   .     A
C1235  C1242   1.406   .     A
C1235  C1262   1.524   .     S
C1235  C1251   1.414   .     A
C1236  C1253   1.468   .     S
C1236  O1354   1.286   .     A
C1236  O1353   1.299   .     A
C1237  C1252   1.414   .     A
C1237  C1243   1.406   .     A
C1237  C1263   1.524   .     S
C1238  C1254   1.414   .     A
C1238  C1249   1.403   .     A
C1238  C1264   1.523   .     S
C1239  C1253   1.414   .     A
C1239  C1265   1.523   .     S
C1239  C1250   1.403   .     A
C1240  C1246   1.403   .     A
C1240  C1266   1.523   .     S
C1240  C1253   1.423   .     A
C1241  C1267   1.523   .     S
C1241  C1254   1.423   .     A
C1241  C1248   1.403   .     A
C1242  C1268   1.519   .     S
C1242  C1256   1.413   .     A
C1243  C1255   1.413   .     A
C1243  C1270   1.519   .     S
C1244  C1271   1.524   .     S
C1244  C1255   1.414   .     A
C1245  C1272   1.524   .     S
C1245  C1256   1.414   .     A
C1246  C1259   1.414   .     A
C1246  C1273   1.523   .     S
C1247  C1252   1.448   .     S
C1247  O1359   1.283   .     A
C1247  O1356   1.290   .     A
C1248  C1274   1.523   .     S
C1248  C1257   1.414   .     A
C1249  C1275   1.523   .     S
C1249  C1257   1.423   .     A
C1250  C1276   1.523   .     S
C1250  C1259   1.423   .     A
C1251  C1258   1.448   .     S
C1255  C1279   1.448   .     S
C1256  C1278   1.448   .     S
C1257  C1277   1.468   .     S
C1258  O1357   1.290   .     A
C1258  O1358   1.283   .     A
C1259  C1269   1.468   .     S
C1260  H1286   1.110   .     S
C1260  H1340   1.106   .     S
C1260  H1287   1.110   .     S
C1261  H1289   1.110   .     S
C1261  H1290   1.110   .     S
C1261  H1288   1.105   .     S
C1262  H1293   1.107   .     S
C1262  H1292   1.105   .     S
C1262  H1291   1.109   .     S
C1263  H1295   1.108   .     S
C1263  H1294   1.109   .     S
C1263  H1297   1.105   .     S
C1264  H1300   1.111   .     S
C1264  H1299   1.111   .     S
C1264  H1298   1.107   .     S
C1265  H1302   1.111   .     S
C1265  H1303   1.111   .     S
C1265  H1301   1.107   .     S
C1266  H1306   1.106   .     S
C1266  H1304   1.110   .     S
C1266  H1305   1.106   .     S
C1267  H1308   1.110   .     S
C1267  H1309   1.106   .     S
C1267  H1310   1.106   .     S
C1268  H1311   1.105   .     S
C1268  H1312   1.110   .     S
C1268  H1313   1.110   .     S
C1269  O1348   1.286   .     A
C1269  O1360   1.299   .     A
C1270  H1316   1.110   .     S
C1270  H1315   1.110   .     S
C1270  H1314   1.105   .     S
C1271  H1319   1.105   .     S
C1271  H1320   1.108   .     S
C1271  H1317   1.109   .     S
C1272  H1321   1.109   .     S
C1272  H1323   1.105   .     S
C1272  H1322   1.107   .     S
C1273  H1325   1.111   .     S
C1273  H1326   1.111   .     S
C1273  H1324   1.107   .     S
C1274  H1328   1.111   .     S
C1274  H1327   1.107   .     S
C1274  H1330   1.111   .     S
C1275  H1332   1.106   .     S
C1275  H1331   1.110   .     S
C1275  H1333   1.106   .     S
C1276  H1336   1.106   .     S
C1276  H1334   1.110   .     S
C1276  H1335   1.106   .     S
C1277  O1346   1.299   .     A
C1277  O1347   1.286   .     A
C1278  O1349   1.290   .     A
C1278  O1352   1.283   .     A
C1279  O1350   1.290   .     A
C1279  O1351   1.283   .     A
C1280  N1206   1.366   1_655 A
C1280  H1285   1.081   .     S
Cu1281 O1357   1.959   .     S
Cu1281 N1341   2.009   .     S
Cu1281 O1345   1.970   .     S
Cu1281 Cu1282  2.673   .     S
Cu1282 O1358   1.960   .     S
Cu1282 O1355   1.983   .     S
Cu1282 N1342   2.009   .     S
Cu1283 O1350   1.959   .     S
Cu1283 O1347   1.983   .     S
Cu1283 Cu1284  2.673   .     S
Cu1283 N1343   2.009   .     S
Cu1283 O1624   1.960   1_545 S
Cu1283 O1632   1.970   1_545 S
Cu1284 O1346   1.970   .     S
Cu1284 O1351   1.960   .     S
Cu1284 N1344   2.009   .     S
Cu1284 O1620   1.983   1_545 S
Cu1284 O1621   1.959   1_545 S
N1343  C1504   1.367   1_545 A
N1344  C1501   1.366   1_545 S
O1348  Cu1556  1.983   .     S
O1349  Cu1556  1.959   .     S
O1352  Cu1555  1.960   .     S
O1353  Cu1146  1.970   1_655 S
O1354  Cu1145  1.983   1_655 S
O1356  Cu1146  1.959   1_655 S
O1359  Cu1145  1.960   1_655 S
O1360  Cu1555  1.970   .     S
C1361  O1491   1.286   .     A
C1361  C1390   1.468   .     S
C1361  O1481   1.299   .     A
C1362  H1432   1.081   .     S
C1362  N1477   1.366   .     A
C1362  C275    1.415   1_556 S
C1363  H1443   1.082   .     S
C1363  N1478   1.367   .     S
C1364  H1454   1.082   .     S
C1364  C328    1.415   1_556 S
C1364  N1613   1.367   .     S
C1365  H1465   1.081   .     S
C1365  N1208   1.366   1_565 S
C1366  H1473   1.081   .     S
C1366  C279    1.415   1_556 S
C1366  N1479   1.366   .     S
C1367  H1474   1.082   .     S
C1367  N1480   1.367   .     A
C1368  H1475   1.082   .     S
C1368  N1207   1.367   1_565 A
C1368  C277    1.415   1_556 S
C1369  C1396   1.519   .     S
C1369  C1380   1.406   .     A
C1369  C1388   1.413   .     A
C1370  C1387   1.413   .     A
C1370  C1397   1.519   .     S
C1370  C1381   1.406   .     A
C1371  C1378   1.406   .     A
C1371  C1398   1.524   .     S
C1371  C1387   1.414   .     A
C1372  C1389   1.468   .     S
C1372  O1490   1.286   .     A
C1372  O1489   1.299   .     A
C1373  C1388   1.414   .     A
C1373  C1379   1.406   .     A
C1373  C1399   1.524   .     S
C1374  C1390   1.414   .     A
C1374  C1385   1.403   .     A
C1374  C1400   1.523   .     S
C1375  C1389   1.414   .     A
C1375  C1401   1.523   .     S
C1375  C1386   1.403   .     A
C1376  C1382   1.403   .     A
C1376  C1402   1.523   .     S
C1376  C1389   1.423   .     A
C1377  C1403   1.523   .     S
C1377  C1390   1.423   .     A
C1377  C1384   1.403   .     A
C1378  C1404   1.519   .     S
C1378  C1392   1.413   .     A
C1379  C1391   1.413   .     A
C1379  C1406   1.519   .     S
C1380  C1407   1.524   .     S
C1380  C1391   1.414   .     A
C1381  C1408   1.524   .     S
C1381  C1392   1.414   .     A
C1382  C1395   1.414   .     A
C1382  C1409   1.523   .     S
C1383  C1388   1.448   .     S
C1383  O1495   1.283   .     A
C1383  O1492   1.290   .     A
C1384  C1410   1.523   .     S
C1384  C1393   1.414   .     A
C1385  C1411   1.523   .     S
C1385  C1393   1.423   .     A
C1386  C1412   1.523   .     S
C1386  C1395   1.423   .     A
C1387  C1394   1.448   .     S
C1391  C1415   1.448   .     S
C1392  C1414   1.448   .     S
C1393  C1413   1.468   .     S
C1394  O1493   1.290   .     A
C1394  O1494   1.283   .     A
C1395  C1405   1.468   .     S
C1396  H1422   1.110   .     S
C1396  H1476   1.106   .     S
C1396  H1423   1.110   .     S
C1397  H1425   1.110   .     S
C1397  H1426   1.110   .     S
C1397  H1424   1.105   .     S
C1398  H1429   1.107   .     S
C1398  H1428   1.105   .     S
C1398  H1427   1.109   .     S
C1399  H1431   1.108   .     S
C1399  H1430   1.109   .     S
C1399  H1433   1.105   .     S
C1400  H1436   1.111   .     S
C1400  H1435   1.111   .     S
C1400  H1434   1.107   .     S
C1401  H1438   1.111   .     S
C1401  H1439   1.111   .     S
C1401  H1437   1.107   .     S
C1402  H1442   1.106   .     S
C1402  H1440   1.110   .     S
C1402  H1441   1.106   .     S
C1403  H1444   1.110   .     S
C1403  H1445   1.106   .     S
C1403  H1446   1.106   .     S
C1404  H1447   1.105   .     S
C1404  H1448   1.110   .     S
C1404  H1449   1.110   .     S
C1405  O1484   1.286   .     A
C1405  O1496   1.299   .     A
C1406  H1452   1.110   .     S
C1406  H1451   1.110   .     S
C1406  H1450   1.105   .     S
C1407  H1455   1.105   .     S
C1407  H1456   1.108   .     S
C1407  H1453   1.109   .     S
C1408  H1457   1.109   .     S
C1408  H1459   1.105   .     S
C1408  H1458   1.107   .     S
C1409  H1461   1.111   .     S
C1409  H1462   1.111   .     S
C1409  H1460   1.107   .     S
C1410  H1464   1.111   .     S
C1410  H1463   1.107   .     S
C1410  H1466   1.111   .     S
C1411  H1468   1.106   .     S
C1411  H1467   1.110   .     S
C1411  H1469   1.106   .     S
C1412  H1472   1.106   .     S
C1412  H1470   1.110   .     S
C1412  H1471   1.106   .     S
C1413  O1482   1.299   .     A
C1413  O1483   1.286   .     A
C1414  O1485   1.290   .     A
C1414  O1488   1.283   .     A
C1415  O1486   1.290   .     A
C1415  O1487   1.283   .     A
C1416  N1614   1.366   .     A
C1416  H1421   1.081   .     S
Cu1417 O1493   1.959   .     S
Cu1417 N1477   2.009   .     S
Cu1417 O1481   1.970   .     S
Cu1417 Cu1418  2.673   .     S
Cu1417 O1626   1.983   1_455 S
Cu1417 O1631   1.960   1_455 S
Cu1418 O1494   1.960   .     S
Cu1418 O1491   1.983   .     S
Cu1418 N1478   2.009   .     S
Cu1418 O1625   1.970   1_455 S
Cu1418 O1628   1.959   1_455 S
Cu1419 O1486   1.959   .     S
Cu1419 O1483   1.983   .     S
Cu1419 Cu1420  2.673   .     S
Cu1419 N1479   2.009   .     S
Cu1420 O1482   1.970   .     S
Cu1420 O1487   1.960   .     S
Cu1420 N1480   2.009   .     S
N1477  C1500   1.367   1_455 S
N1478  C1552   1.366   1_455 A
O1484  Cu1148  1.983   1_565 S
O1485  Cu1148  1.959   1_565 S
O1488  Cu1147  1.960   1_565 S
O1489  Cu1554  1.970   .     S
O1490  Cu1553  1.983   .     S
O1492  Cu1554  1.959   .     S
O1495  Cu1553  1.960   .     S
O1496  Cu1147  1.970   1_565 S
C1497  O1627   1.286   .     A
C1497  C1526   1.468   .     S
C1497  O1617   1.299   .     A
C1498  H1568   1.081   .     S
C1498  N1613   1.366   .     A
C1498  C411    1.415   1_556 S
C1499  H1579   1.082   .     S
C1499  N1614   1.367   .     S
C1500  H1590   1.082   .     S
C1500  C464    1.415   1_556 S
C1500  N1477   1.367   1_655 S
C1501  H1601   1.081   .     S
C1501  N1344   1.366   1_565 S
C1502  H1609   1.081   .     S
C1502  C415    1.415   1_556 S
C1502  N1615   1.366   .     S
C1503  H1610   1.082   .     S
C1503  N1616   1.367   .     A
C1504  H1611   1.082   .     S
C1504  N1343   1.367   1_565 A
C1504  C413    1.415   1_556 S
C1505  C1532   1.519   .     S
C1505  C1516   1.406   .     A
C1505  C1524   1.413   .     A
C1506  C1523   1.413   .     A
C1506  C1533   1.519   .     S
C1506  C1517   1.406   .     A
C1507  C1514   1.406   .     A
C1507  C1534   1.524   .     S
C1507  C1523   1.414   .     A
C1508  C1525   1.468   .     S
C1508  O1626   1.286   .     A
C1508  O1625   1.299   .     A
C1509  C1524   1.414   .     A
C1509  C1515   1.406   .     A
C1509  C1535   1.524   .     S
C1510  C1526   1.414   .     A
C1510  C1521   1.403   .     A
C1510  C1536   1.523   .     S
C1511  C1525   1.414   .     A
C1511  C1537   1.523   .     S
C1511  C1522   1.403   .     A
C1512  C1518   1.403   .     A
C1512  C1538   1.523   .     S
C1512  C1525   1.423   .     A
C1513  C1539   1.523   .     S
C1513  C1526   1.423   .     A
C1513  C1520   1.403   .     A
C1514  C1540   1.519   .     S
C1514  C1528   1.413   .     A
C1515  C1527   1.413   .     A
C1515  C1542   1.519   .     S
C1516  C1543   1.524   .     S
C1516  C1527   1.414   .     A
C1517  C1544   1.524   .     S
C1517  C1528   1.414   .     A
C1518  C1531   1.414   .     A
C1518  C1545   1.523   .     S
C1519  C1524   1.448   .     S
C1519  O1631   1.283   .     A
C1519  O1628   1.290   .     A
C1520  C1546   1.523   .     S
C1520  C1529   1.414   .     A
C1521  C1547   1.523   .     S
C1521  C1529   1.423   .     A
C1522  C1548   1.523   .     S
C1522  C1531   1.423   .     A
C1523  C1530   1.448   .     S
C1527  C1551   1.448   .     S
C1528  C1550   1.448   .     S
C1529  C1549   1.468   .     S
C1530  O1629   1.290   .     A
C1530  O1630   1.283   .     A
C1531  C1541   1.468   .     S
C1532  H1558   1.110   .     S
C1532  H1612   1.106   .     S
C1532  H1559   1.110   .     S
C1533  H1561   1.110   .     S
C1533  H1562   1.110   .     S
C1533  H1560   1.105   .     S
C1534  H1565   1.107   .     S
C1534  H1564   1.105   .     S
C1534  H1563   1.109   .     S
C1535  H1567   1.108   .     S
C1535  H1566   1.109   .     S
C1535  H1569   1.105   .     S
C1536  H1572   1.111   .     S
C1536  H1571   1.111   .     S
C1536  H1570   1.107   .     S
C1537  H1574   1.111   .     S
C1537  H1575   1.111   .     S
C1537  H1573   1.107   .     S
C1538  H1578   1.106   .     S
C1538  H1576   1.110   .     S
C1538  H1577   1.106   .     S
C1539  H1580   1.110   .     S
C1539  H1581   1.106   .     S
C1539  H1582   1.106   .     S
C1540  H1583   1.105   .     S
C1540  H1584   1.110   .     S
C1540  H1585   1.110   .     S
C1541  O1620   1.286   .     A
C1541  O1632   1.299   .     A
C1542  H1588   1.110   .     S
C1542  H1587   1.110   .     S
C1542  H1586   1.105   .     S
C1543  H1591   1.105   .     S
C1543  H1592   1.108   .     S
C1543  H1589   1.109   .     S
C1544  H1593   1.109   .     S
C1544  H1595   1.105   .     S
C1544  H1594   1.107   .     S
C1545  H1597   1.111   .     S
C1545  H1598   1.111   .     S
C1545  H1596   1.107   .     S
C1546  H1600   1.111   .     S
C1546  H1599   1.107   .     S
C1546  H1602   1.111   .     S
C1547  H1604   1.106   .     S
C1547  H1603   1.110   .     S
C1547  H1605   1.106   .     S
C1548  H1608   1.106   .     S
C1548  H1606   1.110   .     S
C1548  H1607   1.106   .     S
C1549  O1618   1.299   .     A
C1549  O1619   1.286   .     A
C1550  O1621   1.290   .     A
C1550  O1624   1.283   .     A
C1551  O1622   1.290   .     A
C1551  O1623   1.283   .     A
C1552  N1478   1.366   1_655 A
C1552  H1557   1.081   .     S
Cu1553 O1629   1.959   .     S
Cu1553 N1613   2.009   .     S
Cu1553 O1617   1.970   .     S
Cu1553 Cu1554  2.673   .     S
Cu1554 O1630   1.960   .     S
Cu1554 O1627   1.983   .     S
Cu1554 N1614   2.009   .     S
Cu1555 O1622   1.959   .     S
Cu1555 O1619   1.983   .     S
Cu1555 Cu1556  2.673   .     S
Cu1555 N1615   2.009   .     S
Cu1556 O1618   1.970   .     S
Cu1556 O1623   1.960   .     S
Cu1556 N1616   2.009   .     S
O1620  Cu1284  1.983   1_565 S
O1621  Cu1284  1.959   1_565 S
O1624  Cu1283  1.960   1_565 S
O1625  Cu1418  1.970   1_655 S
O1626  Cu1417  1.983   1_655 S
O1628  Cu1418  1.959   1_655 S
O1631  Cu1417  1.960   1_655 S
O1632  Cu1283  1.970   1_565 S
