data_str_m2_o1_o18_pcu_sym.63
_audit_creation_date              2020-01-03
_audit_creation_method            'Materials Studio'
_symmetry_space_group_name_H-M    'P1'
_symmetry_Int_Tables_number       1
_symmetry_cell_setting            triclinic
loop_
_symmetry_equiv_pos_as_xyz
  x,y,z
_cell_length_a                    29.2776
_cell_length_b                    32.6025
_cell_length_c                    31.7317
_cell_angle_alpha                 84.4558
_cell_angle_beta                  72.0713
_cell_angle_gamma                 89.6747
loop_
_atom_site_label
_atom_site_type_symbol
_atom_site_fract_x
_atom_site_fract_y
_atom_site_fract_z
_atom_site_U_iso_or_equiv
_atom_site_adp_type
_atom_site_occupancy
C1     C     0.00138   0.08796   0.24617   0.00000  Uiso   1.00
C2     C     0.04338   0.02065   0.24504   0.00000  Uiso   1.00
C3     C     0.32992   0.29023   0.25783   0.00000  Uiso   1.00
C4     C     0.00290   0.04316   0.24190   0.00000  Uiso   1.00
C5     C     0.18133   0.14113   0.28061   0.00000  Uiso   1.00
C6     C     0.15199   0.19259   0.21971   0.00000  Uiso   1.00
C7     C     0.13215   0.14096   0.28042   0.00000  Uiso   1.00
C8     C     0.20143   0.19205   0.21922   0.00000  Uiso   1.00
C9     C     0.30526   0.16570   0.33546   0.00000  Uiso   1.00
C10    C     0.02796   0.16594   0.16477   0.00000  Uiso   1.00
C11    C     0.28808   0.16127   0.38404   0.00000  Uiso   1.00
C12    C     0.33188   0.24539   0.25375   0.00000  Uiso   1.00
C13    C     0.04510   0.16063   0.11752   0.00000  Uiso   1.00
C14    C     0.29726   0.13227   0.45352   0.00000  Uiso   1.00
C15    C     0.03831   0.12793   0.05417   0.00000  Uiso   1.00
C16    C     0.31482   0.13932   0.40735   0.00000  Uiso   1.00
C17    C     0.01947   0.13539   0.09907   0.00000  Uiso   1.00
C18    C     0.24168   0.17300   0.40684   0.00000  Uiso   1.00
C19    C     0.09168   0.17413   0.09273   0.00000  Uiso   1.00
C20    C     0.22407   0.16822   0.45381   0.00000  Uiso   1.00
C21    C     0.11139   0.16414   0.04911   0.00000  Uiso   1.00
C22    C     0.25572   0.15222   0.47677   0.00000  Uiso   1.00
C23    C     0.19537   0.15518   0.04831   0.00000  Uiso   1.00
C24    C     0.08092   0.14870   0.02773   0.00000  Uiso   1.00
C25    C     0.17518   0.17370   0.47866   0.00000  Uiso   1.00
C26    C     0.16093   0.16640   0.02614   0.00000  Uiso   1.00
C27    C     0.18131   0.13500   0.09600   0.00000  Uiso   1.00
C28    C     0.13953   0.20891   0.41994   0.00000  Uiso   1.00
C29    C     0.25833   0.04242   0.22118   0.00000  Uiso   1.00
C30    C     0.07300   0.29179   0.28071   0.00000  Uiso   1.00
C31    C     0.23930   0.29314   0.26944   0.00000  Uiso   1.00
C32    C     0.09368   0.03961   0.22837   0.00000  Uiso   1.00
C33    C     0.19370   0.11242   0.31596   0.00000  Uiso   1.00
C34    C     0.13795   0.17712   0.45836   0.00000  Uiso   1.00
C35    C     0.13922   0.22341   0.18632   0.00000  Uiso   1.00
C36    C     0.09682   0.11248   0.31599   0.00000  Uiso   1.00
C37    C     0.23760   0.21890   0.18235   0.00000  Uiso   1.00
C38    C     0.24352   0.15247   0.02288   0.00000  Uiso   1.00
C39    C     0.09368   0.15637   0.48121   0.00000  Uiso   1.00
C40    C     0.29458   0.02176   0.24118   0.00000  Uiso   1.00
C41    C     0.03792   0.31175   0.25889   0.00000  Uiso   1.00
C42    C     0.28941   0.31264   0.25425   0.00000  Uiso   1.00
Cu43   Cu    0.04689   0.16667   0.25000   0.00000  Uiso   1.00
Cu44   Cu    0.28645   0.16666   0.25000   0.00000  Uiso   1.00
H45    H     0.11294   0.19156   0.10759   0.00000  Uiso   1.00
H46    H     0.14784   0.11597   0.10445   0.00000  Uiso   1.00
H47    H     0.20854   0.11285   0.10114   0.00000  Uiso   1.00
H48    H     0.16859   0.23239   0.41475   0.00000  Uiso   1.00
H49    H     0.14371   0.19395   0.38902   0.00000  Uiso   1.00
H50    H     0.10550   0.22605   0.42758   0.00000  Uiso   1.00
H51    H     0.27585   0.06713   0.19451   0.00000  Uiso   1.00
H52    H     0.24257   0.02022   0.20474   0.00000  Uiso   1.00
H53    H     0.22884   0.05516   0.24727   0.00000  Uiso   1.00
H54    H     0.05521   0.26660   0.30664   0.00000  Uiso   1.00
H55    H     0.10399   0.27982   0.25564   0.00000  Uiso   1.00
H56    H     0.22042   0.18501   0.38677   0.00000  Uiso   1.00
H57    H     0.08664   0.31441   0.29829   0.00000  Uiso   1.00
H58    H     0.23506   0.26926   0.29791   0.00000  Uiso   1.00
H59    H     0.21154   0.31611   0.28211   0.00000  Uiso   1.00
H60    H     0.23158   0.27977   0.24155   0.00000  Uiso   1.00
H61    H     0.09720   0.06378   0.20029   0.00000  Uiso   1.00
H62    H     0.10298   0.05253   0.25564   0.00000  Uiso   1.00
H63    H     0.12063   0.01627   0.21484   0.00000  Uiso   1.00
H64    H     0.17524   0.12215   0.34947   0.00000  Uiso   1.00
H65    H     0.18303   0.08018   0.31466   0.00000  Uiso   1.00
H66    H     0.23155   0.11017   0.31266   0.00000  Uiso   1.00
H67    H     0.31947   0.12033   0.11984   0.00000  Uiso   1.00
H68    H     0.14706   0.25521   0.19204   0.00000  Uiso   1.00
H69    H     0.16059   0.21818   0.15194   0.00000  Uiso   1.00
H70    H     0.10191   0.22345   0.18723   0.00000  Uiso   1.00
H71    H     0.06143   0.10945   0.31223   0.00000  Uiso   1.00
H72    H     0.10931   0.08042   0.31605   0.00000  Uiso   1.00
H73    H     0.09291   0.12314   0.34903   0.00000  Uiso   1.00
H74    H     0.27163   0.22437   0.18817   0.00000  Uiso   1.00
H75    H     0.24469   0.20489   0.15048   0.00000  Uiso   1.00
H76    H     0.22474   0.25053   0.17813   0.00000  Uiso   1.00
H77    H     0.01400   0.12483   0.38960   0.00000  Uiso   1.00
H78    H     0.26889   0.16156   0.07102   0.00000  Uiso   1.00
H79    H     0.07618   0.15136   0.42776   0.00000  Uiso   1.00
H80    H     0.00729   0.08678   0.45416   0.00000  Uiso   1.00
H81    H     0.32591   0.08286   0.06149   0.00000  Uiso   1.00
H82    H     0.17776   0.15847   0.11963   0.00000  Uiso   1.00
N83    N     0.11736   0.16668   0.24999   0.00000  Uiso   1.00
N84    N     0.21597   0.16666   0.25001   0.00000  Uiso   1.00
O85    O     0.03958   0.10655   0.25000   0.00000  Uiso   1.00
O86    O     0.06000   0.14990   0.46027   0.00000  Uiso   1.00
O87    O     0.31527   0.10111   0.47580   0.00000  Uiso   1.00
O88    O     0.01965   0.09693   0.03746   0.00000  Uiso   1.00
O89    O     0.29375   0.22678   0.25000   0.00000  Uiso   1.00
O90    O     0.29372   0.10654   0.25000   0.00000  Uiso   1.00
O91    O     0.03961   0.22679   0.25000   0.00000  Uiso   1.00
O92    O     0.01852   0.16668   0.31492   0.00000  Uiso   1.00
O93    O     0.31481   0.16666   0.18508   0.00000  Uiso   1.00
O94    O     0.27267   0.16667   0.31492   0.00000  Uiso   1.00
O95    O     0.06067   0.16667   0.18508   0.00000  Uiso   1.00
O96    O     0.27950   0.14902   0.04244   0.00000  Uiso   1.00
C97    C     0.33471   0.08796   0.24617   0.00000  Uiso   1.00
C98    C     0.37671   0.02065   0.24504   0.00000  Uiso   1.00
C99    C     0.66325   0.29023   0.25783   0.00000  Uiso   1.00
C100   C     0.33623   0.04316   0.24190   0.00000  Uiso   1.00
C101   C     0.51466   0.14113   0.28061   0.00000  Uiso   1.00
C102   C     0.48533   0.19259   0.21971   0.00000  Uiso   1.00
C103   C     0.46548   0.14096   0.28042   0.00000  Uiso   1.00
C104   C     0.53476   0.19205   0.21922   0.00000  Uiso   1.00
C105   C     0.63859   0.16570   0.33546   0.00000  Uiso   1.00
C106   C     0.36130   0.16594   0.16477   0.00000  Uiso   1.00
C107   C     0.62141   0.16127   0.38404   0.00000  Uiso   1.00
C108   C     0.66521   0.24539   0.25375   0.00000  Uiso   1.00
C109   C     0.37844   0.16063   0.11752   0.00000  Uiso   1.00
C110   C     0.63059   0.13227   0.45352   0.00000  Uiso   1.00
C111   C     0.37164   0.12793   0.05417   0.00000  Uiso   1.00
C112   C     0.64815   0.13932   0.40735   0.00000  Uiso   1.00
C113   C     0.35280   0.13539   0.09907   0.00000  Uiso   1.00
C114   C     0.57501   0.17300   0.40684   0.00000  Uiso   1.00
C115   C     0.42502   0.17413   0.09273   0.00000  Uiso   1.00
C116   C     0.55741   0.16822   0.45381   0.00000  Uiso   1.00
C117   C     0.44472   0.16414   0.04911   0.00000  Uiso   1.00
C118   C     0.58905   0.15222   0.47677   0.00000  Uiso   1.00
C119   C     0.52870   0.15518   0.04831   0.00000  Uiso   1.00
C120   C     0.41426   0.14870   0.02773   0.00000  Uiso   1.00
C121   C     0.50851   0.17370   0.47866   0.00000  Uiso   1.00
C122   C     0.49426   0.16640   0.02614   0.00000  Uiso   1.00
C123   C     0.51464   0.13500   0.09600   0.00000  Uiso   1.00
C124   C     0.47286   0.20891   0.41994   0.00000  Uiso   1.00
C125   C     0.59166   0.04242   0.22118   0.00000  Uiso   1.00
C126   C     0.40634   0.29179   0.28071   0.00000  Uiso   1.00
C127   C     0.57263   0.29314   0.26944   0.00000  Uiso   1.00
C128   C     0.42702   0.03961   0.22837   0.00000  Uiso   1.00
C129   C     0.52703   0.11242   0.31596   0.00000  Uiso   1.00
C130   C     0.47129   0.17712   0.45836   0.00000  Uiso   1.00
C131   C     0.47255   0.22341   0.18632   0.00000  Uiso   1.00
C132   C     0.43016   0.11248   0.31599   0.00000  Uiso   1.00
C133   C     0.57094   0.21890   0.18235   0.00000  Uiso   1.00
C134   C     0.57686   0.15247   0.02288   0.00000  Uiso   1.00
C135   C     0.42701   0.15637   0.48121   0.00000  Uiso   1.00
C136   C     0.62791   0.02176   0.24118   0.00000  Uiso   1.00
C137   C     0.37125   0.31175   0.25889   0.00000  Uiso   1.00
C138   C     0.62274   0.31264   0.25425   0.00000  Uiso   1.00
Cu139  Cu    0.38022   0.16667   0.25000   0.00000  Uiso   1.00
Cu140  Cu    0.61978   0.16666   0.25000   0.00000  Uiso   1.00
H141   H     0.44627   0.19156   0.10759   0.00000  Uiso   1.00
H142   H     0.48117   0.11597   0.10445   0.00000  Uiso   1.00
H143   H     0.54188   0.11285   0.10114   0.00000  Uiso   1.00
H144   H     0.50193   0.23239   0.41475   0.00000  Uiso   1.00
H145   H     0.47704   0.19395   0.38902   0.00000  Uiso   1.00
H146   H     0.43884   0.22605   0.42758   0.00000  Uiso   1.00
H147   H     0.60918   0.06713   0.19451   0.00000  Uiso   1.00
H148   H     0.57591   0.02022   0.20474   0.00000  Uiso   1.00
H149   H     0.56217   0.05516   0.24727   0.00000  Uiso   1.00
H150   H     0.38854   0.26660   0.30664   0.00000  Uiso   1.00
H151   H     0.43732   0.27982   0.25564   0.00000  Uiso   1.00
H152   H     0.55375   0.18501   0.38677   0.00000  Uiso   1.00
H153   H     0.41997   0.31441   0.29829   0.00000  Uiso   1.00
H154   H     0.56839   0.26926   0.29791   0.00000  Uiso   1.00
H155   H     0.54488   0.31611   0.28211   0.00000  Uiso   1.00
H156   H     0.56491   0.27977   0.24155   0.00000  Uiso   1.00
H157   H     0.43053   0.06378   0.20029   0.00000  Uiso   1.00
H158   H     0.43631   0.05253   0.25564   0.00000  Uiso   1.00
H159   H     0.45396   0.01627   0.21484   0.00000  Uiso   1.00
H160   H     0.50857   0.12215   0.34947   0.00000  Uiso   1.00
H161   H     0.51636   0.08018   0.31466   0.00000  Uiso   1.00
H162   H     0.56489   0.11017   0.31266   0.00000  Uiso   1.00
H163   H     0.65280   0.12033   0.11984   0.00000  Uiso   1.00
H164   H     0.48040   0.25521   0.19204   0.00000  Uiso   1.00
H165   H     0.49392   0.21818   0.15194   0.00000  Uiso   1.00
H166   H     0.43524   0.22345   0.18723   0.00000  Uiso   1.00
H167   H     0.39476   0.10945   0.31223   0.00000  Uiso   1.00
H168   H     0.44264   0.08042   0.31605   0.00000  Uiso   1.00
H169   H     0.42625   0.12314   0.34903   0.00000  Uiso   1.00
H170   H     0.60497   0.22437   0.18817   0.00000  Uiso   1.00
H171   H     0.57802   0.20489   0.15048   0.00000  Uiso   1.00
H172   H     0.55807   0.25053   0.17813   0.00000  Uiso   1.00
H173   H     0.34733   0.12483   0.38960   0.00000  Uiso   1.00
H174   H     0.60223   0.16156   0.07102   0.00000  Uiso   1.00
H175   H     0.40952   0.15136   0.42776   0.00000  Uiso   1.00
H176   H     0.34063   0.08678   0.45416   0.00000  Uiso   1.00
H177   H     0.65925   0.08286   0.06149   0.00000  Uiso   1.00
H178   H     0.51109   0.15847   0.11963   0.00000  Uiso   1.00
N179   N     0.45069   0.16668   0.24999   0.00000  Uiso   1.00
N180   N     0.54931   0.16666   0.25001   0.00000  Uiso   1.00
O181   O     0.37291   0.10655   0.25000   0.00000  Uiso   1.00
O182   O     0.39334   0.14990   0.46027   0.00000  Uiso   1.00
O183   O     0.64860   0.10111   0.47580   0.00000  Uiso   1.00
O184   O     0.35299   0.09693   0.03746   0.00000  Uiso   1.00
O185   O     0.62709   0.22678   0.25000   0.00000  Uiso   1.00
O186   O     0.62706   0.10654   0.25000   0.00000  Uiso   1.00
O187   O     0.37294   0.22679   0.25000   0.00000  Uiso   1.00
O188   O     0.35186   0.16668   0.31492   0.00000  Uiso   1.00
O189   O     0.64814   0.16666   0.18508   0.00000  Uiso   1.00
O190   O     0.60600   0.16667   0.31492   0.00000  Uiso   1.00
O191   O     0.39400   0.16667   0.18508   0.00000  Uiso   1.00
O192   O     0.61284   0.14902   0.04244   0.00000  Uiso   1.00
C193   C     0.66804   0.08796   0.24617   0.00000  Uiso   1.00
C194   C     0.71005   0.02065   0.24504   0.00000  Uiso   1.00
C195   C     0.99658   0.29023   0.25783   0.00000  Uiso   1.00
C196   C     0.66957   0.04316   0.24190   0.00000  Uiso   1.00
C197   C     0.84799   0.14113   0.28061   0.00000  Uiso   1.00
C198   C     0.81866   0.19259   0.21971   0.00000  Uiso   1.00
C199   C     0.79881   0.14096   0.28042   0.00000  Uiso   1.00
C200   C     0.86809   0.19205   0.21922   0.00000  Uiso   1.00
C201   C     0.97192   0.16570   0.33546   0.00000  Uiso   1.00
C202   C     0.69463   0.16594   0.16477   0.00000  Uiso   1.00
C203   C     0.95475   0.16127   0.38404   0.00000  Uiso   1.00
C204   C     0.99855   0.24539   0.25375   0.00000  Uiso   1.00
C205   C     0.71177   0.16063   0.11752   0.00000  Uiso   1.00
C206   C     0.96392   0.13227   0.45352   0.00000  Uiso   1.00
C207   C     0.70498   0.12793   0.05417   0.00000  Uiso   1.00
C208   C     0.98149   0.13932   0.40735   0.00000  Uiso   1.00
C209   C     0.68614   0.13539   0.09907   0.00000  Uiso   1.00
C210   C     0.90834   0.17300   0.40684   0.00000  Uiso   1.00
C211   C     0.75835   0.17413   0.09273   0.00000  Uiso   1.00
C212   C     0.89074   0.16822   0.45381   0.00000  Uiso   1.00
C213   C     0.77806   0.16414   0.04911   0.00000  Uiso   1.00
C214   C     0.92238   0.15222   0.47677   0.00000  Uiso   1.00
C215   C     0.86204   0.15518   0.04831   0.00000  Uiso   1.00
C216   C     0.74759   0.14870   0.02773   0.00000  Uiso   1.00
C217   C     0.84184   0.17370   0.47866   0.00000  Uiso   1.00
C218   C     0.82760   0.16640   0.02614   0.00000  Uiso   1.00
C219   C     0.84798   0.13500   0.09600   0.00000  Uiso   1.00
C220   C     0.80620   0.20891   0.41994   0.00000  Uiso   1.00
C221   C     0.92500   0.04242   0.22118   0.00000  Uiso   1.00
C222   C     0.73967   0.29179   0.28071   0.00000  Uiso   1.00
C223   C     0.90597   0.29314   0.26944   0.00000  Uiso   1.00
C224   C     0.76035   0.03961   0.22837   0.00000  Uiso   1.00
C225   C     0.86037   0.11242   0.31596   0.00000  Uiso   1.00
C226   C     0.80462   0.17712   0.45836   0.00000  Uiso   1.00
C227   C     0.80589   0.22341   0.18632   0.00000  Uiso   1.00
C228   C     0.76349   0.11248   0.31599   0.00000  Uiso   1.00
C229   C     0.90427   0.21890   0.18235   0.00000  Uiso   1.00
C230   C     0.91019   0.15247   0.02288   0.00000  Uiso   1.00
C231   C     0.76034   0.15637   0.48121   0.00000  Uiso   1.00
C232   C     0.96125   0.02176   0.24118   0.00000  Uiso   1.00
C233   C     0.70458   0.31175   0.25889   0.00000  Uiso   1.00
C234   C     0.95607   0.31264   0.25425   0.00000  Uiso   1.00
Cu235  Cu    0.71355   0.16667   0.25000   0.00000  Uiso   1.00
Cu236  Cu    0.95311   0.16666   0.25000   0.00000  Uiso   1.00
H237   H     0.77960   0.19156   0.10759   0.00000  Uiso   1.00
H238   H     0.81450   0.11597   0.10445   0.00000  Uiso   1.00
H239   H     0.87521   0.11285   0.10114   0.00000  Uiso   1.00
H240   H     0.83526   0.23239   0.41475   0.00000  Uiso   1.00
H241   H     0.81037   0.19395   0.38902   0.00000  Uiso   1.00
H242   H     0.77217   0.22605   0.42758   0.00000  Uiso   1.00
H243   H     0.94252   0.06713   0.19451   0.00000  Uiso   1.00
H244   H     0.90924   0.02022   0.20474   0.00000  Uiso   1.00
H245   H     0.89551   0.05516   0.24727   0.00000  Uiso   1.00
H246   H     0.72187   0.26660   0.30664   0.00000  Uiso   1.00
H247   H     0.77066   0.27982   0.25564   0.00000  Uiso   1.00
H248   H     0.88709   0.18501   0.38677   0.00000  Uiso   1.00
H249   H     0.75330   0.31441   0.29829   0.00000  Uiso   1.00
H250   H     0.90172   0.26926   0.29791   0.00000  Uiso   1.00
H251   H     0.87821   0.31611   0.28211   0.00000  Uiso   1.00
H252   H     0.89825   0.27977   0.24155   0.00000  Uiso   1.00
H253   H     0.76387   0.06378   0.20029   0.00000  Uiso   1.00
H254   H     0.76965   0.05253   0.25564   0.00000  Uiso   1.00
H255   H     0.78730   0.01627   0.21484   0.00000  Uiso   1.00
H256   H     0.84191   0.12215   0.34947   0.00000  Uiso   1.00
H257   H     0.84970   0.08018   0.31466   0.00000  Uiso   1.00
H258   H     0.89822   0.11017   0.31266   0.00000  Uiso   1.00
H259   H     0.98614   0.12033   0.11984   0.00000  Uiso   1.00
H260   H     0.81373   0.25521   0.19204   0.00000  Uiso   1.00
H261   H     0.82726   0.21818   0.15194   0.00000  Uiso   1.00
H262   H     0.76858   0.22345   0.18723   0.00000  Uiso   1.00
H263   H     0.72809   0.10945   0.31223   0.00000  Uiso   1.00
H264   H     0.77597   0.08042   0.31605   0.00000  Uiso   1.00
H265   H     0.75958   0.12314   0.34903   0.00000  Uiso   1.00
H266   H     0.93830   0.22437   0.18817   0.00000  Uiso   1.00
H267   H     0.91135   0.20489   0.15048   0.00000  Uiso   1.00
H268   H     0.89140   0.25053   0.17813   0.00000  Uiso   1.00
H269   H     0.68066   0.12483   0.38960   0.00000  Uiso   1.00
H270   H     0.93556   0.16156   0.07102   0.00000  Uiso   1.00
H271   H     0.74285   0.15136   0.42776   0.00000  Uiso   1.00
H272   H     0.67396   0.08678   0.45416   0.00000  Uiso   1.00
H273   H     0.99258   0.08286   0.06149   0.00000  Uiso   1.00
H274   H     0.84442   0.15847   0.11963   0.00000  Uiso   1.00
N275   N     0.78403   0.16668   0.24999   0.00000  Uiso   1.00
N276   N     0.88264   0.16666   0.25001   0.00000  Uiso   1.00
O277   O     0.70625   0.10655   0.25000   0.00000  Uiso   1.00
O278   O     0.72667   0.14990   0.46027   0.00000  Uiso   1.00
O279   O     0.98194   0.10111   0.47580   0.00000  Uiso   1.00
O280   O     0.68632   0.09693   0.03746   0.00000  Uiso   1.00
O281   O     0.96042   0.22678   0.25000   0.00000  Uiso   1.00
O282   O     0.96039   0.10654   0.25000   0.00000  Uiso   1.00
O283   O     0.70628   0.22679   0.25000   0.00000  Uiso   1.00
O284   O     0.68519   0.16668   0.31492   0.00000  Uiso   1.00
O285   O     0.98148   0.16666   0.18508   0.00000  Uiso   1.00
O286   O     0.93933   0.16667   0.31492   0.00000  Uiso   1.00
O287   O     0.72733   0.16667   0.18508   0.00000  Uiso   1.00
O288   O     0.94617   0.14902   0.04244   0.00000  Uiso   1.00
C289   C     0.00138   0.42129   0.24617   0.00000  Uiso   1.00
C290   C     0.04338   0.35398   0.24504   0.00000  Uiso   1.00
C291   C     0.32992   0.62356   0.25783   0.00000  Uiso   1.00
C292   C     0.00290   0.37650   0.24190   0.00000  Uiso   1.00
C293   C     0.18133   0.47446   0.28061   0.00000  Uiso   1.00
C294   C     0.15199   0.52592   0.21971   0.00000  Uiso   1.00
C295   C     0.13215   0.47429   0.28042   0.00000  Uiso   1.00
C296   C     0.20143   0.52539   0.21922   0.00000  Uiso   1.00
C297   C     0.30526   0.49903   0.33546   0.00000  Uiso   1.00
C298   C     0.02796   0.49927   0.16477   0.00000  Uiso   1.00
C299   C     0.28808   0.49461   0.38404   0.00000  Uiso   1.00
C300   C     0.33188   0.57873   0.25375   0.00000  Uiso   1.00
C301   C     0.04510   0.49396   0.11752   0.00000  Uiso   1.00
C302   C     0.29726   0.46560   0.45352   0.00000  Uiso   1.00
C303   C     0.03831   0.46126   0.05417   0.00000  Uiso   1.00
C304   C     0.31482   0.47265   0.40735   0.00000  Uiso   1.00
C305   C     0.01947   0.46873   0.09907   0.00000  Uiso   1.00
C306   C     0.24168   0.50634   0.40684   0.00000  Uiso   1.00
C307   C     0.09168   0.50747   0.09273   0.00000  Uiso   1.00
C308   C     0.22407   0.50155   0.45381   0.00000  Uiso   1.00
C309   C     0.11139   0.49747   0.04911   0.00000  Uiso   1.00
C310   C     0.25572   0.48555   0.47677   0.00000  Uiso   1.00
C311   C     0.19537   0.48851   0.04831   0.00000  Uiso   1.00
C312   C     0.08092   0.48203   0.02773   0.00000  Uiso   1.00
C313   C     0.17518   0.50704   0.47866   0.00000  Uiso   1.00
C314   C     0.16093   0.49973   0.02614   0.00000  Uiso   1.00
C315   C     0.18131   0.46833   0.09600   0.00000  Uiso   1.00
C316   C     0.13953   0.54225   0.41994   0.00000  Uiso   1.00
C317   C     0.25833   0.37576   0.22118   0.00000  Uiso   1.00
C318   C     0.07300   0.62512   0.28071   0.00000  Uiso   1.00
C319   C     0.23930   0.62647   0.26944   0.00000  Uiso   1.00
C320   C     0.09368   0.37294   0.22837   0.00000  Uiso   1.00
C321   C     0.19370   0.44576   0.31596   0.00000  Uiso   1.00
C322   C     0.13795   0.51045   0.45836   0.00000  Uiso   1.00
C323   C     0.13922   0.55674   0.18632   0.00000  Uiso   1.00
C324   C     0.09682   0.44581   0.31599   0.00000  Uiso   1.00
C325   C     0.23760   0.55224   0.18235   0.00000  Uiso   1.00
C326   C     0.24352   0.48581   0.02288   0.00000  Uiso   1.00
C327   C     0.09368   0.48970   0.48121   0.00000  Uiso   1.00
C328   C     0.29458   0.35509   0.24118   0.00000  Uiso   1.00
C329   C     0.03792   0.64508   0.25889   0.00000  Uiso   1.00
C330   C     0.28941   0.64597   0.25425   0.00000  Uiso   1.00
Cu331  Cu    0.04689   0.50001   0.25000   0.00000  Uiso   1.00
Cu332  Cu    0.28645   0.49999   0.25000   0.00000  Uiso   1.00
H333   H     0.11294   0.52489   0.10759   0.00000  Uiso   1.00
H334   H     0.14784   0.44930   0.10445   0.00000  Uiso   1.00
H335   H     0.20854   0.44618   0.10114   0.00000  Uiso   1.00
H336   H     0.16859   0.56572   0.41475   0.00000  Uiso   1.00
H337   H     0.14371   0.52728   0.38902   0.00000  Uiso   1.00
H338   H     0.10550   0.55938   0.42758   0.00000  Uiso   1.00
H339   H     0.27585   0.40046   0.19451   0.00000  Uiso   1.00
H340   H     0.24257   0.35356   0.20474   0.00000  Uiso   1.00
H341   H     0.22884   0.38849   0.24727   0.00000  Uiso   1.00
H342   H     0.05521   0.59993   0.30664   0.00000  Uiso   1.00
H343   H     0.10399   0.61316   0.25564   0.00000  Uiso   1.00
H344   H     0.22042   0.51834   0.38677   0.00000  Uiso   1.00
H345   H     0.08664   0.64774   0.29829   0.00000  Uiso   1.00
H346   H     0.23506   0.60260   0.29791   0.00000  Uiso   1.00
H347   H     0.21154   0.64944   0.28211   0.00000  Uiso   1.00
H348   H     0.23158   0.61311   0.24155   0.00000  Uiso   1.00
H349   H     0.09720   0.39711   0.20029   0.00000  Uiso   1.00
H350   H     0.10298   0.38586   0.25564   0.00000  Uiso   1.00
H351   H     0.12063   0.34960   0.21484   0.00000  Uiso   1.00
H352   H     0.17524   0.45549   0.34947   0.00000  Uiso   1.00
H353   H     0.18303   0.41351   0.31466   0.00000  Uiso   1.00
H354   H     0.23155   0.44350   0.31266   0.00000  Uiso   1.00
H355   H     0.31947   0.45366   0.11984   0.00000  Uiso   1.00
H356   H     0.14706   0.58854   0.19204   0.00000  Uiso   1.00
H357   H     0.16059   0.55152   0.15194   0.00000  Uiso   1.00
H358   H     0.10191   0.55679   0.18723   0.00000  Uiso   1.00
H359   H     0.06143   0.44278   0.31223   0.00000  Uiso   1.00
H360   H     0.10931   0.41376   0.31605   0.00000  Uiso   1.00
H361   H     0.09291   0.45647   0.34903   0.00000  Uiso   1.00
H362   H     0.27163   0.55770   0.18817   0.00000  Uiso   1.00
H363   H     0.24469   0.53823   0.15048   0.00000  Uiso   1.00
H364   H     0.22474   0.58387   0.17813   0.00000  Uiso   1.00
H365   H     0.01400   0.45816   0.38960   0.00000  Uiso   1.00
H366   H     0.26889   0.49489   0.07102   0.00000  Uiso   1.00
H367   H     0.07618   0.48470   0.42776   0.00000  Uiso   1.00
H368   H     0.00729   0.42012   0.45416   0.00000  Uiso   1.00
H369   H     0.32591   0.41619   0.06149   0.00000  Uiso   1.00
H370   H     0.17776   0.49181   0.11963   0.00000  Uiso   1.00
N371   N     0.11736   0.50001   0.24999   0.00000  Uiso   1.00
N372   N     0.21597   0.49999   0.25001   0.00000  Uiso   1.00
O373   O     0.03958   0.43989   0.25000   0.00000  Uiso   1.00
O374   O     0.06000   0.48324   0.46027   0.00000  Uiso   1.00
O375   O     0.31527   0.43445   0.47580   0.00000  Uiso   1.00
O376   O     0.01965   0.43026   0.03746   0.00000  Uiso   1.00
O377   O     0.29375   0.56011   0.25000   0.00000  Uiso   1.00
O378   O     0.29372   0.43988   0.25000   0.00000  Uiso   1.00
O379   O     0.03961   0.56012   0.25000   0.00000  Uiso   1.00
O380   O     0.01852   0.50001   0.31492   0.00000  Uiso   1.00
O381   O     0.31481   0.49999   0.18508   0.00000  Uiso   1.00
O382   O     0.27267   0.50000   0.31492   0.00000  Uiso   1.00
O383   O     0.06067   0.50000   0.18508   0.00000  Uiso   1.00
O384   O     0.27950   0.48235   0.04244   0.00000  Uiso   1.00
C385   C     0.33471   0.42129   0.24617   0.00000  Uiso   1.00
C386   C     0.37671   0.35398   0.24504   0.00000  Uiso   1.00
C387   C     0.66325   0.62356   0.25783   0.00000  Uiso   1.00
C388   C     0.33623   0.37650   0.24190   0.00000  Uiso   1.00
C389   C     0.51466   0.47446   0.28061   0.00000  Uiso   1.00
C390   C     0.48533   0.52592   0.21971   0.00000  Uiso   1.00
C391   C     0.46548   0.47429   0.28042   0.00000  Uiso   1.00
C392   C     0.53476   0.52539   0.21922   0.00000  Uiso   1.00
C393   C     0.63859   0.49903   0.33546   0.00000  Uiso   1.00
C394   C     0.36130   0.49927   0.16477   0.00000  Uiso   1.00
C395   C     0.62141   0.49461   0.38404   0.00000  Uiso   1.00
C396   C     0.66521   0.57873   0.25375   0.00000  Uiso   1.00
C397   C     0.37844   0.49396   0.11752   0.00000  Uiso   1.00
C398   C     0.63059   0.46560   0.45352   0.00000  Uiso   1.00
C399   C     0.37164   0.46126   0.05417   0.00000  Uiso   1.00
C400   C     0.64815   0.47265   0.40735   0.00000  Uiso   1.00
C401   C     0.35280   0.46873   0.09907   0.00000  Uiso   1.00
C402   C     0.57501   0.50634   0.40684   0.00000  Uiso   1.00
C403   C     0.42502   0.50747   0.09273   0.00000  Uiso   1.00
C404   C     0.55741   0.50155   0.45381   0.00000  Uiso   1.00
C405   C     0.44472   0.49747   0.04911   0.00000  Uiso   1.00
C406   C     0.58905   0.48555   0.47677   0.00000  Uiso   1.00
C407   C     0.52870   0.48851   0.04831   0.00000  Uiso   1.00
C408   C     0.41426   0.48203   0.02773   0.00000  Uiso   1.00
C409   C     0.50851   0.50704   0.47866   0.00000  Uiso   1.00
C410   C     0.49426   0.49973   0.02614   0.00000  Uiso   1.00
C411   C     0.51464   0.46833   0.09600   0.00000  Uiso   1.00
C412   C     0.47286   0.54225   0.41994   0.00000  Uiso   1.00
C413   C     0.59166   0.37576   0.22118   0.00000  Uiso   1.00
C414   C     0.40634   0.62512   0.28071   0.00000  Uiso   1.00
C415   C     0.57263   0.62647   0.26944   0.00000  Uiso   1.00
C416   C     0.42702   0.37294   0.22837   0.00000  Uiso   1.00
C417   C     0.52703   0.44576   0.31596   0.00000  Uiso   1.00
C418   C     0.47129   0.51045   0.45836   0.00000  Uiso   1.00
C419   C     0.47255   0.55674   0.18632   0.00000  Uiso   1.00
C420   C     0.43016   0.44581   0.31599   0.00000  Uiso   1.00
C421   C     0.57094   0.55224   0.18235   0.00000  Uiso   1.00
C422   C     0.57686   0.48581   0.02288   0.00000  Uiso   1.00
C423   C     0.42701   0.48970   0.48121   0.00000  Uiso   1.00
C424   C     0.62791   0.35509   0.24118   0.00000  Uiso   1.00
C425   C     0.37125   0.64508   0.25889   0.00000  Uiso   1.00
C426   C     0.62274   0.64597   0.25425   0.00000  Uiso   1.00
Cu427  Cu    0.38022   0.50001   0.25000   0.00000  Uiso   1.00
Cu428  Cu    0.61978   0.49999   0.25000   0.00000  Uiso   1.00
H429   H     0.44627   0.52489   0.10759   0.00000  Uiso   1.00
H430   H     0.48117   0.44930   0.10445   0.00000  Uiso   1.00
H431   H     0.54188   0.44618   0.10114   0.00000  Uiso   1.00
H432   H     0.50193   0.56572   0.41475   0.00000  Uiso   1.00
H433   H     0.47704   0.52728   0.38902   0.00000  Uiso   1.00
H434   H     0.43884   0.55938   0.42758   0.00000  Uiso   1.00
H435   H     0.60918   0.40046   0.19451   0.00000  Uiso   1.00
H436   H     0.57591   0.35356   0.20474   0.00000  Uiso   1.00
H437   H     0.56217   0.38849   0.24727   0.00000  Uiso   1.00
H438   H     0.38854   0.59993   0.30664   0.00000  Uiso   1.00
H439   H     0.43732   0.61316   0.25564   0.00000  Uiso   1.00
H440   H     0.55375   0.51834   0.38677   0.00000  Uiso   1.00
H441   H     0.41997   0.64774   0.29829   0.00000  Uiso   1.00
H442   H     0.56839   0.60260   0.29791   0.00000  Uiso   1.00
H443   H     0.54488   0.64944   0.28211   0.00000  Uiso   1.00
H444   H     0.56491   0.61311   0.24155   0.00000  Uiso   1.00
H445   H     0.43053   0.39711   0.20029   0.00000  Uiso   1.00
H446   H     0.43631   0.38586   0.25564   0.00000  Uiso   1.00
H447   H     0.45396   0.34960   0.21484   0.00000  Uiso   1.00
H448   H     0.50857   0.45549   0.34947   0.00000  Uiso   1.00
H449   H     0.51636   0.41351   0.31466   0.00000  Uiso   1.00
H450   H     0.56489   0.44350   0.31266   0.00000  Uiso   1.00
H451   H     0.65280   0.45366   0.11984   0.00000  Uiso   1.00
H452   H     0.48040   0.58854   0.19204   0.00000  Uiso   1.00
H453   H     0.49392   0.55152   0.15194   0.00000  Uiso   1.00
H454   H     0.43524   0.55679   0.18723   0.00000  Uiso   1.00
H455   H     0.39476   0.44278   0.31223   0.00000  Uiso   1.00
H456   H     0.44264   0.41376   0.31605   0.00000  Uiso   1.00
H457   H     0.42625   0.45647   0.34903   0.00000  Uiso   1.00
H458   H     0.60497   0.55770   0.18817   0.00000  Uiso   1.00
H459   H     0.57802   0.53823   0.15048   0.00000  Uiso   1.00
H460   H     0.55807   0.58387   0.17813   0.00000  Uiso   1.00
H461   H     0.34733   0.45816   0.38960   0.00000  Uiso   1.00
H462   H     0.60223   0.49489   0.07102   0.00000  Uiso   1.00
H463   H     0.40952   0.48470   0.42776   0.00000  Uiso   1.00
H464   H     0.34063   0.42012   0.45416   0.00000  Uiso   1.00
H465   H     0.65925   0.41619   0.06149   0.00000  Uiso   1.00
H466   H     0.51109   0.49181   0.11963   0.00000  Uiso   1.00
N467   N     0.45069   0.50001   0.24999   0.00000  Uiso   1.00
N468   N     0.54931   0.49999   0.25001   0.00000  Uiso   1.00
O469   O     0.37291   0.43989   0.25000   0.00000  Uiso   1.00
O470   O     0.39334   0.48324   0.46027   0.00000  Uiso   1.00
O471   O     0.64860   0.43445   0.47580   0.00000  Uiso   1.00
O472   O     0.35299   0.43026   0.03746   0.00000  Uiso   1.00
O473   O     0.62709   0.56011   0.25000   0.00000  Uiso   1.00
O474   O     0.62706   0.43988   0.25000   0.00000  Uiso   1.00
O475   O     0.37294   0.56012   0.25000   0.00000  Uiso   1.00
O476   O     0.35186   0.50001   0.31492   0.00000  Uiso   1.00
O477   O     0.64814   0.49999   0.18508   0.00000  Uiso   1.00
O478   O     0.60600   0.50000   0.31492   0.00000  Uiso   1.00
O479   O     0.39400   0.50000   0.18508   0.00000  Uiso   1.00
O480   O     0.61284   0.48235   0.04244   0.00000  Uiso   1.00
C481   C     0.66804   0.42129   0.24617   0.00000  Uiso   1.00
C482   C     0.71005   0.35398   0.24504   0.00000  Uiso   1.00
C483   C     0.99658   0.62356   0.25783   0.00000  Uiso   1.00
C484   C     0.66957   0.37650   0.24190   0.00000  Uiso   1.00
C485   C     0.84799   0.47446   0.28061   0.00000  Uiso   1.00
C486   C     0.81866   0.52592   0.21971   0.00000  Uiso   1.00
C487   C     0.79881   0.47429   0.28042   0.00000  Uiso   1.00
C488   C     0.86809   0.52539   0.21922   0.00000  Uiso   1.00
C489   C     0.97192   0.49903   0.33546   0.00000  Uiso   1.00
C490   C     0.69463   0.49927   0.16477   0.00000  Uiso   1.00
C491   C     0.95475   0.49461   0.38404   0.00000  Uiso   1.00
C492   C     0.99855   0.57873   0.25375   0.00000  Uiso   1.00
C493   C     0.71177   0.49396   0.11752   0.00000  Uiso   1.00
C494   C     0.96392   0.46560   0.45352   0.00000  Uiso   1.00
C495   C     0.70498   0.46126   0.05417   0.00000  Uiso   1.00
C496   C     0.98149   0.47265   0.40735   0.00000  Uiso   1.00
C497   C     0.68614   0.46873   0.09907   0.00000  Uiso   1.00
C498   C     0.90834   0.50634   0.40684   0.00000  Uiso   1.00
C499   C     0.75835   0.50747   0.09273   0.00000  Uiso   1.00
C500   C     0.89074   0.50155   0.45381   0.00000  Uiso   1.00
C501   C     0.77806   0.49747   0.04911   0.00000  Uiso   1.00
C502   C     0.92238   0.48555   0.47677   0.00000  Uiso   1.00
C503   C     0.86204   0.48851   0.04831   0.00000  Uiso   1.00
C504   C     0.74759   0.48203   0.02773   0.00000  Uiso   1.00
C505   C     0.84184   0.50704   0.47866   0.00000  Uiso   1.00
C506   C     0.82760   0.49973   0.02614   0.00000  Uiso   1.00
C507   C     0.84798   0.46833   0.09600   0.00000  Uiso   1.00
C508   C     0.80620   0.54225   0.41994   0.00000  Uiso   1.00
C509   C     0.92500   0.37576   0.22118   0.00000  Uiso   1.00
C510   C     0.73967   0.62512   0.28071   0.00000  Uiso   1.00
C511   C     0.90597   0.62647   0.26944   0.00000  Uiso   1.00
C512   C     0.76035   0.37294   0.22837   0.00000  Uiso   1.00
C513   C     0.86037   0.44576   0.31596   0.00000  Uiso   1.00
C514   C     0.80462   0.51045   0.45836   0.00000  Uiso   1.00
C515   C     0.80589   0.55674   0.18632   0.00000  Uiso   1.00
C516   C     0.76349   0.44581   0.31599   0.00000  Uiso   1.00
C517   C     0.90427   0.55224   0.18235   0.00000  Uiso   1.00
C518   C     0.91019   0.48581   0.02288   0.00000  Uiso   1.00
C519   C     0.76034   0.48970   0.48121   0.00000  Uiso   1.00
C520   C     0.96125   0.35509   0.24118   0.00000  Uiso   1.00
C521   C     0.70458   0.64508   0.25889   0.00000  Uiso   1.00
C522   C     0.95607   0.64597   0.25425   0.00000  Uiso   1.00
Cu523  Cu    0.71355   0.50001   0.25000   0.00000  Uiso   1.00
Cu524  Cu    0.95311   0.49999   0.25000   0.00000  Uiso   1.00
H525   H     0.77960   0.52489   0.10759   0.00000  Uiso   1.00
H526   H     0.81450   0.44930   0.10445   0.00000  Uiso   1.00
H527   H     0.87521   0.44618   0.10114   0.00000  Uiso   1.00
H528   H     0.83526   0.56572   0.41475   0.00000  Uiso   1.00
H529   H     0.81037   0.52728   0.38902   0.00000  Uiso   1.00
H530   H     0.77217   0.55938   0.42758   0.00000  Uiso   1.00
H531   H     0.94252   0.40046   0.19451   0.00000  Uiso   1.00
H532   H     0.90924   0.35356   0.20474   0.00000  Uiso   1.00
H533   H     0.89551   0.38849   0.24727   0.00000  Uiso   1.00
H534   H     0.72187   0.59993   0.30664   0.00000  Uiso   1.00
H535   H     0.77066   0.61316   0.25564   0.00000  Uiso   1.00
H536   H     0.88709   0.51834   0.38677   0.00000  Uiso   1.00
H537   H     0.75330   0.64774   0.29829   0.00000  Uiso   1.00
H538   H     0.90172   0.60260   0.29791   0.00000  Uiso   1.00
H539   H     0.87821   0.64944   0.28211   0.00000  Uiso   1.00
H540   H     0.89825   0.61311   0.24155   0.00000  Uiso   1.00
H541   H     0.76387   0.39711   0.20029   0.00000  Uiso   1.00
H542   H     0.76965   0.38586   0.25564   0.00000  Uiso   1.00
H543   H     0.78730   0.34960   0.21484   0.00000  Uiso   1.00
H544   H     0.84191   0.45549   0.34947   0.00000  Uiso   1.00
H545   H     0.84970   0.41351   0.31466   0.00000  Uiso   1.00
H546   H     0.89822   0.44350   0.31266   0.00000  Uiso   1.00
H547   H     0.98614   0.45366   0.11984   0.00000  Uiso   1.00
H548   H     0.81373   0.58854   0.19204   0.00000  Uiso   1.00
H549   H     0.82726   0.55152   0.15194   0.00000  Uiso   1.00
H550   H     0.76858   0.55679   0.18723   0.00000  Uiso   1.00
H551   H     0.72809   0.44278   0.31223   0.00000  Uiso   1.00
H552   H     0.77597   0.41376   0.31605   0.00000  Uiso   1.00
H553   H     0.75958   0.45647   0.34903   0.00000  Uiso   1.00
H554   H     0.93830   0.55770   0.18817   0.00000  Uiso   1.00
H555   H     0.91135   0.53823   0.15048   0.00000  Uiso   1.00
H556   H     0.89140   0.58387   0.17813   0.00000  Uiso   1.00
H557   H     0.68066   0.45816   0.38960   0.00000  Uiso   1.00
H558   H     0.93556   0.49489   0.07102   0.00000  Uiso   1.00
H559   H     0.74285   0.48470   0.42776   0.00000  Uiso   1.00
H560   H     0.67396   0.42012   0.45416   0.00000  Uiso   1.00
H561   H     0.99258   0.41619   0.06149   0.00000  Uiso   1.00
H562   H     0.84442   0.49181   0.11963   0.00000  Uiso   1.00
N563   N     0.78403   0.50001   0.24999   0.00000  Uiso   1.00
N564   N     0.88264   0.49999   0.25001   0.00000  Uiso   1.00
O565   O     0.70625   0.43989   0.25000   0.00000  Uiso   1.00
O566   O     0.72667   0.48324   0.46027   0.00000  Uiso   1.00
O567   O     0.98194   0.43445   0.47580   0.00000  Uiso   1.00
O568   O     0.68632   0.43026   0.03746   0.00000  Uiso   1.00
O569   O     0.96042   0.56011   0.25000   0.00000  Uiso   1.00
O570   O     0.96039   0.43988   0.25000   0.00000  Uiso   1.00
O571   O     0.70628   0.56012   0.25000   0.00000  Uiso   1.00
O572   O     0.68519   0.50001   0.31492   0.00000  Uiso   1.00
O573   O     0.98148   0.49999   0.18508   0.00000  Uiso   1.00
O574   O     0.93933   0.50000   0.31492   0.00000  Uiso   1.00
O575   O     0.72733   0.50000   0.18508   0.00000  Uiso   1.00
O576   O     0.94617   0.48235   0.04244   0.00000  Uiso   1.00
C577   C     0.00138   0.75463   0.24617   0.00000  Uiso   1.00
C578   C     0.04338   0.68731   0.24504   0.00000  Uiso   1.00
C579   C     0.32992   0.95689   0.25783   0.00000  Uiso   1.00
C580   C     0.00290   0.70983   0.24190   0.00000  Uiso   1.00
C581   C     0.18133   0.80780   0.28061   0.00000  Uiso   1.00
C582   C     0.15199   0.85926   0.21971   0.00000  Uiso   1.00
C583   C     0.13215   0.80763   0.28042   0.00000  Uiso   1.00
C584   C     0.20143   0.85872   0.21922   0.00000  Uiso   1.00
C585   C     0.30526   0.83237   0.33546   0.00000  Uiso   1.00
C586   C     0.02796   0.83260   0.16477   0.00000  Uiso   1.00
C587   C     0.28808   0.82794   0.38404   0.00000  Uiso   1.00
C588   C     0.33188   0.91206   0.25375   0.00000  Uiso   1.00
C589   C     0.04510   0.82730   0.11752   0.00000  Uiso   1.00
C590   C     0.29726   0.79893   0.45352   0.00000  Uiso   1.00
C591   C     0.03831   0.79460   0.05417   0.00000  Uiso   1.00
C592   C     0.31482   0.80599   0.40735   0.00000  Uiso   1.00
C593   C     0.01947   0.80206   0.09907   0.00000  Uiso   1.00
C594   C     0.24168   0.83967   0.40684   0.00000  Uiso   1.00
C595   C     0.09168   0.84080   0.09273   0.00000  Uiso   1.00
C596   C     0.22407   0.83488   0.45381   0.00000  Uiso   1.00
C597   C     0.11139   0.83081   0.04911   0.00000  Uiso   1.00
C598   C     0.25572   0.81889   0.47677   0.00000  Uiso   1.00
C599   C     0.19537   0.82184   0.04831   0.00000  Uiso   1.00
C600   C     0.08092   0.81536   0.02773   0.00000  Uiso   1.00
C601   C     0.17518   0.84037   0.47866   0.00000  Uiso   1.00
C602   C     0.16093   0.83306   0.02614   0.00000  Uiso   1.00
C603   C     0.18131   0.80166   0.09600   0.00000  Uiso   1.00
C604   C     0.13953   0.87558   0.41994   0.00000  Uiso   1.00
C605   C     0.25833   0.70909   0.22118   0.00000  Uiso   1.00
C606   C     0.07300   0.95846   0.28071   0.00000  Uiso   1.00
C607   C     0.23930   0.95980   0.26944   0.00000  Uiso   1.00
C608   C     0.09368   0.70628   0.22837   0.00000  Uiso   1.00
C609   C     0.19370   0.77909   0.31596   0.00000  Uiso   1.00
C610   C     0.13795   0.84379   0.45836   0.00000  Uiso   1.00
C611   C     0.13922   0.89008   0.18632   0.00000  Uiso   1.00
C612   C     0.09682   0.77915   0.31599   0.00000  Uiso   1.00
C613   C     0.23760   0.88557   0.18235   0.00000  Uiso   1.00
C614   C     0.24352   0.81914   0.02288   0.00000  Uiso   1.00
C615   C     0.09368   0.82304   0.48121   0.00000  Uiso   1.00
C616   C     0.29458   0.68843   0.24118   0.00000  Uiso   1.00
C617   C     0.03792   0.97841   0.25889   0.00000  Uiso   1.00
C618   C     0.28941   0.97930   0.25425   0.00000  Uiso   1.00
Cu619  Cu    0.04689   0.83334   0.25000   0.00000  Uiso   1.00
Cu620  Cu    0.28645   0.83333   0.25000   0.00000  Uiso   1.00
H621   H     0.11294   0.85823   0.10759   0.00000  Uiso   1.00
H622   H     0.14784   0.78264   0.10445   0.00000  Uiso   1.00
H623   H     0.20854   0.77951   0.10114   0.00000  Uiso   1.00
H624   H     0.16859   0.89905   0.41475   0.00000  Uiso   1.00
H625   H     0.14371   0.86062   0.38902   0.00000  Uiso   1.00
H626   H     0.10550   0.89272   0.42758   0.00000  Uiso   1.00
H627   H     0.27585   0.73380   0.19451   0.00000  Uiso   1.00
H628   H     0.24257   0.68689   0.20474   0.00000  Uiso   1.00
H629   H     0.22884   0.72183   0.24727   0.00000  Uiso   1.00
H630   H     0.05521   0.93327   0.30664   0.00000  Uiso   1.00
H631   H     0.10399   0.94649   0.25564   0.00000  Uiso   1.00
H632   H     0.22042   0.85168   0.38677   0.00000  Uiso   1.00
H633   H     0.08664   0.98107   0.29829   0.00000  Uiso   1.00
H634   H     0.23506   0.93593   0.29791   0.00000  Uiso   1.00
H635   H     0.21154   0.98278   0.28211   0.00000  Uiso   1.00
H636   H     0.23158   0.94644   0.24155   0.00000  Uiso   1.00
H637   H     0.09720   0.73044   0.20029   0.00000  Uiso   1.00
H638   H     0.10298   0.71920   0.25564   0.00000  Uiso   1.00
H639   H     0.12063   0.68293   0.21484   0.00000  Uiso   1.00
H640   H     0.17524   0.78882   0.34947   0.00000  Uiso   1.00
H641   H     0.18303   0.74684   0.31466   0.00000  Uiso   1.00
H642   H     0.23155   0.77684   0.31266   0.00000  Uiso   1.00
H643   H     0.31947   0.78699   0.11984   0.00000  Uiso   1.00
H644   H     0.14706   0.92187   0.19204   0.00000  Uiso   1.00
H645   H     0.16059   0.88485   0.15194   0.00000  Uiso   1.00
H646   H     0.10191   0.89012   0.18723   0.00000  Uiso   1.00
H647   H     0.06143   0.77611   0.31223   0.00000  Uiso   1.00
H648   H     0.10931   0.74709   0.31605   0.00000  Uiso   1.00
H649   H     0.09291   0.78980   0.34903   0.00000  Uiso   1.00
H650   H     0.27163   0.89104   0.18817   0.00000  Uiso   1.00
H651   H     0.24469   0.87156   0.15048   0.00000  Uiso   1.00
H652   H     0.22474   0.91720   0.17813   0.00000  Uiso   1.00
H653   H     0.01400   0.79149   0.38960   0.00000  Uiso   1.00
H654   H     0.26889   0.82822   0.07102   0.00000  Uiso   1.00
H655   H     0.07618   0.81803   0.42776   0.00000  Uiso   1.00
H656   H     0.00729   0.75345   0.45416   0.00000  Uiso   1.00
H657   H     0.32591   0.74953   0.06149   0.00000  Uiso   1.00
H658   H     0.17776   0.82514   0.11963   0.00000  Uiso   1.00
N659   N     0.11736   0.83334   0.24999   0.00000  Uiso   1.00
N660   N     0.21597   0.83332   0.25001   0.00000  Uiso   1.00
O661   O     0.03958   0.77322   0.25000   0.00000  Uiso   1.00
O662   O     0.06000   0.81657   0.46027   0.00000  Uiso   1.00
O663   O     0.31527   0.76778   0.47580   0.00000  Uiso   1.00
O664   O     0.01965   0.76359   0.03746   0.00000  Uiso   1.00
O665   O     0.29375   0.89345   0.25000   0.00000  Uiso   1.00
O666   O     0.29372   0.77321   0.25000   0.00000  Uiso   1.00
O667   O     0.03961   0.89346   0.25000   0.00000  Uiso   1.00
O668   O     0.01852   0.83334   0.31492   0.00000  Uiso   1.00
O669   O     0.31481   0.83332   0.18508   0.00000  Uiso   1.00
O670   O     0.27267   0.83333   0.31492   0.00000  Uiso   1.00
O671   O     0.06067   0.83333   0.18508   0.00000  Uiso   1.00
O672   O     0.27950   0.81568   0.04244   0.00000  Uiso   1.00
C673   C     0.33471   0.75463   0.24617   0.00000  Uiso   1.00
C674   C     0.37671   0.68731   0.24504   0.00000  Uiso   1.00
C675   C     0.66325   0.95689   0.25783   0.00000  Uiso   1.00
C676   C     0.33623   0.70983   0.24190   0.00000  Uiso   1.00
C677   C     0.51466   0.80780   0.28061   0.00000  Uiso   1.00
C678   C     0.48533   0.85926   0.21971   0.00000  Uiso   1.00
C679   C     0.46548   0.80763   0.28042   0.00000  Uiso   1.00
C680   C     0.53476   0.85872   0.21922   0.00000  Uiso   1.00
C681   C     0.63859   0.83237   0.33546   0.00000  Uiso   1.00
C682   C     0.36130   0.83260   0.16477   0.00000  Uiso   1.00
C683   C     0.62141   0.82794   0.38404   0.00000  Uiso   1.00
C684   C     0.66521   0.91206   0.25375   0.00000  Uiso   1.00
C685   C     0.37844   0.82730   0.11752   0.00000  Uiso   1.00
C686   C     0.63059   0.79893   0.45352   0.00000  Uiso   1.00
C687   C     0.37164   0.79460   0.05417   0.00000  Uiso   1.00
C688   C     0.64815   0.80599   0.40735   0.00000  Uiso   1.00
C689   C     0.35280   0.80206   0.09907   0.00000  Uiso   1.00
C690   C     0.57501   0.83967   0.40684   0.00000  Uiso   1.00
C691   C     0.42502   0.84080   0.09273   0.00000  Uiso   1.00
C692   C     0.55741   0.83488   0.45381   0.00000  Uiso   1.00
C693   C     0.44472   0.83081   0.04911   0.00000  Uiso   1.00
C694   C     0.58905   0.81889   0.47677   0.00000  Uiso   1.00
C695   C     0.52870   0.82184   0.04831   0.00000  Uiso   1.00
C696   C     0.41426   0.81536   0.02773   0.00000  Uiso   1.00
C697   C     0.50851   0.84037   0.47866   0.00000  Uiso   1.00
C698   C     0.49426   0.83306   0.02614   0.00000  Uiso   1.00
C699   C     0.51464   0.80166   0.09600   0.00000  Uiso   1.00
C700   C     0.47286   0.87558   0.41994   0.00000  Uiso   1.00
C701   C     0.59166   0.70909   0.22118   0.00000  Uiso   1.00
C702   C     0.40634   0.95846   0.28071   0.00000  Uiso   1.00
C703   C     0.57263   0.95980   0.26944   0.00000  Uiso   1.00
C704   C     0.42702   0.70628   0.22837   0.00000  Uiso   1.00
C705   C     0.52703   0.77909   0.31596   0.00000  Uiso   1.00
C706   C     0.47129   0.84379   0.45836   0.00000  Uiso   1.00
C707   C     0.47255   0.89008   0.18632   0.00000  Uiso   1.00
C708   C     0.43016   0.77915   0.31599   0.00000  Uiso   1.00
C709   C     0.57094   0.88557   0.18235   0.00000  Uiso   1.00
C710   C     0.57686   0.81914   0.02288   0.00000  Uiso   1.00
C711   C     0.42701   0.82304   0.48121   0.00000  Uiso   1.00
C712   C     0.62791   0.68843   0.24118   0.00000  Uiso   1.00
C713   C     0.37125   0.97841   0.25889   0.00000  Uiso   1.00
C714   C     0.62274   0.97930   0.25425   0.00000  Uiso   1.00
Cu715  Cu    0.38022   0.83334   0.25000   0.00000  Uiso   1.00
Cu716  Cu    0.61978   0.83333   0.25000   0.00000  Uiso   1.00
H717   H     0.44627   0.85823   0.10759   0.00000  Uiso   1.00
H718   H     0.48117   0.78264   0.10445   0.00000  Uiso   1.00
H719   H     0.54188   0.77951   0.10114   0.00000  Uiso   1.00
H720   H     0.50193   0.89905   0.41475   0.00000  Uiso   1.00
H721   H     0.47704   0.86062   0.38902   0.00000  Uiso   1.00
H722   H     0.43884   0.89272   0.42758   0.00000  Uiso   1.00
H723   H     0.60918   0.73380   0.19451   0.00000  Uiso   1.00
H724   H     0.57591   0.68689   0.20474   0.00000  Uiso   1.00
H725   H     0.56217   0.72183   0.24727   0.00000  Uiso   1.00
H726   H     0.38854   0.93327   0.30664   0.00000  Uiso   1.00
H727   H     0.43732   0.94649   0.25564   0.00000  Uiso   1.00
H728   H     0.55375   0.85168   0.38677   0.00000  Uiso   1.00
H729   H     0.41997   0.98107   0.29829   0.00000  Uiso   1.00
H730   H     0.56839   0.93593   0.29791   0.00000  Uiso   1.00
H731   H     0.54488   0.98278   0.28211   0.00000  Uiso   1.00
H732   H     0.56491   0.94644   0.24155   0.00000  Uiso   1.00
H733   H     0.43053   0.73044   0.20029   0.00000  Uiso   1.00
H734   H     0.43631   0.71920   0.25564   0.00000  Uiso   1.00
H735   H     0.45396   0.68293   0.21484   0.00000  Uiso   1.00
H736   H     0.50857   0.78882   0.34947   0.00000  Uiso   1.00
H737   H     0.51636   0.74684   0.31466   0.00000  Uiso   1.00
H738   H     0.56489   0.77684   0.31266   0.00000  Uiso   1.00
H739   H     0.65280   0.78699   0.11984   0.00000  Uiso   1.00
H740   H     0.48040   0.92187   0.19204   0.00000  Uiso   1.00
H741   H     0.49392   0.88485   0.15194   0.00000  Uiso   1.00
H742   H     0.43524   0.89012   0.18723   0.00000  Uiso   1.00
H743   H     0.39476   0.77611   0.31223   0.00000  Uiso   1.00
H744   H     0.44264   0.74709   0.31605   0.00000  Uiso   1.00
H745   H     0.42625   0.78980   0.34903   0.00000  Uiso   1.00
H746   H     0.60497   0.89104   0.18817   0.00000  Uiso   1.00
H747   H     0.57802   0.87156   0.15048   0.00000  Uiso   1.00
H748   H     0.55807   0.91720   0.17813   0.00000  Uiso   1.00
H749   H     0.34733   0.79149   0.38960   0.00000  Uiso   1.00
H750   H     0.60223   0.82822   0.07102   0.00000  Uiso   1.00
H751   H     0.40952   0.81803   0.42776   0.00000  Uiso   1.00
H752   H     0.34063   0.75345   0.45416   0.00000  Uiso   1.00
H753   H     0.65925   0.74953   0.06149   0.00000  Uiso   1.00
H754   H     0.51109   0.82514   0.11963   0.00000  Uiso   1.00
N755   N     0.45069   0.83334   0.24999   0.00000  Uiso   1.00
N756   N     0.54931   0.83332   0.25001   0.00000  Uiso   1.00
O757   O     0.37291   0.77322   0.25000   0.00000  Uiso   1.00
O758   O     0.39334   0.81657   0.46027   0.00000  Uiso   1.00
O759   O     0.64860   0.76778   0.47580   0.00000  Uiso   1.00
O760   O     0.35299   0.76359   0.03746   0.00000  Uiso   1.00
O761   O     0.62709   0.89345   0.25000   0.00000  Uiso   1.00
O762   O     0.62706   0.77321   0.25000   0.00000  Uiso   1.00
O763   O     0.37294   0.89346   0.25000   0.00000  Uiso   1.00
O764   O     0.35186   0.83334   0.31492   0.00000  Uiso   1.00
O765   O     0.64814   0.83332   0.18508   0.00000  Uiso   1.00
O766   O     0.60600   0.83333   0.31492   0.00000  Uiso   1.00
O767   O     0.39400   0.83333   0.18508   0.00000  Uiso   1.00
O768   O     0.61284   0.81568   0.04244   0.00000  Uiso   1.00
C769   C     0.66804   0.75463   0.24617   0.00000  Uiso   1.00
C770   C     0.71005   0.68731   0.24504   0.00000  Uiso   1.00
C771   C     0.99658   0.95689   0.25783   0.00000  Uiso   1.00
C772   C     0.66957   0.70983   0.24190   0.00000  Uiso   1.00
C773   C     0.84799   0.80780   0.28061   0.00000  Uiso   1.00
C774   C     0.81866   0.85926   0.21971   0.00000  Uiso   1.00
C775   C     0.79881   0.80763   0.28042   0.00000  Uiso   1.00
C776   C     0.86809   0.85872   0.21922   0.00000  Uiso   1.00
C777   C     0.97192   0.83237   0.33546   0.00000  Uiso   1.00
C778   C     0.69463   0.83260   0.16477   0.00000  Uiso   1.00
C779   C     0.95475   0.82794   0.38404   0.00000  Uiso   1.00
C780   C     0.99855   0.91206   0.25375   0.00000  Uiso   1.00
C781   C     0.71177   0.82730   0.11752   0.00000  Uiso   1.00
C782   C     0.96392   0.79893   0.45352   0.00000  Uiso   1.00
C783   C     0.70498   0.79460   0.05417   0.00000  Uiso   1.00
C784   C     0.98149   0.80599   0.40735   0.00000  Uiso   1.00
C785   C     0.68614   0.80206   0.09907   0.00000  Uiso   1.00
C786   C     0.90834   0.83967   0.40684   0.00000  Uiso   1.00
C787   C     0.75835   0.84080   0.09273   0.00000  Uiso   1.00
C788   C     0.89074   0.83488   0.45381   0.00000  Uiso   1.00
C789   C     0.77806   0.83081   0.04911   0.00000  Uiso   1.00
C790   C     0.92238   0.81889   0.47677   0.00000  Uiso   1.00
C791   C     0.86204   0.82184   0.04831   0.00000  Uiso   1.00
C792   C     0.74759   0.81536   0.02773   0.00000  Uiso   1.00
C793   C     0.84184   0.84037   0.47866   0.00000  Uiso   1.00
C794   C     0.82760   0.83306   0.02614   0.00000  Uiso   1.00
C795   C     0.84798   0.80166   0.09600   0.00000  Uiso   1.00
C796   C     0.80620   0.87558   0.41994   0.00000  Uiso   1.00
C797   C     0.92500   0.70909   0.22118   0.00000  Uiso   1.00
C798   C     0.73967   0.95846   0.28071   0.00000  Uiso   1.00
C799   C     0.90597   0.95980   0.26944   0.00000  Uiso   1.00
C800   C     0.76035   0.70628   0.22837   0.00000  Uiso   1.00
C801   C     0.86037   0.77909   0.31596   0.00000  Uiso   1.00
C802   C     0.80462   0.84379   0.45836   0.00000  Uiso   1.00
C803   C     0.80589   0.89008   0.18632   0.00000  Uiso   1.00
C804   C     0.76349   0.77915   0.31599   0.00000  Uiso   1.00
C805   C     0.90427   0.88557   0.18235   0.00000  Uiso   1.00
C806   C     0.91019   0.81914   0.02288   0.00000  Uiso   1.00
C807   C     0.76034   0.82304   0.48121   0.00000  Uiso   1.00
C808   C     0.96125   0.68843   0.24118   0.00000  Uiso   1.00
C809   C     0.70458   0.97841   0.25889   0.00000  Uiso   1.00
C810   C     0.95607   0.97930   0.25425   0.00000  Uiso   1.00
Cu811  Cu    0.71355   0.83334   0.25000   0.00000  Uiso   1.00
Cu812  Cu    0.95311   0.83333   0.25000   0.00000  Uiso   1.00
H813   H     0.77960   0.85823   0.10759   0.00000  Uiso   1.00
H814   H     0.81450   0.78264   0.10445   0.00000  Uiso   1.00
H815   H     0.87521   0.77951   0.10114   0.00000  Uiso   1.00
H816   H     0.83526   0.89905   0.41475   0.00000  Uiso   1.00
H817   H     0.81037   0.86062   0.38902   0.00000  Uiso   1.00
H818   H     0.77217   0.89272   0.42758   0.00000  Uiso   1.00
H819   H     0.94252   0.73380   0.19451   0.00000  Uiso   1.00
H820   H     0.90924   0.68689   0.20474   0.00000  Uiso   1.00
H821   H     0.89551   0.72183   0.24727   0.00000  Uiso   1.00
H822   H     0.72187   0.93327   0.30664   0.00000  Uiso   1.00
H823   H     0.77066   0.94649   0.25564   0.00000  Uiso   1.00
H824   H     0.88709   0.85168   0.38677   0.00000  Uiso   1.00
H825   H     0.75330   0.98107   0.29829   0.00000  Uiso   1.00
H826   H     0.90172   0.93593   0.29791   0.00000  Uiso   1.00
H827   H     0.87821   0.98278   0.28211   0.00000  Uiso   1.00
H828   H     0.89825   0.94644   0.24155   0.00000  Uiso   1.00
H829   H     0.76387   0.73044   0.20029   0.00000  Uiso   1.00
H830   H     0.76965   0.71920   0.25564   0.00000  Uiso   1.00
H831   H     0.78730   0.68293   0.21484   0.00000  Uiso   1.00
H832   H     0.84191   0.78882   0.34947   0.00000  Uiso   1.00
H833   H     0.84970   0.74684   0.31466   0.00000  Uiso   1.00
H834   H     0.89822   0.77684   0.31266   0.00000  Uiso   1.00
H835   H     0.98614   0.78699   0.11984   0.00000  Uiso   1.00
H836   H     0.81373   0.92187   0.19204   0.00000  Uiso   1.00
H837   H     0.82726   0.88485   0.15194   0.00000  Uiso   1.00
H838   H     0.76858   0.89012   0.18723   0.00000  Uiso   1.00
H839   H     0.72809   0.77611   0.31223   0.00000  Uiso   1.00
H840   H     0.77597   0.74709   0.31605   0.00000  Uiso   1.00
H841   H     0.75958   0.78980   0.34903   0.00000  Uiso   1.00
H842   H     0.93830   0.89104   0.18817   0.00000  Uiso   1.00
H843   H     0.91135   0.87156   0.15048   0.00000  Uiso   1.00
H844   H     0.89140   0.91720   0.17813   0.00000  Uiso   1.00
H845   H     0.68066   0.79149   0.38960   0.00000  Uiso   1.00
H846   H     0.93556   0.82822   0.07102   0.00000  Uiso   1.00
H847   H     0.74285   0.81803   0.42776   0.00000  Uiso   1.00
H848   H     0.67396   0.75345   0.45416   0.00000  Uiso   1.00
H849   H     0.99258   0.74953   0.06149   0.00000  Uiso   1.00
H850   H     0.84442   0.82514   0.11963   0.00000  Uiso   1.00
N851   N     0.78403   0.83334   0.24999   0.00000  Uiso   1.00
N852   N     0.88264   0.83332   0.25001   0.00000  Uiso   1.00
O853   O     0.70625   0.77322   0.25000   0.00000  Uiso   1.00
O854   O     0.72667   0.81657   0.46027   0.00000  Uiso   1.00
O855   O     0.98194   0.76778   0.47580   0.00000  Uiso   1.00
O856   O     0.68632   0.76359   0.03746   0.00000  Uiso   1.00
O857   O     0.96042   0.89345   0.25000   0.00000  Uiso   1.00
O858   O     0.96039   0.77321   0.25000   0.00000  Uiso   1.00
O859   O     0.70628   0.89346   0.25000   0.00000  Uiso   1.00
O860   O     0.68519   0.83334   0.31492   0.00000  Uiso   1.00
O861   O     0.98148   0.83332   0.18508   0.00000  Uiso   1.00
O862   O     0.93933   0.83333   0.31492   0.00000  Uiso   1.00
O863   O     0.72733   0.83333   0.18508   0.00000  Uiso   1.00
O864   O     0.94617   0.81568   0.04244   0.00000  Uiso   1.00
C865   C     0.00138   0.08796   0.74617   0.00000  Uiso   1.00
C866   C     0.04338   0.02065   0.74504   0.00000  Uiso   1.00
C867   C     0.32992   0.29023   0.75783   0.00000  Uiso   1.00
C868   C     0.00290   0.04316   0.74190   0.00000  Uiso   1.00
C869   C     0.18133   0.14113   0.78061   0.00000  Uiso   1.00
C870   C     0.15199   0.19259   0.71971   0.00000  Uiso   1.00
C871   C     0.13215   0.14096   0.78042   0.00000  Uiso   1.00
C872   C     0.20143   0.19205   0.71922   0.00000  Uiso   1.00
C873   C     0.30526   0.16570   0.83546   0.00000  Uiso   1.00
C874   C     0.02796   0.16594   0.66477   0.00000  Uiso   1.00
C875   C     0.28808   0.16127   0.88404   0.00000  Uiso   1.00
C876   C     0.33188   0.24539   0.75375   0.00000  Uiso   1.00
C877   C     0.04510   0.16063   0.61752   0.00000  Uiso   1.00
C878   C     0.29726   0.13227   0.95352   0.00000  Uiso   1.00
C879   C     0.03831   0.12793   0.55417   0.00000  Uiso   1.00
C880   C     0.31482   0.13932   0.90735   0.00000  Uiso   1.00
C881   C     0.01947   0.13539   0.59907   0.00000  Uiso   1.00
C882   C     0.24168   0.17300   0.90684   0.00000  Uiso   1.00
C883   C     0.09168   0.17413   0.59273   0.00000  Uiso   1.00
C884   C     0.22407   0.16822   0.95381   0.00000  Uiso   1.00
C885   C     0.11139   0.16414   0.54911   0.00000  Uiso   1.00
C886   C     0.25572   0.15222   0.97677   0.00000  Uiso   1.00
C887   C     0.19537   0.15518   0.54831   0.00000  Uiso   1.00
C888   C     0.08092   0.14870   0.52773   0.00000  Uiso   1.00
C889   C     0.17518   0.17370   0.97866   0.00000  Uiso   1.00
C890   C     0.16093   0.16640   0.52614   0.00000  Uiso   1.00
C891   C     0.18131   0.13500   0.59600   0.00000  Uiso   1.00
C892   C     0.13953   0.20891   0.91994   0.00000  Uiso   1.00
C893   C     0.25833   0.04242   0.72118   0.00000  Uiso   1.00
C894   C     0.07300   0.29179   0.78071   0.00000  Uiso   1.00
C895   C     0.23930   0.29314   0.76944   0.00000  Uiso   1.00
C896   C     0.09368   0.03961   0.72837   0.00000  Uiso   1.00
C897   C     0.19370   0.11242   0.81596   0.00000  Uiso   1.00
C898   C     0.13795   0.17712   0.95836   0.00000  Uiso   1.00
C899   C     0.13922   0.22341   0.68632   0.00000  Uiso   1.00
C900   C     0.09682   0.11248   0.81599   0.00000  Uiso   1.00
C901   C     0.23760   0.21890   0.68235   0.00000  Uiso   1.00
C902   C     0.24352   0.15247   0.52288   0.00000  Uiso   1.00
C903   C     0.09368   0.15637   0.98121   0.00000  Uiso   1.00
C904   C     0.29458   0.02176   0.74118   0.00000  Uiso   1.00
C905   C     0.03792   0.31175   0.75889   0.00000  Uiso   1.00
C906   C     0.28941   0.31264   0.75425   0.00000  Uiso   1.00
Cu907  Cu    0.04689   0.16667   0.75000   0.00000  Uiso   1.00
Cu908  Cu    0.28645   0.16666   0.75000   0.00000  Uiso   1.00
H909   H     0.11294   0.19156   0.60759   0.00000  Uiso   1.00
H910   H     0.14784   0.11597   0.60445   0.00000  Uiso   1.00
H911   H     0.20854   0.11285   0.60114   0.00000  Uiso   1.00
H912   H     0.16859   0.23239   0.91475   0.00000  Uiso   1.00
H913   H     0.14371   0.19395   0.88902   0.00000  Uiso   1.00
H914   H     0.10550   0.22605   0.92758   0.00000  Uiso   1.00
H915   H     0.27585   0.06713   0.69451   0.00000  Uiso   1.00
H916   H     0.24257   0.02022   0.70474   0.00000  Uiso   1.00
H917   H     0.22884   0.05516   0.74727   0.00000  Uiso   1.00
H918   H     0.05521   0.26660   0.80664   0.00000  Uiso   1.00
H919   H     0.10399   0.27982   0.75564   0.00000  Uiso   1.00
H920   H     0.22042   0.18501   0.88677   0.00000  Uiso   1.00
H921   H     0.08664   0.31441   0.79829   0.00000  Uiso   1.00
H922   H     0.23506   0.26926   0.79791   0.00000  Uiso   1.00
H923   H     0.21154   0.31611   0.78211   0.00000  Uiso   1.00
H924   H     0.23158   0.27977   0.74155   0.00000  Uiso   1.00
H925   H     0.09720   0.06378   0.70029   0.00000  Uiso   1.00
H926   H     0.10298   0.05253   0.75564   0.00000  Uiso   1.00
H927   H     0.12063   0.01627   0.71484   0.00000  Uiso   1.00
H928   H     0.17524   0.12215   0.84947   0.00000  Uiso   1.00
H929   H     0.18303   0.08018   0.81466   0.00000  Uiso   1.00
H930   H     0.23155   0.11017   0.81266   0.00000  Uiso   1.00
H931   H     0.31947   0.12033   0.61984   0.00000  Uiso   1.00
H932   H     0.14706   0.25521   0.69204   0.00000  Uiso   1.00
H933   H     0.16059   0.21818   0.65194   0.00000  Uiso   1.00
H934   H     0.10191   0.22345   0.68723   0.00000  Uiso   1.00
H935   H     0.06143   0.10945   0.81223   0.00000  Uiso   1.00
H936   H     0.10931   0.08042   0.81605   0.00000  Uiso   1.00
H937   H     0.09291   0.12314   0.84903   0.00000  Uiso   1.00
H938   H     0.27163   0.22437   0.68817   0.00000  Uiso   1.00
H939   H     0.24469   0.20489   0.65048   0.00000  Uiso   1.00
H940   H     0.22474   0.25053   0.67813   0.00000  Uiso   1.00
H941   H     0.01400   0.12483   0.88960   0.00000  Uiso   1.00
H942   H     0.26889   0.16156   0.57102   0.00000  Uiso   1.00
H943   H     0.07618   0.15136   0.92776   0.00000  Uiso   1.00
H944   H     0.00729   0.08678   0.95416   0.00000  Uiso   1.00
H945   H     0.32591   0.08286   0.56149   0.00000  Uiso   1.00
H946   H     0.17776   0.15847   0.61963   0.00000  Uiso   1.00
N947   N     0.11736   0.16668   0.74999   0.00000  Uiso   1.00
N948   N     0.21597   0.16666   0.75001   0.00000  Uiso   1.00
O949   O     0.03958   0.10655   0.75000   0.00000  Uiso   1.00
O950   O     0.06000   0.14990   0.96027   0.00000  Uiso   1.00
O951   O     0.31527   0.10111   0.97580   0.00000  Uiso   1.00
O952   O     0.01965   0.09693   0.53746   0.00000  Uiso   1.00
O953   O     0.29375   0.22678   0.75000   0.00000  Uiso   1.00
O954   O     0.29372   0.10654   0.75000   0.00000  Uiso   1.00
O955   O     0.03961   0.22679   0.75000   0.00000  Uiso   1.00
O956   O     0.01852   0.16668   0.81492   0.00000  Uiso   1.00
O957   O     0.31481   0.16666   0.68508   0.00000  Uiso   1.00
O958   O     0.27267   0.16667   0.81492   0.00000  Uiso   1.00
O959   O     0.06067   0.16667   0.68508   0.00000  Uiso   1.00
O960   O     0.27950   0.14902   0.54244   0.00000  Uiso   1.00
C961   C     0.33471   0.08796   0.74617   0.00000  Uiso   1.00
C962   C     0.37671   0.02065   0.74504   0.00000  Uiso   1.00
C963   C     0.66325   0.29023   0.75783   0.00000  Uiso   1.00
C964   C     0.33623   0.04316   0.74190   0.00000  Uiso   1.00
C965   C     0.51466   0.14113   0.78061   0.00000  Uiso   1.00
C966   C     0.48533   0.19259   0.71971   0.00000  Uiso   1.00
C967   C     0.46548   0.14096   0.78042   0.00000  Uiso   1.00
C968   C     0.53476   0.19205   0.71922   0.00000  Uiso   1.00
C969   C     0.63859   0.16570   0.83546   0.00000  Uiso   1.00
C970   C     0.36130   0.16594   0.66477   0.00000  Uiso   1.00
C971   C     0.62141   0.16127   0.88404   0.00000  Uiso   1.00
C972   C     0.66521   0.24539   0.75375   0.00000  Uiso   1.00
C973   C     0.37844   0.16063   0.61752   0.00000  Uiso   1.00
C974   C     0.63059   0.13227   0.95352   0.00000  Uiso   1.00
C975   C     0.37164   0.12793   0.55417   0.00000  Uiso   1.00
C976   C     0.64815   0.13932   0.90735   0.00000  Uiso   1.00
C977   C     0.35280   0.13539   0.59907   0.00000  Uiso   1.00
C978   C     0.57501   0.17300   0.90684   0.00000  Uiso   1.00
C979   C     0.42502   0.17413   0.59273   0.00000  Uiso   1.00
C980   C     0.55741   0.16822   0.95381   0.00000  Uiso   1.00
C981   C     0.44472   0.16414   0.54911   0.00000  Uiso   1.00
C982   C     0.58905   0.15222   0.97677   0.00000  Uiso   1.00
C983   C     0.52870   0.15518   0.54831   0.00000  Uiso   1.00
C984   C     0.41426   0.14870   0.52773   0.00000  Uiso   1.00
C985   C     0.50851   0.17370   0.97866   0.00000  Uiso   1.00
C986   C     0.49426   0.16640   0.52614   0.00000  Uiso   1.00
C987   C     0.51464   0.13500   0.59600   0.00000  Uiso   1.00
C988   C     0.47286   0.20891   0.91994   0.00000  Uiso   1.00
C989   C     0.59166   0.04242   0.72118   0.00000  Uiso   1.00
C990   C     0.40634   0.29179   0.78071   0.00000  Uiso   1.00
C991   C     0.57263   0.29314   0.76944   0.00000  Uiso   1.00
C992   C     0.42702   0.03961   0.72837   0.00000  Uiso   1.00
C993   C     0.52703   0.11242   0.81596   0.00000  Uiso   1.00
C994   C     0.47129   0.17712   0.95836   0.00000  Uiso   1.00
C995   C     0.47255   0.22341   0.68632   0.00000  Uiso   1.00
C996   C     0.43016   0.11248   0.81599   0.00000  Uiso   1.00
C997   C     0.57094   0.21890   0.68235   0.00000  Uiso   1.00
C998   C     0.57686   0.15247   0.52288   0.00000  Uiso   1.00
C999   C     0.42701   0.15637   0.98121   0.00000  Uiso   1.00
C1000  C     0.62791   0.02176   0.74118   0.00000  Uiso   1.00
C1001  C     0.37125   0.31175   0.75889   0.00000  Uiso   1.00
C1002  C     0.62274   0.31264   0.75425   0.00000  Uiso   1.00
Cu1003 Cu    0.38022   0.16667   0.75000   0.00000  Uiso   1.00
Cu1004 Cu    0.61978   0.16666   0.75000   0.00000  Uiso   1.00
H1005  H     0.44627   0.19156   0.60759   0.00000  Uiso   1.00
H1006  H     0.48117   0.11597   0.60445   0.00000  Uiso   1.00
H1007  H     0.54188   0.11285   0.60114   0.00000  Uiso   1.00
H1008  H     0.50193   0.23239   0.91475   0.00000  Uiso   1.00
H1009  H     0.47704   0.19395   0.88902   0.00000  Uiso   1.00
H1010  H     0.43884   0.22605   0.92758   0.00000  Uiso   1.00
H1011  H     0.60918   0.06713   0.69451   0.00000  Uiso   1.00
H1012  H     0.57591   0.02022   0.70474   0.00000  Uiso   1.00
H1013  H     0.56217   0.05516   0.74727   0.00000  Uiso   1.00
H1014  H     0.38854   0.26660   0.80664   0.00000  Uiso   1.00
H1015  H     0.43732   0.27982   0.75564   0.00000  Uiso   1.00
H1016  H     0.55375   0.18501   0.88677   0.00000  Uiso   1.00
H1017  H     0.41997   0.31441   0.79829   0.00000  Uiso   1.00
H1018  H     0.56839   0.26926   0.79791   0.00000  Uiso   1.00
H1019  H     0.54488   0.31611   0.78211   0.00000  Uiso   1.00
H1020  H     0.56491   0.27977   0.74155   0.00000  Uiso   1.00
H1021  H     0.43053   0.06378   0.70029   0.00000  Uiso   1.00
H1022  H     0.43631   0.05253   0.75564   0.00000  Uiso   1.00
H1023  H     0.45396   0.01627   0.71484   0.00000  Uiso   1.00
H1024  H     0.50857   0.12215   0.84947   0.00000  Uiso   1.00
H1025  H     0.51636   0.08018   0.81466   0.00000  Uiso   1.00
H1026  H     0.56489   0.11017   0.81266   0.00000  Uiso   1.00
H1027  H     0.65280   0.12033   0.61984   0.00000  Uiso   1.00
H1028  H     0.48040   0.25521   0.69204   0.00000  Uiso   1.00
H1029  H     0.49392   0.21818   0.65194   0.00000  Uiso   1.00
H1030  H     0.43524   0.22345   0.68723   0.00000  Uiso   1.00
H1031  H     0.39476   0.10945   0.81223   0.00000  Uiso   1.00
H1032  H     0.44264   0.08042   0.81605   0.00000  Uiso   1.00
H1033  H     0.42625   0.12314   0.84903   0.00000  Uiso   1.00
H1034  H     0.60497   0.22437   0.68817   0.00000  Uiso   1.00
H1035  H     0.57802   0.20489   0.65048   0.00000  Uiso   1.00
H1036  H     0.55807   0.25053   0.67813   0.00000  Uiso   1.00
H1037  H     0.34733   0.12483   0.88960   0.00000  Uiso   1.00
H1038  H     0.60223   0.16156   0.57102   0.00000  Uiso   1.00
H1039  H     0.40952   0.15136   0.92776   0.00000  Uiso   1.00
H1040  H     0.34063   0.08678   0.95416   0.00000  Uiso   1.00
H1041  H     0.65925   0.08286   0.56149   0.00000  Uiso   1.00
H1042  H     0.51109   0.15847   0.61963   0.00000  Uiso   1.00
N1043  N     0.45069   0.16668   0.74999   0.00000  Uiso   1.00
N1044  N     0.54931   0.16666   0.75001   0.00000  Uiso   1.00
O1045  O     0.37291   0.10655   0.75000   0.00000  Uiso   1.00
O1046  O     0.39334   0.14990   0.96027   0.00000  Uiso   1.00
O1047  O     0.64860   0.10111   0.97580   0.00000  Uiso   1.00
O1048  O     0.35299   0.09693   0.53746   0.00000  Uiso   1.00
O1049  O     0.62709   0.22678   0.75000   0.00000  Uiso   1.00
O1050  O     0.62706   0.10654   0.75000   0.00000  Uiso   1.00
O1051  O     0.37294   0.22679   0.75000   0.00000  Uiso   1.00
O1052  O     0.35186   0.16668   0.81492   0.00000  Uiso   1.00
O1053  O     0.64814   0.16666   0.68508   0.00000  Uiso   1.00
O1054  O     0.60600   0.16667   0.81492   0.00000  Uiso   1.00
O1055  O     0.39400   0.16667   0.68508   0.00000  Uiso   1.00
O1056  O     0.61284   0.14902   0.54244   0.00000  Uiso   1.00
C1057  C     0.66804   0.08796   0.74617   0.00000  Uiso   1.00
C1058  C     0.71005   0.02065   0.74504   0.00000  Uiso   1.00
C1059  C     0.99658   0.29023   0.75783   0.00000  Uiso   1.00
C1060  C     0.66957   0.04316   0.74190   0.00000  Uiso   1.00
C1061  C     0.84799   0.14113   0.78061   0.00000  Uiso   1.00
C1062  C     0.81866   0.19259   0.71971   0.00000  Uiso   1.00
C1063  C     0.79881   0.14096   0.78042   0.00000  Uiso   1.00
C1064  C     0.86809   0.19205   0.71922   0.00000  Uiso   1.00
C1065  C     0.97192   0.16570   0.83546   0.00000  Uiso   1.00
C1066  C     0.69463   0.16594   0.66477   0.00000  Uiso   1.00
C1067  C     0.95475   0.16127   0.88404   0.00000  Uiso   1.00
C1068  C     0.99855   0.24539   0.75375   0.00000  Uiso   1.00
C1069  C     0.71177   0.16063   0.61752   0.00000  Uiso   1.00
C1070  C     0.96392   0.13227   0.95352   0.00000  Uiso   1.00
C1071  C     0.70498   0.12793   0.55417   0.00000  Uiso   1.00
C1072  C     0.98149   0.13932   0.90735   0.00000  Uiso   1.00
C1073  C     0.68614   0.13539   0.59907   0.00000  Uiso   1.00
C1074  C     0.90834   0.17300   0.90684   0.00000  Uiso   1.00
C1075  C     0.75835   0.17413   0.59273   0.00000  Uiso   1.00
C1076  C     0.89074   0.16822   0.95381   0.00000  Uiso   1.00
C1077  C     0.77806   0.16414   0.54911   0.00000  Uiso   1.00
C1078  C     0.92238   0.15222   0.97677   0.00000  Uiso   1.00
C1079  C     0.86204   0.15518   0.54831   0.00000  Uiso   1.00
C1080  C     0.74759   0.14870   0.52773   0.00000  Uiso   1.00
C1081  C     0.84184   0.17370   0.97866   0.00000  Uiso   1.00
C1082  C     0.82760   0.16640   0.52614   0.00000  Uiso   1.00
C1083  C     0.84798   0.13500   0.59600   0.00000  Uiso   1.00
C1084  C     0.80620   0.20891   0.91994   0.00000  Uiso   1.00
C1085  C     0.92500   0.04242   0.72118   0.00000  Uiso   1.00
C1086  C     0.73967   0.29179   0.78071   0.00000  Uiso   1.00
C1087  C     0.90597   0.29314   0.76944   0.00000  Uiso   1.00
C1088  C     0.76035   0.03961   0.72837   0.00000  Uiso   1.00
C1089  C     0.86037   0.11242   0.81596   0.00000  Uiso   1.00
C1090  C     0.80462   0.17712   0.95836   0.00000  Uiso   1.00
C1091  C     0.80589   0.22341   0.68632   0.00000  Uiso   1.00
C1092  C     0.76349   0.11248   0.81599   0.00000  Uiso   1.00
C1093  C     0.90427   0.21890   0.68235   0.00000  Uiso   1.00
C1094  C     0.91019   0.15247   0.52288   0.00000  Uiso   1.00
C1095  C     0.76034   0.15637   0.98121   0.00000  Uiso   1.00
C1096  C     0.96125   0.02176   0.74118   0.00000  Uiso   1.00
C1097  C     0.70458   0.31175   0.75889   0.00000  Uiso   1.00
C1098  C     0.95607   0.31264   0.75425   0.00000  Uiso   1.00
Cu1099 Cu    0.71355   0.16667   0.75000   0.00000  Uiso   1.00
Cu1100 Cu    0.95311   0.16666   0.75000   0.00000  Uiso   1.00
H1101  H     0.77960   0.19156   0.60759   0.00000  Uiso   1.00
H1102  H     0.81450   0.11597   0.60445   0.00000  Uiso   1.00
H1103  H     0.87521   0.11285   0.60114   0.00000  Uiso   1.00
H1104  H     0.83526   0.23239   0.91475   0.00000  Uiso   1.00
H1105  H     0.81037   0.19395   0.88902   0.00000  Uiso   1.00
H1106  H     0.77217   0.22605   0.92758   0.00000  Uiso   1.00
H1107  H     0.94252   0.06713   0.69451   0.00000  Uiso   1.00
H1108  H     0.90924   0.02022   0.70474   0.00000  Uiso   1.00
H1109  H     0.89551   0.05516   0.74727   0.00000  Uiso   1.00
H1110  H     0.72187   0.26660   0.80664   0.00000  Uiso   1.00
H1111  H     0.77066   0.27982   0.75564   0.00000  Uiso   1.00
H1112  H     0.88709   0.18501   0.88677   0.00000  Uiso   1.00
H1113  H     0.75330   0.31441   0.79829   0.00000  Uiso   1.00
H1114  H     0.90172   0.26926   0.79791   0.00000  Uiso   1.00
H1115  H     0.87821   0.31611   0.78211   0.00000  Uiso   1.00
H1116  H     0.89825   0.27977   0.74155   0.00000  Uiso   1.00
H1117  H     0.76387   0.06378   0.70029   0.00000  Uiso   1.00
H1118  H     0.76965   0.05253   0.75564   0.00000  Uiso   1.00
H1119  H     0.78730   0.01627   0.71484   0.00000  Uiso   1.00
H1120  H     0.84191   0.12215   0.84947   0.00000  Uiso   1.00
H1121  H     0.84970   0.08018   0.81466   0.00000  Uiso   1.00
H1122  H     0.89822   0.11017   0.81266   0.00000  Uiso   1.00
H1123  H     0.98614   0.12033   0.61984   0.00000  Uiso   1.00
H1124  H     0.81373   0.25521   0.69204   0.00000  Uiso   1.00
H1125  H     0.82726   0.21818   0.65194   0.00000  Uiso   1.00
H1126  H     0.76858   0.22345   0.68723   0.00000  Uiso   1.00
H1127  H     0.72809   0.10945   0.81223   0.00000  Uiso   1.00
H1128  H     0.77597   0.08042   0.81605   0.00000  Uiso   1.00
H1129  H     0.75958   0.12314   0.84903   0.00000  Uiso   1.00
H1130  H     0.93830   0.22437   0.68817   0.00000  Uiso   1.00
H1131  H     0.91135   0.20489   0.65048   0.00000  Uiso   1.00
H1132  H     0.89140   0.25053   0.67813   0.00000  Uiso   1.00
H1133  H     0.68066   0.12483   0.88960   0.00000  Uiso   1.00
H1134  H     0.93556   0.16156   0.57102   0.00000  Uiso   1.00
H1135  H     0.74285   0.15136   0.92776   0.00000  Uiso   1.00
H1136  H     0.67396   0.08678   0.95416   0.00000  Uiso   1.00
H1137  H     0.99258   0.08286   0.56149   0.00000  Uiso   1.00
H1138  H     0.84442   0.15847   0.61963   0.00000  Uiso   1.00
N1139  N     0.78403   0.16668   0.74999   0.00000  Uiso   1.00
N1140  N     0.88264   0.16666   0.75001   0.00000  Uiso   1.00
O1141  O     0.70625   0.10655   0.75000   0.00000  Uiso   1.00
O1142  O     0.72667   0.14990   0.96027   0.00000  Uiso   1.00
O1143  O     0.98194   0.10111   0.97580   0.00000  Uiso   1.00
O1144  O     0.68632   0.09693   0.53746   0.00000  Uiso   1.00
O1145  O     0.96042   0.22678   0.75000   0.00000  Uiso   1.00
O1146  O     0.96039   0.10654   0.75000   0.00000  Uiso   1.00
O1147  O     0.70628   0.22679   0.75000   0.00000  Uiso   1.00
O1148  O     0.68519   0.16668   0.81492   0.00000  Uiso   1.00
O1149  O     0.98148   0.16666   0.68508   0.00000  Uiso   1.00
O1150  O     0.93933   0.16667   0.81492   0.00000  Uiso   1.00
O1151  O     0.72733   0.16667   0.68508   0.00000  Uiso   1.00
O1152  O     0.94617   0.14902   0.54244   0.00000  Uiso   1.00
C1153  C     0.00138   0.42129   0.74617   0.00000  Uiso   1.00
C1154  C     0.04338   0.35398   0.74504   0.00000  Uiso   1.00
C1155  C     0.32992   0.62356   0.75783   0.00000  Uiso   1.00
C1156  C     0.00290   0.37650   0.74190   0.00000  Uiso   1.00
C1157  C     0.18133   0.47446   0.78061   0.00000  Uiso   1.00
C1158  C     0.15199   0.52592   0.71971   0.00000  Uiso   1.00
C1159  C     0.13215   0.47429   0.78042   0.00000  Uiso   1.00
C1160  C     0.20143   0.52539   0.71922   0.00000  Uiso   1.00
C1161  C     0.30526   0.49903   0.83546   0.00000  Uiso   1.00
C1162  C     0.02796   0.49927   0.66477   0.00000  Uiso   1.00
C1163  C     0.28808   0.49461   0.88404   0.00000  Uiso   1.00
C1164  C     0.33188   0.57873   0.75375   0.00000  Uiso   1.00
C1165  C     0.04510   0.49396   0.61752   0.00000  Uiso   1.00
C1166  C     0.29726   0.46560   0.95352   0.00000  Uiso   1.00
C1167  C     0.03831   0.46126   0.55417   0.00000  Uiso   1.00
C1168  C     0.31482   0.47265   0.90735   0.00000  Uiso   1.00
C1169  C     0.01947   0.46873   0.59907   0.00000  Uiso   1.00
C1170  C     0.24168   0.50634   0.90684   0.00000  Uiso   1.00
C1171  C     0.09168   0.50747   0.59273   0.00000  Uiso   1.00
C1172  C     0.22407   0.50155   0.95381   0.00000  Uiso   1.00
C1173  C     0.11139   0.49747   0.54911   0.00000  Uiso   1.00
C1174  C     0.25572   0.48555   0.97677   0.00000  Uiso   1.00
C1175  C     0.19537   0.48851   0.54831   0.00000  Uiso   1.00
C1176  C     0.08092   0.48203   0.52773   0.00000  Uiso   1.00
C1177  C     0.17518   0.50704   0.97866   0.00000  Uiso   1.00
C1178  C     0.16093   0.49973   0.52614   0.00000  Uiso   1.00
C1179  C     0.18131   0.46833   0.59600   0.00000  Uiso   1.00
C1180  C     0.13953   0.54225   0.91994   0.00000  Uiso   1.00
C1181  C     0.25833   0.37576   0.72118   0.00000  Uiso   1.00
C1182  C     0.07300   0.62512   0.78071   0.00000  Uiso   1.00
C1183  C     0.23930   0.62647   0.76944   0.00000  Uiso   1.00
C1184  C     0.09368   0.37294   0.72837   0.00000  Uiso   1.00
C1185  C     0.19370   0.44576   0.81596   0.00000  Uiso   1.00
C1186  C     0.13795   0.51045   0.95836   0.00000  Uiso   1.00
C1187  C     0.13922   0.55674   0.68632   0.00000  Uiso   1.00
C1188  C     0.09682   0.44581   0.81599   0.00000  Uiso   1.00
C1189  C     0.23760   0.55224   0.68235   0.00000  Uiso   1.00
C1190  C     0.24352   0.48581   0.52288   0.00000  Uiso   1.00
C1191  C     0.09368   0.48970   0.98121   0.00000  Uiso   1.00
C1192  C     0.29458   0.35509   0.74118   0.00000  Uiso   1.00
C1193  C     0.03792   0.64508   0.75889   0.00000  Uiso   1.00
C1194  C     0.28941   0.64597   0.75425   0.00000  Uiso   1.00
Cu1195 Cu    0.04689   0.50001   0.75000   0.00000  Uiso   1.00
Cu1196 Cu    0.28645   0.49999   0.75000   0.00000  Uiso   1.00
H1197  H     0.11294   0.52489   0.60759   0.00000  Uiso   1.00
H1198  H     0.14784   0.44930   0.60445   0.00000  Uiso   1.00
H1199  H     0.20854   0.44618   0.60114   0.00000  Uiso   1.00
H1200  H     0.16859   0.56572   0.91475   0.00000  Uiso   1.00
H1201  H     0.14371   0.52728   0.88902   0.00000  Uiso   1.00
H1202  H     0.10550   0.55938   0.92758   0.00000  Uiso   1.00
H1203  H     0.27585   0.40046   0.69451   0.00000  Uiso   1.00
H1204  H     0.24257   0.35356   0.70474   0.00000  Uiso   1.00
H1205  H     0.22884   0.38849   0.74727   0.00000  Uiso   1.00
H1206  H     0.05521   0.59993   0.80664   0.00000  Uiso   1.00
H1207  H     0.10399   0.61316   0.75564   0.00000  Uiso   1.00
H1208  H     0.22042   0.51834   0.88677   0.00000  Uiso   1.00
H1209  H     0.08664   0.64774   0.79829   0.00000  Uiso   1.00
H1210  H     0.23506   0.60260   0.79791   0.00000  Uiso   1.00
H1211  H     0.21154   0.64944   0.78211   0.00000  Uiso   1.00
H1212  H     0.23158   0.61311   0.74155   0.00000  Uiso   1.00
H1213  H     0.09720   0.39711   0.70029   0.00000  Uiso   1.00
H1214  H     0.10298   0.38586   0.75564   0.00000  Uiso   1.00
H1215  H     0.12063   0.34960   0.71484   0.00000  Uiso   1.00
H1216  H     0.17524   0.45549   0.84947   0.00000  Uiso   1.00
H1217  H     0.18303   0.41351   0.81466   0.00000  Uiso   1.00
H1218  H     0.23155   0.44350   0.81266   0.00000  Uiso   1.00
H1219  H     0.31947   0.45366   0.61984   0.00000  Uiso   1.00
H1220  H     0.14706   0.58854   0.69204   0.00000  Uiso   1.00
H1221  H     0.16059   0.55152   0.65194   0.00000  Uiso   1.00
H1222  H     0.10191   0.55679   0.68723   0.00000  Uiso   1.00
H1223  H     0.06143   0.44278   0.81223   0.00000  Uiso   1.00
H1224  H     0.10931   0.41376   0.81605   0.00000  Uiso   1.00
H1225  H     0.09291   0.45647   0.84903   0.00000  Uiso   1.00
H1226  H     0.27163   0.55770   0.68817   0.00000  Uiso   1.00
H1227  H     0.24469   0.53823   0.65048   0.00000  Uiso   1.00
H1228  H     0.22474   0.58387   0.67813   0.00000  Uiso   1.00
H1229  H     0.01400   0.45816   0.88960   0.00000  Uiso   1.00
H1230  H     0.26889   0.49489   0.57102   0.00000  Uiso   1.00
H1231  H     0.07618   0.48470   0.92776   0.00000  Uiso   1.00
H1232  H     0.00729   0.42012   0.95416   0.00000  Uiso   1.00
H1233  H     0.32591   0.41619   0.56149   0.00000  Uiso   1.00
H1234  H     0.17776   0.49181   0.61963   0.00000  Uiso   1.00
N1235  N     0.11736   0.50001   0.74999   0.00000  Uiso   1.00
N1236  N     0.21597   0.49999   0.75001   0.00000  Uiso   1.00
O1237  O     0.03958   0.43989   0.75000   0.00000  Uiso   1.00
O1238  O     0.06000   0.48324   0.96027   0.00000  Uiso   1.00
O1239  O     0.31527   0.43445   0.97580   0.00000  Uiso   1.00
O1240  O     0.01965   0.43026   0.53746   0.00000  Uiso   1.00
O1241  O     0.29375   0.56011   0.75000   0.00000  Uiso   1.00
O1242  O     0.29372   0.43988   0.75000   0.00000  Uiso   1.00
O1243  O     0.03961   0.56012   0.75000   0.00000  Uiso   1.00
O1244  O     0.01852   0.50001   0.81492   0.00000  Uiso   1.00
O1245  O     0.31481   0.49999   0.68508   0.00000  Uiso   1.00
O1246  O     0.27267   0.50000   0.81492   0.00000  Uiso   1.00
O1247  O     0.06067   0.50000   0.68508   0.00000  Uiso   1.00
O1248  O     0.27950   0.48235   0.54244   0.00000  Uiso   1.00
C1249  C     0.33471   0.42129   0.74617   0.00000  Uiso   1.00
C1250  C     0.37671   0.35398   0.74504   0.00000  Uiso   1.00
C1251  C     0.66325   0.62356   0.75783   0.00000  Uiso   1.00
C1252  C     0.33623   0.37650   0.74190   0.00000  Uiso   1.00
C1253  C     0.51466   0.47446   0.78061   0.00000  Uiso   1.00
C1254  C     0.48533   0.52592   0.71971   0.00000  Uiso   1.00
C1255  C     0.46548   0.47429   0.78042   0.00000  Uiso   1.00
C1256  C     0.53476   0.52539   0.71922   0.00000  Uiso   1.00
C1257  C     0.63859   0.49903   0.83546   0.00000  Uiso   1.00
C1258  C     0.36130   0.49927   0.66477   0.00000  Uiso   1.00
C1259  C     0.62141   0.49461   0.88404   0.00000  Uiso   1.00
C1260  C     0.66521   0.57873   0.75375   0.00000  Uiso   1.00
C1261  C     0.37844   0.49396   0.61752   0.00000  Uiso   1.00
C1262  C     0.63059   0.46560   0.95352   0.00000  Uiso   1.00
C1263  C     0.37164   0.46126   0.55417   0.00000  Uiso   1.00
C1264  C     0.64815   0.47265   0.90735   0.00000  Uiso   1.00
C1265  C     0.35280   0.46873   0.59907   0.00000  Uiso   1.00
C1266  C     0.57501   0.50634   0.90684   0.00000  Uiso   1.00
C1267  C     0.42502   0.50747   0.59273   0.00000  Uiso   1.00
C1268  C     0.55741   0.50155   0.95381   0.00000  Uiso   1.00
C1269  C     0.44472   0.49747   0.54911   0.00000  Uiso   1.00
C1270  C     0.58905   0.48555   0.97677   0.00000  Uiso   1.00
C1271  C     0.52870   0.48851   0.54831   0.00000  Uiso   1.00
C1272  C     0.41426   0.48203   0.52773   0.00000  Uiso   1.00
C1273  C     0.50851   0.50704   0.97866   0.00000  Uiso   1.00
C1274  C     0.49426   0.49973   0.52614   0.00000  Uiso   1.00
C1275  C     0.51464   0.46833   0.59600   0.00000  Uiso   1.00
C1276  C     0.47286   0.54225   0.91994   0.00000  Uiso   1.00
C1277  C     0.59166   0.37576   0.72118   0.00000  Uiso   1.00
C1278  C     0.40634   0.62512   0.78071   0.00000  Uiso   1.00
C1279  C     0.57263   0.62647   0.76944   0.00000  Uiso   1.00
C1280  C     0.42702   0.37294   0.72837   0.00000  Uiso   1.00
C1281  C     0.52703   0.44576   0.81596   0.00000  Uiso   1.00
C1282  C     0.47129   0.51045   0.95836   0.00000  Uiso   1.00
C1283  C     0.47255   0.55674   0.68632   0.00000  Uiso   1.00
C1284  C     0.43016   0.44581   0.81599   0.00000  Uiso   1.00
C1285  C     0.57094   0.55224   0.68235   0.00000  Uiso   1.00
C1286  C     0.57686   0.48581   0.52288   0.00000  Uiso   1.00
C1287  C     0.42701   0.48970   0.98121   0.00000  Uiso   1.00
C1288  C     0.62791   0.35509   0.74118   0.00000  Uiso   1.00
C1289  C     0.37125   0.64508   0.75889   0.00000  Uiso   1.00
C1290  C     0.62274   0.64597   0.75425   0.00000  Uiso   1.00
Cu1291 Cu    0.38022   0.50001   0.75000   0.00000  Uiso   1.00
Cu1292 Cu    0.61978   0.49999   0.75000   0.00000  Uiso   1.00
H1293  H     0.44627   0.52489   0.60759   0.00000  Uiso   1.00
H1294  H     0.48117   0.44930   0.60445   0.00000  Uiso   1.00
H1295  H     0.54188   0.44618   0.60114   0.00000  Uiso   1.00
H1296  H     0.50193   0.56572   0.91475   0.00000  Uiso   1.00
H1297  H     0.47704   0.52728   0.88902   0.00000  Uiso   1.00
H1298  H     0.43884   0.55938   0.92758   0.00000  Uiso   1.00
H1299  H     0.60918   0.40046   0.69451   0.00000  Uiso   1.00
H1300  H     0.57591   0.35356   0.70474   0.00000  Uiso   1.00
H1301  H     0.56217   0.38849   0.74727   0.00000  Uiso   1.00
H1302  H     0.38854   0.59993   0.80664   0.00000  Uiso   1.00
H1303  H     0.43732   0.61316   0.75564   0.00000  Uiso   1.00
H1304  H     0.55375   0.51834   0.88677   0.00000  Uiso   1.00
H1305  H     0.41997   0.64774   0.79829   0.00000  Uiso   1.00
H1306  H     0.56839   0.60260   0.79791   0.00000  Uiso   1.00
H1307  H     0.54488   0.64944   0.78211   0.00000  Uiso   1.00
H1308  H     0.56491   0.61311   0.74155   0.00000  Uiso   1.00
H1309  H     0.43053   0.39711   0.70029   0.00000  Uiso   1.00
H1310  H     0.43631   0.38586   0.75564   0.00000  Uiso   1.00
H1311  H     0.45396   0.34960   0.71484   0.00000  Uiso   1.00
H1312  H     0.50857   0.45549   0.84947   0.00000  Uiso   1.00
H1313  H     0.51636   0.41351   0.81466   0.00000  Uiso   1.00
H1314  H     0.56489   0.44350   0.81266   0.00000  Uiso   1.00
H1315  H     0.65280   0.45366   0.61984   0.00000  Uiso   1.00
H1316  H     0.48040   0.58854   0.69204   0.00000  Uiso   1.00
H1317  H     0.49392   0.55152   0.65194   0.00000  Uiso   1.00
H1318  H     0.43524   0.55679   0.68723   0.00000  Uiso   1.00
H1319  H     0.39476   0.44278   0.81223   0.00000  Uiso   1.00
H1320  H     0.44264   0.41376   0.81605   0.00000  Uiso   1.00
H1321  H     0.42625   0.45647   0.84903   0.00000  Uiso   1.00
H1322  H     0.60497   0.55770   0.68817   0.00000  Uiso   1.00
H1323  H     0.57802   0.53823   0.65048   0.00000  Uiso   1.00
H1324  H     0.55807   0.58387   0.67813   0.00000  Uiso   1.00
H1325  H     0.34733   0.45816   0.88960   0.00000  Uiso   1.00
H1326  H     0.60223   0.49489   0.57102   0.00000  Uiso   1.00
H1327  H     0.40952   0.48470   0.92776   0.00000  Uiso   1.00
H1328  H     0.34063   0.42012   0.95416   0.00000  Uiso   1.00
H1329  H     0.65925   0.41619   0.56149   0.00000  Uiso   1.00
H1330  H     0.51109   0.49181   0.61963   0.00000  Uiso   1.00
N1331  N     0.45069   0.50001   0.74999   0.00000  Uiso   1.00
N1332  N     0.54931   0.49999   0.75001   0.00000  Uiso   1.00
O1333  O     0.37291   0.43989   0.75000   0.00000  Uiso   1.00
O1334  O     0.39334   0.48324   0.96027   0.00000  Uiso   1.00
O1335  O     0.64860   0.43445   0.97580   0.00000  Uiso   1.00
O1336  O     0.35299   0.43026   0.53746   0.00000  Uiso   1.00
O1337  O     0.62709   0.56011   0.75000   0.00000  Uiso   1.00
O1338  O     0.62706   0.43988   0.75000   0.00000  Uiso   1.00
O1339  O     0.37294   0.56012   0.75000   0.00000  Uiso   1.00
O1340  O     0.35186   0.50001   0.81492   0.00000  Uiso   1.00
O1341  O     0.64814   0.49999   0.68508   0.00000  Uiso   1.00
O1342  O     0.60600   0.50000   0.81492   0.00000  Uiso   1.00
O1343  O     0.39400   0.50000   0.68508   0.00000  Uiso   1.00
O1344  O     0.61284   0.48235   0.54244   0.00000  Uiso   1.00
C1345  C     0.66804   0.42129   0.74617   0.00000  Uiso   1.00
C1346  C     0.71005   0.35398   0.74504   0.00000  Uiso   1.00
C1347  C     0.99658   0.62356   0.75783   0.00000  Uiso   1.00
C1348  C     0.66957   0.37650   0.74190   0.00000  Uiso   1.00
C1349  C     0.84799   0.47446   0.78061   0.00000  Uiso   1.00
C1350  C     0.81866   0.52592   0.71971   0.00000  Uiso   1.00
C1351  C     0.79881   0.47429   0.78042   0.00000  Uiso   1.00
C1352  C     0.86809   0.52539   0.71922   0.00000  Uiso   1.00
C1353  C     0.97192   0.49903   0.83546   0.00000  Uiso   1.00
C1354  C     0.69463   0.49927   0.66477   0.00000  Uiso   1.00
C1355  C     0.95475   0.49461   0.88404   0.00000  Uiso   1.00
C1356  C     0.99855   0.57873   0.75375   0.00000  Uiso   1.00
C1357  C     0.71177   0.49396   0.61752   0.00000  Uiso   1.00
C1358  C     0.96392   0.46560   0.95352   0.00000  Uiso   1.00
C1359  C     0.70498   0.46126   0.55417   0.00000  Uiso   1.00
C1360  C     0.98149   0.47265   0.90735   0.00000  Uiso   1.00
C1361  C     0.68614   0.46873   0.59907   0.00000  Uiso   1.00
C1362  C     0.90834   0.50634   0.90684   0.00000  Uiso   1.00
C1363  C     0.75835   0.50747   0.59273   0.00000  Uiso   1.00
C1364  C     0.89074   0.50155   0.95381   0.00000  Uiso   1.00
C1365  C     0.77806   0.49747   0.54911   0.00000  Uiso   1.00
C1366  C     0.92238   0.48555   0.97677   0.00000  Uiso   1.00
C1367  C     0.86204   0.48851   0.54831   0.00000  Uiso   1.00
C1368  C     0.74759   0.48203   0.52773   0.00000  Uiso   1.00
C1369  C     0.84184   0.50704   0.97866   0.00000  Uiso   1.00
C1370  C     0.82760   0.49973   0.52614   0.00000  Uiso   1.00
C1371  C     0.84798   0.46833   0.59600   0.00000  Uiso   1.00
C1372  C     0.80620   0.54225   0.91994   0.00000  Uiso   1.00
C1373  C     0.92500   0.37576   0.72118   0.00000  Uiso   1.00
C1374  C     0.73967   0.62512   0.78071   0.00000  Uiso   1.00
C1375  C     0.90597   0.62647   0.76944   0.00000  Uiso   1.00
C1376  C     0.76035   0.37294   0.72837   0.00000  Uiso   1.00
C1377  C     0.86037   0.44576   0.81596   0.00000  Uiso   1.00
C1378  C     0.80462   0.51045   0.95836   0.00000  Uiso   1.00
C1379  C     0.80589   0.55674   0.68632   0.00000  Uiso   1.00
C1380  C     0.76349   0.44581   0.81599   0.00000  Uiso   1.00
C1381  C     0.90427   0.55224   0.68235   0.00000  Uiso   1.00
C1382  C     0.91019   0.48581   0.52288   0.00000  Uiso   1.00
C1383  C     0.76034   0.48970   0.98121   0.00000  Uiso   1.00
C1384  C     0.96125   0.35509   0.74118   0.00000  Uiso   1.00
C1385  C     0.70458   0.64508   0.75889   0.00000  Uiso   1.00
C1386  C     0.95607   0.64597   0.75425   0.00000  Uiso   1.00
Cu1387 Cu    0.71355   0.50001   0.75000   0.00000  Uiso   1.00
Cu1388 Cu    0.95311   0.49999   0.75000   0.00000  Uiso   1.00
H1389  H     0.77960   0.52489   0.60759   0.00000  Uiso   1.00
H1390  H     0.81450   0.44930   0.60445   0.00000  Uiso   1.00
H1391  H     0.87521   0.44618   0.60114   0.00000  Uiso   1.00
H1392  H     0.83526   0.56572   0.91475   0.00000  Uiso   1.00
H1393  H     0.81037   0.52728   0.88902   0.00000  Uiso   1.00
H1394  H     0.77217   0.55938   0.92758   0.00000  Uiso   1.00
H1395  H     0.94252   0.40046   0.69451   0.00000  Uiso   1.00
H1396  H     0.90924   0.35356   0.70474   0.00000  Uiso   1.00
H1397  H     0.89551   0.38849   0.74727   0.00000  Uiso   1.00
H1398  H     0.72187   0.59993   0.80664   0.00000  Uiso   1.00
H1399  H     0.77066   0.61316   0.75564   0.00000  Uiso   1.00
H1400  H     0.88709   0.51834   0.88677   0.00000  Uiso   1.00
H1401  H     0.75330   0.64774   0.79829   0.00000  Uiso   1.00
H1402  H     0.90172   0.60260   0.79791   0.00000  Uiso   1.00
H1403  H     0.87821   0.64944   0.78211   0.00000  Uiso   1.00
H1404  H     0.89825   0.61311   0.74155   0.00000  Uiso   1.00
H1405  H     0.76387   0.39711   0.70029   0.00000  Uiso   1.00
H1406  H     0.76965   0.38586   0.75564   0.00000  Uiso   1.00
H1407  H     0.78730   0.34960   0.71484   0.00000  Uiso   1.00
H1408  H     0.84191   0.45549   0.84947   0.00000  Uiso   1.00
H1409  H     0.84970   0.41351   0.81466   0.00000  Uiso   1.00
H1410  H     0.89822   0.44350   0.81266   0.00000  Uiso   1.00
H1411  H     0.98614   0.45366   0.61984   0.00000  Uiso   1.00
H1412  H     0.81373   0.58854   0.69204   0.00000  Uiso   1.00
H1413  H     0.82726   0.55152   0.65194   0.00000  Uiso   1.00
H1414  H     0.76858   0.55679   0.68723   0.00000  Uiso   1.00
H1415  H     0.72809   0.44278   0.81223   0.00000  Uiso   1.00
H1416  H     0.77597   0.41376   0.81605   0.00000  Uiso   1.00
H1417  H     0.75958   0.45647   0.84903   0.00000  Uiso   1.00
H1418  H     0.93830   0.55770   0.68817   0.00000  Uiso   1.00
H1419  H     0.91135   0.53823   0.65048   0.00000  Uiso   1.00
H1420  H     0.89140   0.58387   0.67813   0.00000  Uiso   1.00
H1421  H     0.68066   0.45816   0.88960   0.00000  Uiso   1.00
H1422  H     0.93556   0.49489   0.57102   0.00000  Uiso   1.00
H1423  H     0.74285   0.48470   0.92776   0.00000  Uiso   1.00
H1424  H     0.67396   0.42012   0.95416   0.00000  Uiso   1.00
H1425  H     0.99258   0.41619   0.56149   0.00000  Uiso   1.00
H1426  H     0.84442   0.49181   0.61963   0.00000  Uiso   1.00
N1427  N     0.78403   0.50001   0.74999   0.00000  Uiso   1.00
N1428  N     0.88264   0.49999   0.75001   0.00000  Uiso   1.00
O1429  O     0.70625   0.43989   0.75000   0.00000  Uiso   1.00
O1430  O     0.72667   0.48324   0.96027   0.00000  Uiso   1.00
O1431  O     0.98194   0.43445   0.97580   0.00000  Uiso   1.00
O1432  O     0.68632   0.43026   0.53746   0.00000  Uiso   1.00
O1433  O     0.96042   0.56011   0.75000   0.00000  Uiso   1.00
O1434  O     0.96039   0.43988   0.75000   0.00000  Uiso   1.00
O1435  O     0.70628   0.56012   0.75000   0.00000  Uiso   1.00
O1436  O     0.68519   0.50001   0.81492   0.00000  Uiso   1.00
O1437  O     0.98148   0.49999   0.68508   0.00000  Uiso   1.00
O1438  O     0.93933   0.50000   0.81492   0.00000  Uiso   1.00
O1439  O     0.72733   0.50000   0.68508   0.00000  Uiso   1.00
O1440  O     0.94617   0.48235   0.54244   0.00000  Uiso   1.00
C1441  C     0.00138   0.75463   0.74617   0.00000  Uiso   1.00
C1442  C     0.04338   0.68731   0.74504   0.00000  Uiso   1.00
C1443  C     0.32992   0.95689   0.75783   0.00000  Uiso   1.00
C1444  C     0.00290   0.70983   0.74190   0.00000  Uiso   1.00
C1445  C     0.18133   0.80780   0.78061   0.00000  Uiso   1.00
C1446  C     0.15199   0.85926   0.71971   0.00000  Uiso   1.00
C1447  C     0.13215   0.80763   0.78042   0.00000  Uiso   1.00
C1448  C     0.20143   0.85872   0.71922   0.00000  Uiso   1.00
C1449  C     0.30526   0.83237   0.83546   0.00000  Uiso   1.00
C1450  C     0.02796   0.83260   0.66477   0.00000  Uiso   1.00
C1451  C     0.28808   0.82794   0.88404   0.00000  Uiso   1.00
C1452  C     0.33188   0.91206   0.75375   0.00000  Uiso   1.00
C1453  C     0.04510   0.82730   0.61752   0.00000  Uiso   1.00
C1454  C     0.29726   0.79893   0.95352   0.00000  Uiso   1.00
C1455  C     0.03831   0.79460   0.55417   0.00000  Uiso   1.00
C1456  C     0.31482   0.80599   0.90735   0.00000  Uiso   1.00
C1457  C     0.01947   0.80206   0.59907   0.00000  Uiso   1.00
C1458  C     0.24168   0.83967   0.90684   0.00000  Uiso   1.00
C1459  C     0.09168   0.84080   0.59273   0.00000  Uiso   1.00
C1460  C     0.22407   0.83488   0.95381   0.00000  Uiso   1.00
C1461  C     0.11139   0.83081   0.54911   0.00000  Uiso   1.00
C1462  C     0.25572   0.81889   0.97677   0.00000  Uiso   1.00
C1463  C     0.19537   0.82184   0.54831   0.00000  Uiso   1.00
C1464  C     0.08092   0.81536   0.52773   0.00000  Uiso   1.00
C1465  C     0.17518   0.84037   0.97866   0.00000  Uiso   1.00
C1466  C     0.16093   0.83306   0.52614   0.00000  Uiso   1.00
C1467  C     0.18131   0.80166   0.59600   0.00000  Uiso   1.00
C1468  C     0.13953   0.87558   0.91994   0.00000  Uiso   1.00
C1469  C     0.25833   0.70909   0.72118   0.00000  Uiso   1.00
C1470  C     0.07300   0.95846   0.78071   0.00000  Uiso   1.00
C1471  C     0.23930   0.95980   0.76944   0.00000  Uiso   1.00
C1472  C     0.09368   0.70628   0.72837   0.00000  Uiso   1.00
C1473  C     0.19370   0.77909   0.81596   0.00000  Uiso   1.00
C1474  C     0.13795   0.84379   0.95836   0.00000  Uiso   1.00
C1475  C     0.13922   0.89008   0.68632   0.00000  Uiso   1.00
C1476  C     0.09682   0.77915   0.81599   0.00000  Uiso   1.00
C1477  C     0.23760   0.88557   0.68235   0.00000  Uiso   1.00
C1478  C     0.24352   0.81914   0.52288   0.00000  Uiso   1.00
C1479  C     0.09368   0.82304   0.98121   0.00000  Uiso   1.00
C1480  C     0.29458   0.68843   0.74118   0.00000  Uiso   1.00
C1481  C     0.03792   0.97841   0.75889   0.00000  Uiso   1.00
C1482  C     0.28941   0.97930   0.75425   0.00000  Uiso   1.00
Cu1483 Cu    0.04689   0.83334   0.75000   0.00000  Uiso   1.00
Cu1484 Cu    0.28645   0.83333   0.75000   0.00000  Uiso   1.00
H1485  H     0.11294   0.85823   0.60759   0.00000  Uiso   1.00
H1486  H     0.14784   0.78264   0.60445   0.00000  Uiso   1.00
H1487  H     0.20854   0.77951   0.60114   0.00000  Uiso   1.00
H1488  H     0.16859   0.89905   0.91475   0.00000  Uiso   1.00
H1489  H     0.14371   0.86062   0.88902   0.00000  Uiso   1.00
H1490  H     0.10550   0.89272   0.92758   0.00000  Uiso   1.00
H1491  H     0.27585   0.73380   0.69451   0.00000  Uiso   1.00
H1492  H     0.24257   0.68689   0.70474   0.00000  Uiso   1.00
H1493  H     0.22884   0.72183   0.74727   0.00000  Uiso   1.00
H1494  H     0.05521   0.93327   0.80664   0.00000  Uiso   1.00
H1495  H     0.10399   0.94649   0.75564   0.00000  Uiso   1.00
H1496  H     0.22042   0.85168   0.88677   0.00000  Uiso   1.00
H1497  H     0.08664   0.98107   0.79829   0.00000  Uiso   1.00
H1498  H     0.23506   0.93593   0.79791   0.00000  Uiso   1.00
H1499  H     0.21154   0.98278   0.78211   0.00000  Uiso   1.00
H1500  H     0.23158   0.94644   0.74155   0.00000  Uiso   1.00
H1501  H     0.09720   0.73044   0.70029   0.00000  Uiso   1.00
H1502  H     0.10298   0.71920   0.75564   0.00000  Uiso   1.00
H1503  H     0.12063   0.68293   0.71484   0.00000  Uiso   1.00
H1504  H     0.17524   0.78882   0.84947   0.00000  Uiso   1.00
H1505  H     0.18303   0.74684   0.81466   0.00000  Uiso   1.00
H1506  H     0.23155   0.77684   0.81266   0.00000  Uiso   1.00
H1507  H     0.31947   0.78699   0.61984   0.00000  Uiso   1.00
H1508  H     0.14706   0.92187   0.69204   0.00000  Uiso   1.00
H1509  H     0.16059   0.88485   0.65194   0.00000  Uiso   1.00
H1510  H     0.10191   0.89012   0.68723   0.00000  Uiso   1.00
H1511  H     0.06143   0.77611   0.81223   0.00000  Uiso   1.00
H1512  H     0.10931   0.74709   0.81605   0.00000  Uiso   1.00
H1513  H     0.09291   0.78980   0.84903   0.00000  Uiso   1.00
H1514  H     0.27163   0.89104   0.68817   0.00000  Uiso   1.00
H1515  H     0.24469   0.87156   0.65048   0.00000  Uiso   1.00
H1516  H     0.22474   0.91720   0.67813   0.00000  Uiso   1.00
H1517  H     0.01400   0.79149   0.88960   0.00000  Uiso   1.00
H1518  H     0.26889   0.82822   0.57102   0.00000  Uiso   1.00
H1519  H     0.07618   0.81803   0.92776   0.00000  Uiso   1.00
H1520  H     0.00729   0.75345   0.95416   0.00000  Uiso   1.00
H1521  H     0.32591   0.74953   0.56149   0.00000  Uiso   1.00
H1522  H     0.17776   0.82514   0.61963   0.00000  Uiso   1.00
N1523  N     0.11736   0.83334   0.74999   0.00000  Uiso   1.00
N1524  N     0.21597   0.83332   0.75001   0.00000  Uiso   1.00
O1525  O     0.03958   0.77322   0.75000   0.00000  Uiso   1.00
O1526  O     0.06000   0.81657   0.96027   0.00000  Uiso   1.00
O1527  O     0.31527   0.76778   0.97580   0.00000  Uiso   1.00
O1528  O     0.01965   0.76359   0.53746   0.00000  Uiso   1.00
O1529  O     0.29375   0.89345   0.75000   0.00000  Uiso   1.00
O1530  O     0.29372   0.77321   0.75000   0.00000  Uiso   1.00
O1531  O     0.03961   0.89346   0.75000   0.00000  Uiso   1.00
O1532  O     0.01852   0.83334   0.81492   0.00000  Uiso   1.00
O1533  O     0.31481   0.83332   0.68508   0.00000  Uiso   1.00
O1534  O     0.27267   0.83333   0.81492   0.00000  Uiso   1.00
O1535  O     0.06067   0.83333   0.68508   0.00000  Uiso   1.00
O1536  O     0.27950   0.81568   0.54244   0.00000  Uiso   1.00
C1537  C     0.33471   0.75463   0.74617   0.00000  Uiso   1.00
C1538  C     0.37671   0.68731   0.74504   0.00000  Uiso   1.00
C1539  C     0.66325   0.95689   0.75783   0.00000  Uiso   1.00
C1540  C     0.33623   0.70983   0.74190   0.00000  Uiso   1.00
C1541  C     0.51466   0.80780   0.78061   0.00000  Uiso   1.00
C1542  C     0.48533   0.85926   0.71971   0.00000  Uiso   1.00
C1543  C     0.46548   0.80763   0.78042   0.00000  Uiso   1.00
C1544  C     0.53476   0.85872   0.71922   0.00000  Uiso   1.00
C1545  C     0.63859   0.83237   0.83546   0.00000  Uiso   1.00
C1546  C     0.36130   0.83260   0.66477   0.00000  Uiso   1.00
C1547  C     0.62141   0.82794   0.88404   0.00000  Uiso   1.00
C1548  C     0.66521   0.91206   0.75375   0.00000  Uiso   1.00
C1549  C     0.37844   0.82730   0.61752   0.00000  Uiso   1.00
C1550  C     0.63059   0.79893   0.95352   0.00000  Uiso   1.00
C1551  C     0.37164   0.79460   0.55417   0.00000  Uiso   1.00
C1552  C     0.64815   0.80599   0.90735   0.00000  Uiso   1.00
C1553  C     0.35280   0.80206   0.59907   0.00000  Uiso   1.00
C1554  C     0.57501   0.83967   0.90684   0.00000  Uiso   1.00
C1555  C     0.42502   0.84080   0.59273   0.00000  Uiso   1.00
C1556  C     0.55741   0.83488   0.95381   0.00000  Uiso   1.00
C1557  C     0.44472   0.83081   0.54911   0.00000  Uiso   1.00
C1558  C     0.58905   0.81889   0.97677   0.00000  Uiso   1.00
C1559  C     0.52870   0.82184   0.54831   0.00000  Uiso   1.00
C1560  C     0.41426   0.81536   0.52773   0.00000  Uiso   1.00
C1561  C     0.50851   0.84037   0.97866   0.00000  Uiso   1.00
C1562  C     0.49426   0.83306   0.52614   0.00000  Uiso   1.00
C1563  C     0.51464   0.80166   0.59600   0.00000  Uiso   1.00
C1564  C     0.47286   0.87558   0.91994   0.00000  Uiso   1.00
C1565  C     0.59166   0.70909   0.72118   0.00000  Uiso   1.00
C1566  C     0.40634   0.95846   0.78071   0.00000  Uiso   1.00
C1567  C     0.57263   0.95980   0.76944   0.00000  Uiso   1.00
C1568  C     0.42702   0.70628   0.72837   0.00000  Uiso   1.00
C1569  C     0.52703   0.77909   0.81596   0.00000  Uiso   1.00
C1570  C     0.47129   0.84379   0.95836   0.00000  Uiso   1.00
C1571  C     0.47255   0.89008   0.68632   0.00000  Uiso   1.00
C1572  C     0.43016   0.77915   0.81599   0.00000  Uiso   1.00
C1573  C     0.57094   0.88557   0.68235   0.00000  Uiso   1.00
C1574  C     0.57686   0.81914   0.52288   0.00000  Uiso   1.00
C1575  C     0.42701   0.82304   0.98121   0.00000  Uiso   1.00
C1576  C     0.62791   0.68843   0.74118   0.00000  Uiso   1.00
C1577  C     0.37125   0.97841   0.75889   0.00000  Uiso   1.00
C1578  C     0.62274   0.97930   0.75425   0.00000  Uiso   1.00
Cu1579 Cu    0.38022   0.83334   0.75000   0.00000  Uiso   1.00
Cu1580 Cu    0.61978   0.83333   0.75000   0.00000  Uiso   1.00
H1581  H     0.44627   0.85823   0.60759   0.00000  Uiso   1.00
H1582  H     0.48117   0.78264   0.60445   0.00000  Uiso   1.00
H1583  H     0.54188   0.77951   0.60114   0.00000  Uiso   1.00
H1584  H     0.50193   0.89905   0.91475   0.00000  Uiso   1.00
H1585  H     0.47704   0.86062   0.88902   0.00000  Uiso   1.00
H1586  H     0.43884   0.89272   0.92758   0.00000  Uiso   1.00
H1587  H     0.60918   0.73380   0.69451   0.00000  Uiso   1.00
H1588  H     0.57591   0.68689   0.70474   0.00000  Uiso   1.00
H1589  H     0.56217   0.72183   0.74727   0.00000  Uiso   1.00
H1590  H     0.38854   0.93327   0.80664   0.00000  Uiso   1.00
H1591  H     0.43732   0.94649   0.75564   0.00000  Uiso   1.00
H1592  H     0.55375   0.85168   0.88677   0.00000  Uiso   1.00
H1593  H     0.41997   0.98107   0.79829   0.00000  Uiso   1.00
H1594  H     0.56839   0.93593   0.79791   0.00000  Uiso   1.00
H1595  H     0.54488   0.98278   0.78211   0.00000  Uiso   1.00
H1596  H     0.56491   0.94644   0.74155   0.00000  Uiso   1.00
H1597  H     0.43053   0.73044   0.70029   0.00000  Uiso   1.00
H1598  H     0.43631   0.71920   0.75564   0.00000  Uiso   1.00
H1599  H     0.45396   0.68293   0.71484   0.00000  Uiso   1.00
H1600  H     0.50857   0.78882   0.84947   0.00000  Uiso   1.00
H1601  H     0.51636   0.74684   0.81466   0.00000  Uiso   1.00
H1602  H     0.56489   0.77684   0.81266   0.00000  Uiso   1.00
H1603  H     0.65280   0.78699   0.61984   0.00000  Uiso   1.00
H1604  H     0.48040   0.92187   0.69204   0.00000  Uiso   1.00
H1605  H     0.49392   0.88485   0.65194   0.00000  Uiso   1.00
H1606  H     0.43524   0.89012   0.68723   0.00000  Uiso   1.00
H1607  H     0.39476   0.77611   0.81223   0.00000  Uiso   1.00
H1608  H     0.44264   0.74709   0.81605   0.00000  Uiso   1.00
H1609  H     0.42625   0.78980   0.84903   0.00000  Uiso   1.00
H1610  H     0.60497   0.89104   0.68817   0.00000  Uiso   1.00
H1611  H     0.57802   0.87156   0.65048   0.00000  Uiso   1.00
H1612  H     0.55807   0.91720   0.67813   0.00000  Uiso   1.00
H1613  H     0.34733   0.79149   0.88960   0.00000  Uiso   1.00
H1614  H     0.60223   0.82822   0.57102   0.00000  Uiso   1.00
H1615  H     0.40952   0.81803   0.92776   0.00000  Uiso   1.00
H1616  H     0.34063   0.75345   0.95416   0.00000  Uiso   1.00
H1617  H     0.65925   0.74953   0.56149   0.00000  Uiso   1.00
H1618  H     0.51109   0.82514   0.61963   0.00000  Uiso   1.00
N1619  N     0.45069   0.83334   0.74999   0.00000  Uiso   1.00
N1620  N     0.54931   0.83332   0.75001   0.00000  Uiso   1.00
O1621  O     0.37291   0.77322   0.75000   0.00000  Uiso   1.00
O1622  O     0.39334   0.81657   0.96027   0.00000  Uiso   1.00
O1623  O     0.64860   0.76778   0.97580   0.00000  Uiso   1.00
O1624  O     0.35299   0.76359   0.53746   0.00000  Uiso   1.00
O1625  O     0.62709   0.89345   0.75000   0.00000  Uiso   1.00
O1626  O     0.62706   0.77321   0.75000   0.00000  Uiso   1.00
O1627  O     0.37294   0.89346   0.75000   0.00000  Uiso   1.00
O1628  O     0.35186   0.83334   0.81492   0.00000  Uiso   1.00
O1629  O     0.64814   0.83332   0.68508   0.00000  Uiso   1.00
O1630  O     0.60600   0.83333   0.81492   0.00000  Uiso   1.00
O1631  O     0.39400   0.83333   0.68508   0.00000  Uiso   1.00
O1632  O     0.61284   0.81568   0.54244   0.00000  Uiso   1.00
C1633  C     0.66804   0.75463   0.74617   0.00000  Uiso   1.00
C1634  C     0.71005   0.68731   0.74504   0.00000  Uiso   1.00
C1635  C     0.99658   0.95689   0.75783   0.00000  Uiso   1.00
C1636  C     0.66957   0.70983   0.74190   0.00000  Uiso   1.00
C1637  C     0.84799   0.80780   0.78061   0.00000  Uiso   1.00
C1638  C     0.81866   0.85926   0.71971   0.00000  Uiso   1.00
C1639  C     0.79881   0.80763   0.78042   0.00000  Uiso   1.00
C1640  C     0.86809   0.85872   0.71922   0.00000  Uiso   1.00
C1641  C     0.97192   0.83237   0.83546   0.00000  Uiso   1.00
C1642  C     0.69463   0.83260   0.66477   0.00000  Uiso   1.00
C1643  C     0.95475   0.82794   0.88404   0.00000  Uiso   1.00
C1644  C     0.99855   0.91206   0.75375   0.00000  Uiso   1.00
C1645  C     0.71177   0.82730   0.61752   0.00000  Uiso   1.00
C1646  C     0.96392   0.79893   0.95352   0.00000  Uiso   1.00
C1647  C     0.70498   0.79460   0.55417   0.00000  Uiso   1.00
C1648  C     0.98149   0.80599   0.90735   0.00000  Uiso   1.00
C1649  C     0.68614   0.80206   0.59907   0.00000  Uiso   1.00
C1650  C     0.90834   0.83967   0.90684   0.00000  Uiso   1.00
C1651  C     0.75835   0.84080   0.59273   0.00000  Uiso   1.00
C1652  C     0.89074   0.83488   0.95381   0.00000  Uiso   1.00
C1653  C     0.77806   0.83081   0.54911   0.00000  Uiso   1.00
C1654  C     0.92238   0.81889   0.97677   0.00000  Uiso   1.00
C1655  C     0.86204   0.82184   0.54831   0.00000  Uiso   1.00
C1656  C     0.74759   0.81536   0.52773   0.00000  Uiso   1.00
C1657  C     0.84184   0.84037   0.97866   0.00000  Uiso   1.00
C1658  C     0.82760   0.83306   0.52614   0.00000  Uiso   1.00
C1659  C     0.84798   0.80166   0.59600   0.00000  Uiso   1.00
C1660  C     0.80620   0.87558   0.91994   0.00000  Uiso   1.00
C1661  C     0.92500   0.70909   0.72118   0.00000  Uiso   1.00
C1662  C     0.73967   0.95846   0.78071   0.00000  Uiso   1.00
C1663  C     0.90597   0.95980   0.76944   0.00000  Uiso   1.00
C1664  C     0.76035   0.70628   0.72837   0.00000  Uiso   1.00
C1665  C     0.86037   0.77909   0.81596   0.00000  Uiso   1.00
C1666  C     0.80462   0.84379   0.95836   0.00000  Uiso   1.00
C1667  C     0.80589   0.89008   0.68632   0.00000  Uiso   1.00
C1668  C     0.76349   0.77915   0.81599   0.00000  Uiso   1.00
C1669  C     0.90427   0.88557   0.68235   0.00000  Uiso   1.00
C1670  C     0.91019   0.81914   0.52288   0.00000  Uiso   1.00
C1671  C     0.76034   0.82304   0.98121   0.00000  Uiso   1.00
C1672  C     0.96125   0.68843   0.74118   0.00000  Uiso   1.00
C1673  C     0.70458   0.97841   0.75889   0.00000  Uiso   1.00
C1674  C     0.95607   0.97930   0.75425   0.00000  Uiso   1.00
Cu1675 Cu    0.71355   0.83334   0.75000   0.00000  Uiso   1.00
Cu1676 Cu    0.95311   0.83333   0.75000   0.00000  Uiso   1.00
H1677  H     0.77960   0.85823   0.60759   0.00000  Uiso   1.00
H1678  H     0.81450   0.78264   0.60445   0.00000  Uiso   1.00
H1679  H     0.87521   0.77951   0.60114   0.00000  Uiso   1.00
H1680  H     0.83526   0.89905   0.91475   0.00000  Uiso   1.00
H1681  H     0.81037   0.86062   0.88902   0.00000  Uiso   1.00
H1682  H     0.77217   0.89272   0.92758   0.00000  Uiso   1.00
H1683  H     0.94252   0.73380   0.69451   0.00000  Uiso   1.00
H1684  H     0.90924   0.68689   0.70474   0.00000  Uiso   1.00
H1685  H     0.89551   0.72183   0.74727   0.00000  Uiso   1.00
H1686  H     0.72187   0.93327   0.80664   0.00000  Uiso   1.00
H1687  H     0.77066   0.94649   0.75564   0.00000  Uiso   1.00
H1688  H     0.88709   0.85168   0.88677   0.00000  Uiso   1.00
H1689  H     0.75330   0.98107   0.79829   0.00000  Uiso   1.00
H1690  H     0.90172   0.93593   0.79791   0.00000  Uiso   1.00
H1691  H     0.87821   0.98278   0.78211   0.00000  Uiso   1.00
H1692  H     0.89825   0.94644   0.74155   0.00000  Uiso   1.00
H1693  H     0.76387   0.73044   0.70029   0.00000  Uiso   1.00
H1694  H     0.76965   0.71920   0.75564   0.00000  Uiso   1.00
H1695  H     0.78730   0.68293   0.71484   0.00000  Uiso   1.00
H1696  H     0.84191   0.78882   0.84947   0.00000  Uiso   1.00
H1697  H     0.84970   0.74684   0.81466   0.00000  Uiso   1.00
H1698  H     0.89822   0.77684   0.81266   0.00000  Uiso   1.00
H1699  H     0.98614   0.78699   0.61984   0.00000  Uiso   1.00
H1700  H     0.81373   0.92187   0.69204   0.00000  Uiso   1.00
H1701  H     0.82726   0.88485   0.65194   0.00000  Uiso   1.00
H1702  H     0.76858   0.89012   0.68723   0.00000  Uiso   1.00
H1703  H     0.72809   0.77611   0.81223   0.00000  Uiso   1.00
H1704  H     0.77597   0.74709   0.81605   0.00000  Uiso   1.00
H1705  H     0.75958   0.78980   0.84903   0.00000  Uiso   1.00
H1706  H     0.93830   0.89104   0.68817   0.00000  Uiso   1.00
H1707  H     0.91135   0.87156   0.65048   0.00000  Uiso   1.00
H1708  H     0.89140   0.91720   0.67813   0.00000  Uiso   1.00
H1709  H     0.68066   0.79149   0.88960   0.00000  Uiso   1.00
H1710  H     0.93556   0.82822   0.57102   0.00000  Uiso   1.00
H1711  H     0.74285   0.81803   0.92776   0.00000  Uiso   1.00
H1712  H     0.67396   0.75345   0.95416   0.00000  Uiso   1.00
H1713  H     0.99258   0.74953   0.56149   0.00000  Uiso   1.00
H1714  H     0.84442   0.82514   0.61963   0.00000  Uiso   1.00
N1715  N     0.78403   0.83334   0.74999   0.00000  Uiso   1.00
N1716  N     0.88264   0.83332   0.75001   0.00000  Uiso   1.00
O1717  O     0.70625   0.77322   0.75000   0.00000  Uiso   1.00
O1718  O     0.72667   0.81657   0.96027   0.00000  Uiso   1.00
O1719  O     0.98194   0.76778   0.97580   0.00000  Uiso   1.00
O1720  O     0.68632   0.76359   0.53746   0.00000  Uiso   1.00
O1721  O     0.96042   0.89345   0.75000   0.00000  Uiso   1.00
O1722  O     0.96039   0.77321   0.75000   0.00000  Uiso   1.00
O1723  O     0.70628   0.89346   0.75000   0.00000  Uiso   1.00
O1724  O     0.68519   0.83334   0.81492   0.00000  Uiso   1.00
O1725  O     0.98148   0.83332   0.68508   0.00000  Uiso   1.00
O1726  O     0.93933   0.83333   0.81492   0.00000  Uiso   1.00
O1727  O     0.72733   0.83333   0.68508   0.00000  Uiso   1.00
O1728  O     0.94617   0.81568   0.54244   0.00000  Uiso   1.00
loop_
_geom_bond_atom_site_label_1
_geom_bond_atom_site_label_2
_geom_bond_distance
_geom_bond_site_symmetry_2
_ccdc_geom_bond_type
C1     O85     1.319   .     A
C1     C4      1.479   .     S
C1     O282    1.318   1_455 S
C2     C32     1.516   .     S
C2     C4      1.415   .     A
C2     C617    1.399   1_545 S
C3     C42     1.418   .     A
C3     C12     1.479   .     S
C3     C137    1.413   .     S
C4     C232    1.416   1_455 S
C5     C33     1.519   .     S
C5     C7      1.442   .     A
C5     N84     1.383   .     A
C6     C35     1.518   .     S
C6     C8      1.443   .     A
C6     N83     1.385   .     A
C7     N83     1.385   .     A
C7     C36     1.515   .     S
C8     C37     1.519   .     S
C8     N84     1.385   .     A
C9     C11     1.460   .     S
C9     O94     1.309   .     A
C9     O188    1.318   .     S
C10    O95     1.310   .     A
C10    C13     1.455   .     S
C10    O285    1.316   1_455 S
C11    C18     1.399   .     A
C11    C16     1.386   .     A
C12    O89     1.316   .     A
C12    O187    1.321   .     S
C13    C19     1.397   .     A
C13    C17     1.398   .     A
C14    O87     1.376   .     S
C14    C16     1.391   .     A
C14    C22     1.406   .     A
C15    C24     1.405   .     A
C15    C17     1.406   .     A
C15    O88     1.374   .     S
C16    H173    1.078   .     S
C17    H259    1.084   1_455 S
C18    H56     1.067   .     S
C18    C20     1.412   .     A
C19    C21     1.396   .     A
C19    H45     1.081   .     S
C20    C25     1.426   .     A
C20    C22     1.413   .     A
C21    C26     1.407   .     A
C21    C24     1.398   .     A
C22    C902    1.396   .     S
C23    C26     1.424   .     A
C23    C27     1.523   .     S
C23    C38     1.399   .     A
C24    C903    1.404   1_554 S
C25    C34     1.425   .     A
C25    C890    1.430   .     S
C26    C889    1.430   1_554 S
C27    H46     1.109   .     S
C27    H47     1.111   .     S
C27    H82     1.105   .     S
C28    H49     1.111   .     S
C28    H50     1.111   .     S
C28    H48     1.111   .     S
C28    C34     1.511   .     S
C29    H51     1.111   .     S
C29    H53     1.107   .     S
C29    C40     1.519   .     S
C29    H52     1.111   .     S
C30    H54     1.111   .     S
C30    H57     1.111   .     S
C30    C41     1.517   .     S
C30    H55     1.104   .     S
C31    C42     1.518   .     S
C31    H58     1.111   .     S
C31    H59     1.110   .     S
C31    H60     1.106   .     S
C32    H63     1.111   .     S
C32    H61     1.111   .     S
C32    H62     1.103   .     S
C33    H65     1.107   .     S
C33    H66     1.083   .     S
C33    H64     1.110   .     S
C34    C39     1.414   .     A
C35    H70     1.084   .     S
C35    H68     1.107   .     S
C35    H69     1.107   .     S
C36    H71     1.085   .     S
C36    H73     1.108   .     S
C36    H72     1.105   .     S
C37    H74     1.086   .     S
C37    H75     1.110   .     S
C37    H76     1.106   .     S
C38    O96     1.377   .     S
C38    C886    1.396   1_554 S
C39    O86     1.375   .     S
C39    C888    1.404   .     S
C40    C100    1.416   .     S
C40    C618    1.401   1_545 S
C41    C195    1.413   1_455 S
C41    C290    1.399   .     S
C42    C328    1.401   .     S
Cu43   N83     2.063   .     S
Cu43   O95     1.974   .     S
Cu43   O85     1.973   .     S
Cu43   O91     1.970   .     S
Cu43   O92     1.970   .     S
Cu43   Cu236   2.745   1_455 S
Cu44   O93     1.970   .     S
Cu44   O90     1.970   .     S
Cu44   N84     2.063   .     S
Cu44   O94     1.974   .     S
Cu44   O89     1.973   .     S
Cu44   Cu139   2.745   .     S
H67    C113    1.084   .     S
H77    C208    1.078   1_455 S
H78    O96     0.992   .     S
H79    O86     0.991   .     S
H80    O279    0.992   1_455 S
H81    O184    0.992   .     S
O87    H176    0.992   .     S
O88    H273    0.992   1_455 S
O90    C97     1.318   .     S
O91    C204    1.321   1_455 S
O92    C201    1.318   1_455 S
O93    C106    1.316   .     S
C97    O181    1.319   .     A
C97    C100    1.479   .     S
C98    C128    1.516   .     S
C98    C100    1.415   .     A
C98    C713    1.399   1_545 S
C99    C138    1.418   .     A
C99    C108    1.479   .     S
C99    C233    1.413   .     S
C101   C129    1.519   .     S
C101   C103    1.442   .     A
C101   N180    1.383   .     A
C102   C131    1.518   .     S
C102   C104    1.443   .     A
C102   N179    1.385   .     A
C103   N179    1.385   .     A
C103   C132    1.515   .     S
C104   C133    1.519   .     S
C104   N180    1.385   .     A
C105   C107    1.460   .     S
C105   O190    1.309   .     A
C105   O284    1.318   .     S
C106   O191    1.310   .     A
C106   C109    1.455   .     S
C107   C114    1.399   .     A
C107   C112    1.386   .     A
C108   O185    1.316   .     A
C108   O283    1.321   .     S
C109   C115    1.397   .     A
C109   C113    1.398   .     A
C110   O183    1.376   .     S
C110   C112    1.391   .     A
C110   C118    1.406   .     A
C111   C120    1.405   .     A
C111   C113    1.406   .     A
C111   O184    1.374   .     S
C112   H269    1.078   .     S
C114   H152    1.067   .     S
C114   C116    1.412   .     A
C115   C117    1.396   .     A
C115   H141    1.081   .     S
C116   C121    1.426   .     A
C116   C118    1.413   .     A
C117   C122    1.407   .     A
C117   C120    1.398   .     A
C118   C998    1.396   .     S
C119   C122    1.424   .     A
C119   C123    1.523   .     S
C119   C134    1.399   .     A
C120   C999    1.404   1_554 S
C121   C130    1.425   .     A
C121   C986    1.430   .     S
C122   C985    1.430   1_554 S
C123   H142    1.109   .     S
C123   H143    1.111   .     S
C123   H178    1.105   .     S
C124   H145    1.111   .     S
C124   H146    1.111   .     S
C124   H144    1.111   .     S
C124   C130    1.511   .     S
C125   H147    1.111   .     S
C125   H149    1.107   .     S
C125   C136    1.519   .     S
C125   H148    1.111   .     S
C126   H150    1.111   .     S
C126   H153    1.111   .     S
C126   C137    1.517   .     S
C126   H151    1.104   .     S
C127   C138    1.518   .     S
C127   H154    1.111   .     S
C127   H155    1.110   .     S
C127   H156    1.106   .     S
C128   H159    1.111   .     S
C128   H157    1.111   .     S
C128   H158    1.103   .     S
C129   H161    1.107   .     S
C129   H162    1.083   .     S
C129   H160    1.110   .     S
C130   C135    1.414   .     A
C131   H166    1.084   .     S
C131   H164    1.107   .     S
C131   H165    1.107   .     S
C132   H167    1.085   .     S
C132   H169    1.108   .     S
C132   H168    1.105   .     S
C133   H170    1.086   .     S
C133   H171    1.110   .     S
C133   H172    1.106   .     S
C134   O192    1.377   .     S
C134   C982    1.396   1_554 S
C135   O182    1.375   .     S
C135   C984    1.404   .     S
C136   C196    1.416   .     S
C136   C714    1.401   1_545 S
C137   C386    1.399   .     S
C138   C424    1.401   .     S
Cu139  N179    2.063   .     S
Cu139  O191    1.974   .     S
Cu139  O181    1.973   .     S
Cu139  O187    1.970   .     S
Cu139  O188    1.970   .     S
Cu140  O189    1.970   .     S
Cu140  O186    1.970   .     S
Cu140  N180    2.063   .     S
Cu140  O190    1.974   .     S
Cu140  O185    1.973   .     S
Cu140  Cu235   2.745   .     S
H163   C209    1.084   .     S
H174   O192    0.992   .     S
H175   O182    0.991   .     S
H177   O280    0.992   .     S
O183   H272    0.992   .     S
O186   C193    1.318   .     S
O189   C202    1.316   .     S
C193   O277    1.319   .     A
C193   C196    1.479   .     S
C194   C224    1.516   .     S
C194   C196    1.415   .     A
C194   C809    1.399   1_545 S
C195   C234    1.418   .     A
C195   C204    1.479   .     S
C195   C41     1.413   1_655 S
C197   C225    1.519   .     S
C197   C199    1.442   .     A
C197   N276    1.383   .     A
C198   C227    1.518   .     S
C198   C200    1.443   .     A
C198   N275    1.385   .     A
C199   N275    1.385   .     A
C199   C228    1.515   .     S
C200   C229    1.519   .     S
C200   N276    1.385   .     A
C201   C203    1.460   .     S
C201   O286    1.309   .     A
C201   O92     1.318   1_655 S
C202   O287    1.310   .     A
C202   C205    1.455   .     S
C203   C210    1.399   .     A
C203   C208    1.386   .     A
C204   O281    1.316   .     A
C204   O91     1.321   1_655 S
C205   C211    1.397   .     A
C205   C209    1.398   .     A
C206   O279    1.376   .     S
C206   C208    1.391   .     A
C206   C214    1.406   .     A
C207   C216    1.405   .     A
C207   C209    1.406   .     A
C207   O280    1.374   .     S
C208   H77     1.078   1_655 S
C210   H248    1.067   .     S
C210   C212    1.412   .     A
C211   C213    1.396   .     A
C211   H237    1.081   .     S
C212   C217    1.426   .     A
C212   C214    1.413   .     A
C213   C218    1.407   .     A
C213   C216    1.398   .     A
C214   C1094   1.396   .     S
C215   C218    1.424   .     A
C215   C219    1.523   .     S
C215   C230    1.399   .     A
C216   C1095   1.404   1_554 S
C217   C226    1.425   .     A
C217   C1082   1.430   .     S
C218   C1081   1.430   1_554 S
C219   H238    1.109   .     S
C219   H239    1.111   .     S
C219   H274    1.105   .     S
C220   H241    1.111   .     S
C220   H242    1.111   .     S
C220   H240    1.111   .     S
C220   C226    1.511   .     S
C221   H243    1.111   .     S
C221   H245    1.107   .     S
C221   C232    1.519   .     S
C221   H244    1.111   .     S
C222   H246    1.111   .     S
C222   H249    1.111   .     S
C222   C233    1.517   .     S
C222   H247    1.104   .     S
C223   C234    1.518   .     S
C223   H250    1.111   .     S
C223   H251    1.110   .     S
C223   H252    1.106   .     S
C224   H255    1.111   .     S
C224   H253    1.111   .     S
C224   H254    1.103   .     S
C225   H257    1.107   .     S
C225   H258    1.083   .     S
C225   H256    1.110   .     S
C226   C231    1.414   .     A
C227   H262    1.084   .     S
C227   H260    1.107   .     S
C227   H261    1.107   .     S
C228   H263    1.085   .     S
C228   H265    1.108   .     S
C228   H264    1.105   .     S
C229   H266    1.086   .     S
C229   H267    1.110   .     S
C229   H268    1.106   .     S
C230   O288    1.377   .     S
C230   C1078   1.396   1_554 S
C231   O278    1.375   .     S
C231   C1080   1.404   .     S
C232   C4      1.416   1_655 S
C232   C810    1.401   1_545 S
C233   C482    1.399   .     S
C234   C520    1.401   .     S
Cu235  N275    2.063   .     S
Cu235  O287    1.974   .     S
Cu235  O277    1.973   .     S
Cu235  O283    1.970   .     S
Cu235  O284    1.970   .     S
Cu236  O285    1.970   .     S
Cu236  O282    1.970   .     S
Cu236  N276    2.063   .     S
Cu236  O286    1.974   .     S
Cu236  O281    1.973   .     S
Cu236  Cu43    2.745   1_655 S
H259   C17     1.084   1_655 S
H270   O288    0.992   .     S
H271   O278    0.991   .     S
H273   O88     0.992   1_655 S
O279   H80     0.992   1_655 S
O282   C1      1.318   1_655 S
O285   C10     1.316   1_655 S
C289   O373    1.319   .     A
C289   C292    1.479   .     S
C289   O570    1.318   1_455 S
C290   C320    1.516   .     S
C290   C292    1.415   .     A
C291   C330    1.418   .     A
C291   C300    1.479   .     S
C291   C425    1.413   .     S
C292   C520    1.416   1_455 S
C293   C321    1.519   .     S
C293   C295    1.442   .     A
C293   N372    1.383   .     A
C294   C323    1.518   .     S
C294   C296    1.443   .     A
C294   N371    1.385   .     A
C295   N371    1.385   .     A
C295   C324    1.515   .     S
C296   C325    1.519   .     S
C296   N372    1.385   .     A
C297   C299    1.460   .     S
C297   O382    1.309   .     A
C297   O476    1.318   .     S
C298   O383    1.310   .     A
C298   C301    1.455   .     S
C298   O573    1.316   1_455 S
C299   C306    1.399   .     A
C299   C304    1.386   .     A
C300   O377    1.316   .     A
C300   O475    1.321   .     S
C301   C307    1.397   .     A
C301   C305    1.398   .     A
C302   O375    1.376   .     S
C302   C304    1.391   .     A
C302   C310    1.406   .     A
C303   C312    1.405   .     A
C303   C305    1.406   .     A
C303   O376    1.374   .     S
C304   H461    1.078   .     S
C305   H547    1.084   1_455 S
C306   H344    1.067   .     S
C306   C308    1.412   .     A
C307   C309    1.396   .     A
C307   H333    1.081   .     S
C308   C313    1.426   .     A
C308   C310    1.413   .     A
C309   C314    1.407   .     A
C309   C312    1.398   .     A
C310   C1190   1.396   .     S
C311   C314    1.424   .     A
C311   C315    1.523   .     S
C311   C326    1.399   .     A
C312   C1191   1.404   1_554 S
C313   C322    1.425   .     A
C313   C1178   1.430   .     S
C314   C1177   1.430   1_554 S
C315   H334    1.109   .     S
C315   H335    1.111   .     S
C315   H370    1.105   .     S
C316   H337    1.111   .     S
C316   H338    1.111   .     S
C316   H336    1.111   .     S
C316   C322    1.511   .     S
C317   H339    1.111   .     S
C317   H341    1.107   .     S
C317   C328    1.519   .     S
C317   H340    1.111   .     S
C318   H342    1.111   .     S
C318   H345    1.111   .     S
C318   C329    1.517   .     S
C318   H343    1.104   .     S
C319   C330    1.518   .     S
C319   H346    1.111   .     S
C319   H347    1.110   .     S
C319   H348    1.106   .     S
C320   H351    1.111   .     S
C320   H349    1.111   .     S
C320   H350    1.103   .     S
C321   H353    1.107   .     S
C321   H354    1.083   .     S
C321   H352    1.110   .     S
C322   C327    1.414   .     A
C323   H358    1.084   .     S
C323   H356    1.107   .     S
C323   H357    1.107   .     S
C324   H359    1.085   .     S
C324   H361    1.108   .     S
C324   H360    1.105   .     S
C325   H362    1.086   .     S
C325   H363    1.110   .     S
C325   H364    1.106   .     S
C326   O384    1.377   .     S
C326   C1174   1.396   1_554 S
C327   O374    1.375   .     S
C327   C1176   1.404   .     S
C328   C388    1.416   .     S
C329   C483    1.413   1_455 S
C329   C578    1.399   .     S
C330   C616    1.401   .     S
Cu331  N371    2.063   .     S
Cu331  O383    1.974   .     S
Cu331  O373    1.973   .     S
Cu331  O379    1.970   .     S
Cu331  O380    1.970   .     S
Cu331  Cu524   2.745   1_455 S
Cu332  O381    1.970   .     S
Cu332  O378    1.970   .     S
Cu332  N372    2.063   .     S
Cu332  O382    1.974   .     S
Cu332  O377    1.973   .     S
Cu332  Cu427   2.745   .     S
H355   C401    1.084   .     S
H365   C496    1.078   1_455 S
H366   O384    0.992   .     S
H367   O374    0.991   .     S
H368   O567    0.992   1_455 S
H369   O472    0.992   .     S
O375   H464    0.992   .     S
O376   H561    0.992   1_455 S
O378   C385    1.318   .     S
O379   C492    1.321   1_455 S
O380   C489    1.318   1_455 S
O381   C394    1.316   .     S
C385   O469    1.319   .     A
C385   C388    1.479   .     S
C386   C416    1.516   .     S
C386   C388    1.415   .     A
C387   C426    1.418   .     A
C387   C396    1.479   .     S
C387   C521    1.413   .     S
C389   C417    1.519   .     S
C389   C391    1.442   .     A
C389   N468    1.383   .     A
C390   C419    1.518   .     S
C390   C392    1.443   .     A
C390   N467    1.385   .     A
C391   N467    1.385   .     A
C391   C420    1.515   .     S
C392   C421    1.519   .     S
C392   N468    1.385   .     A
C393   C395    1.460   .     S
C393   O478    1.309   .     A
C393   O572    1.318   .     S
C394   O479    1.310   .     A
C394   C397    1.455   .     S
C395   C402    1.399   .     A
C395   C400    1.386   .     A
C396   O473    1.316   .     A
C396   O571    1.321   .     S
C397   C403    1.397   .     A
C397   C401    1.398   .     A
C398   O471    1.376   .     S
C398   C400    1.391   .     A
C398   C406    1.406   .     A
C399   C408    1.405   .     A
C399   C401    1.406   .     A
C399   O472    1.374   .     S
C400   H557    1.078   .     S
C402   H440    1.067   .     S
C402   C404    1.412   .     A
C403   C405    1.396   .     A
C403   H429    1.081   .     S
C404   C409    1.426   .     A
C404   C406    1.413   .     A
C405   C410    1.407   .     A
C405   C408    1.398   .     A
C406   C1286   1.396   .     S
C407   C410    1.424   .     A
C407   C411    1.523   .     S
C407   C422    1.399   .     A
C408   C1287   1.404   1_554 S
C409   C418    1.425   .     A
C409   C1274   1.430   .     S
C410   C1273   1.430   1_554 S
C411   H430    1.109   .     S
C411   H431    1.111   .     S
C411   H466    1.105   .     S
C412   H433    1.111   .     S
C412   H434    1.111   .     S
C412   H432    1.111   .     S
C412   C418    1.511   .     S
C413   H435    1.111   .     S
C413   H437    1.107   .     S
C413   C424    1.519   .     S
C413   H436    1.111   .     S
C414   H438    1.111   .     S
C414   H441    1.111   .     S
C414   C425    1.517   .     S
C414   H439    1.104   .     S
C415   C426    1.518   .     S
C415   H442    1.111   .     S
C415   H443    1.110   .     S
C415   H444    1.106   .     S
C416   H447    1.111   .     S
C416   H445    1.111   .     S
C416   H446    1.103   .     S
C417   H449    1.107   .     S
C417   H450    1.083   .     S
C417   H448    1.110   .     S
C418   C423    1.414   .     A
C419   H454    1.084   .     S
C419   H452    1.107   .     S
C419   H453    1.107   .     S
C420   H455    1.085   .     S
C420   H457    1.108   .     S
C420   H456    1.105   .     S
C421   H458    1.086   .     S
C421   H459    1.110   .     S
C421   H460    1.106   .     S
C422   O480    1.377   .     S
C422   C1270   1.396   1_554 S
C423   O470    1.375   .     S
C423   C1272   1.404   .     S
C424   C484    1.416   .     S
C425   C674    1.399   .     S
C426   C712    1.401   .     S
Cu427  N467    2.063   .     S
Cu427  O479    1.974   .     S
Cu427  O469    1.973   .     S
Cu427  O475    1.970   .     S
Cu427  O476    1.970   .     S
Cu428  O477    1.970   .     S
Cu428  O474    1.970   .     S
Cu428  N468    2.063   .     S
Cu428  O478    1.974   .     S
Cu428  O473    1.973   .     S
Cu428  Cu523   2.745   .     S
H451   C497    1.084   .     S
H462   O480    0.992   .     S
H463   O470    0.991   .     S
H465   O568    0.992   .     S
O471   H560    0.992   .     S
O474   C481    1.318   .     S
O477   C490    1.316   .     S
C481   O565    1.319   .     A
C481   C484    1.479   .     S
C482   C512    1.516   .     S
C482   C484    1.415   .     A
C483   C522    1.418   .     A
C483   C492    1.479   .     S
C483   C329    1.413   1_655 S
C485   C513    1.519   .     S
C485   C487    1.442   .     A
C485   N564    1.383   .     A
C486   C515    1.518   .     S
C486   C488    1.443   .     A
C486   N563    1.385   .     A
C487   N563    1.385   .     A
C487   C516    1.515   .     S
C488   C517    1.519   .     S
C488   N564    1.385   .     A
C489   C491    1.460   .     S
C489   O574    1.309   .     A
C489   O380    1.318   1_655 S
C490   O575    1.310   .     A
C490   C493    1.455   .     S
C491   C498    1.399   .     A
C491   C496    1.386   .     A
C492   O569    1.316   .     A
C492   O379    1.321   1_655 S
C493   C499    1.397   .     A
C493   C497    1.398   .     A
C494   O567    1.376   .     S
C494   C496    1.391   .     A
C494   C502    1.406   .     A
C495   C504    1.405   .     A
C495   C497    1.406   .     A
C495   O568    1.374   .     S
C496   H365    1.078   1_655 S
C498   H536    1.067   .     S
C498   C500    1.412   .     A
C499   C501    1.396   .     A
C499   H525    1.081   .     S
C500   C505    1.426   .     A
C500   C502    1.413   .     A
C501   C506    1.407   .     A
C501   C504    1.398   .     A
C502   C1382   1.396   .     S
C503   C506    1.424   .     A
C503   C507    1.523   .     S
C503   C518    1.399   .     A
C504   C1383   1.404   1_554 S
C505   C514    1.425   .     A
C505   C1370   1.430   .     S
C506   C1369   1.430   1_554 S
C507   H526    1.109   .     S
C507   H527    1.111   .     S
C507   H562    1.105   .     S
C508   H529    1.111   .     S
C508   H530    1.111   .     S
C508   H528    1.111   .     S
C508   C514    1.511   .     S
C509   H531    1.111   .     S
C509   H533    1.107   .     S
C509   C520    1.519   .     S
C509   H532    1.111   .     S
C510   H534    1.111   .     S
C510   H537    1.111   .     S
C510   C521    1.517   .     S
C510   H535    1.104   .     S
C511   C522    1.518   .     S
C511   H538    1.111   .     S
C511   H539    1.110   .     S
C511   H540    1.106   .     S
C512   H543    1.111   .     S
C512   H541    1.111   .     S
C512   H542    1.103   .     S
C513   H545    1.107   .     S
C513   H546    1.083   .     S
C513   H544    1.110   .     S
C514   C519    1.414   .     A
C515   H550    1.084   .     S
C515   H548    1.107   .     S
C515   H549    1.107   .     S
C516   H551    1.085   .     S
C516   H553    1.108   .     S
C516   H552    1.105   .     S
C517   H554    1.086   .     S
C517   H555    1.110   .     S
C517   H556    1.106   .     S
C518   O576    1.377   .     S
C518   C1366   1.396   1_554 S
C519   O566    1.375   .     S
C519   C1368   1.404   .     S
C520   C292    1.416   1_655 S
C521   C770    1.399   .     S
C522   C808    1.401   .     S
Cu523  N563    2.063   .     S
Cu523  O575    1.974   .     S
Cu523  O565    1.973   .     S
Cu523  O571    1.970   .     S
Cu523  O572    1.970   .     S
Cu524  O573    1.970   .     S
Cu524  O570    1.970   .     S
Cu524  N564    2.063   .     S
Cu524  O574    1.974   .     S
Cu524  O569    1.973   .     S
Cu524  Cu331   2.745   1_655 S
H547   C305    1.084   1_655 S
H558   O576    0.992   .     S
H559   O566    0.991   .     S
H561   O376    0.992   1_655 S
O567   H368    0.992   1_655 S
O570   C289    1.318   1_655 S
O573   C298    1.316   1_655 S
C577   O661    1.319   .     A
C577   C580    1.479   .     S
C577   O858    1.318   1_455 S
C578   C608    1.516   .     S
C578   C580    1.415   .     A
C579   C618    1.418   .     A
C579   C588    1.479   .     S
C579   C713    1.413   .     S
C580   C808    1.416   1_455 S
C581   C609    1.519   .     S
C581   C583    1.442   .     A
C581   N660    1.383   .     A
C582   C611    1.518   .     S
C582   C584    1.443   .     A
C582   N659    1.385   .     A
C583   N659    1.385   .     A
C583   C612    1.515   .     S
C584   C613    1.519   .     S
C584   N660    1.385   .     A
C585   C587    1.460   .     S
C585   O670    1.309   .     A
C585   O764    1.318   .     S
C586   O671    1.310   .     A
C586   C589    1.455   .     S
C586   O861    1.316   1_455 S
C587   C594    1.399   .     A
C587   C592    1.386   .     A
C588   O665    1.316   .     A
C588   O763    1.321   .     S
C589   C595    1.397   .     A
C589   C593    1.398   .     A
C590   O663    1.376   .     S
C590   C592    1.391   .     A
C590   C598    1.406   .     A
C591   C600    1.405   .     A
C591   C593    1.406   .     A
C591   O664    1.374   .     S
C592   H749    1.078   .     S
C593   H835    1.084   1_455 S
C594   H632    1.067   .     S
C594   C596    1.412   .     A
C595   C597    1.396   .     A
C595   H621    1.081   .     S
C596   C601    1.426   .     A
C596   C598    1.413   .     A
C597   C602    1.407   .     A
C597   C600    1.398   .     A
C598   C1478   1.396   .     S
C599   C602    1.424   .     A
C599   C603    1.523   .     S
C599   C614    1.399   .     A
C600   C1479   1.404   1_554 S
C601   C610    1.425   .     A
C601   C1466   1.430   .     S
C602   C1465   1.430   1_554 S
C603   H622    1.109   .     S
C603   H623    1.111   .     S
C603   H658    1.105   .     S
C604   H625    1.111   .     S
C604   H626    1.111   .     S
C604   H624    1.111   .     S
C604   C610    1.511   .     S
C605   H627    1.111   .     S
C605   H629    1.107   .     S
C605   C616    1.519   .     S
C605   H628    1.111   .     S
C606   H630    1.111   .     S
C606   H633    1.111   .     S
C606   C617    1.517   .     S
C606   H631    1.104   .     S
C607   C618    1.518   .     S
C607   H634    1.111   .     S
C607   H635    1.110   .     S
C607   H636    1.106   .     S
C608   H639    1.111   .     S
C608   H637    1.111   .     S
C608   H638    1.103   .     S
C609   H641    1.107   .     S
C609   H642    1.083   .     S
C609   H640    1.110   .     S
C610   C615    1.414   .     A
C611   H646    1.084   .     S
C611   H644    1.107   .     S
C611   H645    1.107   .     S
C612   H647    1.085   .     S
C612   H649    1.108   .     S
C612   H648    1.105   .     S
C613   H650    1.086   .     S
C613   H651    1.110   .     S
C613   H652    1.106   .     S
C614   O672    1.377   .     S
C614   C1462   1.396   1_554 S
C615   O662    1.375   .     S
C615   C1464   1.404   .     S
C616   C676    1.416   .     S
C617   C771    1.413   1_455 S
C617   C2      1.399   1_565 S
C618   C40     1.401   1_565 S
Cu619  N659    2.063   .     S
Cu619  O671    1.974   .     S
Cu619  O661    1.973   .     S
Cu619  O667    1.970   .     S
Cu619  O668    1.970   .     S
Cu619  Cu812   2.745   1_455 S
Cu620  O669    1.970   .     S
Cu620  O666    1.970   .     S
Cu620  N660    2.063   .     S
Cu620  O670    1.974   .     S
Cu620  O665    1.973   .     S
Cu620  Cu715   2.745   .     S
H643   C689    1.084   .     S
H653   C784    1.078   1_455 S
H654   O672    0.992   .     S
H655   O662    0.991   .     S
H656   O855    0.992   1_455 S
H657   O760    0.992   .     S
O663   H752    0.992   .     S
O664   H849    0.992   1_455 S
O666   C673    1.318   .     S
O667   C780    1.321   1_455 S
O668   C777    1.318   1_455 S
O669   C682    1.316   .     S
C673   O757    1.319   .     A
C673   C676    1.479   .     S
C674   C704    1.516   .     S
C674   C676    1.415   .     A
C675   C714    1.418   .     A
C675   C684    1.479   .     S
C675   C809    1.413   .     S
C677   C705    1.519   .     S
C677   C679    1.442   .     A
C677   N756    1.383   .     A
C678   C707    1.518   .     S
C678   C680    1.443   .     A
C678   N755    1.385   .     A
C679   N755    1.385   .     A
C679   C708    1.515   .     S
C680   C709    1.519   .     S
C680   N756    1.385   .     A
C681   C683    1.460   .     S
C681   O766    1.309   .     A
C681   O860    1.318   .     S
C682   O767    1.310   .     A
C682   C685    1.455   .     S
C683   C690    1.399   .     A
C683   C688    1.386   .     A
C684   O761    1.316   .     A
C684   O859    1.321   .     S
C685   C691    1.397   .     A
C685   C689    1.398   .     A
C686   O759    1.376   .     S
C686   C688    1.391   .     A
C686   C694    1.406   .     A
C687   C696    1.405   .     A
C687   C689    1.406   .     A
C687   O760    1.374   .     S
C688   H845    1.078   .     S
C690   H728    1.067   .     S
C690   C692    1.412   .     A
C691   C693    1.396   .     A
C691   H717    1.081   .     S
C692   C697    1.426   .     A
C692   C694    1.413   .     A
C693   C698    1.407   .     A
C693   C696    1.398   .     A
C694   C1574   1.396   .     S
C695   C698    1.424   .     A
C695   C699    1.523   .     S
C695   C710    1.399   .     A
C696   C1575   1.404   1_554 S
C697   C706    1.425   .     A
C697   C1562   1.430   .     S
C698   C1561   1.430   1_554 S
C699   H718    1.109   .     S
C699   H719    1.111   .     S
C699   H754    1.105   .     S
C700   H721    1.111   .     S
C700   H722    1.111   .     S
C700   H720    1.111   .     S
C700   C706    1.511   .     S
C701   H723    1.111   .     S
C701   H725    1.107   .     S
C701   C712    1.519   .     S
C701   H724    1.111   .     S
C702   H726    1.111   .     S
C702   H729    1.111   .     S
C702   C713    1.517   .     S
C702   H727    1.104   .     S
C703   C714    1.518   .     S
C703   H730    1.111   .     S
C703   H731    1.110   .     S
C703   H732    1.106   .     S
C704   H735    1.111   .     S
C704   H733    1.111   .     S
C704   H734    1.103   .     S
C705   H737    1.107   .     S
C705   H738    1.083   .     S
C705   H736    1.110   .     S
C706   C711    1.414   .     A
C707   H742    1.084   .     S
C707   H740    1.107   .     S
C707   H741    1.107   .     S
C708   H743    1.085   .     S
C708   H745    1.108   .     S
C708   H744    1.105   .     S
C709   H746    1.086   .     S
C709   H747    1.110   .     S
C709   H748    1.106   .     S
C710   O768    1.377   .     S
C710   C1558   1.396   1_554 S
C711   O758    1.375   .     S
C711   C1560   1.404   .     S
C712   C772    1.416   .     S
C713   C98     1.399   1_565 S
C714   C136    1.401   1_565 S
Cu715  N755    2.063   .     S
Cu715  O767    1.974   .     S
Cu715  O757    1.973   .     S
Cu715  O763    1.970   .     S
Cu715  O764    1.970   .     S
Cu716  O765    1.970   .     S
Cu716  O762    1.970   .     S
Cu716  N756    2.063   .     S
Cu716  O766    1.974   .     S
Cu716  O761    1.973   .     S
Cu716  Cu811   2.745   .     S
H739   C785    1.084   .     S
H750   O768    0.992   .     S
H751   O758    0.991   .     S
H753   O856    0.992   .     S
O759   H848    0.992   .     S
O762   C769    1.318   .     S
O765   C778    1.316   .     S
C769   O853    1.319   .     A
C769   C772    1.479   .     S
C770   C800    1.516   .     S
C770   C772    1.415   .     A
C771   C810    1.418   .     A
C771   C780    1.479   .     S
C771   C617    1.413   1_655 S
C773   C801    1.519   .     S
C773   C775    1.442   .     A
C773   N852    1.383   .     A
C774   C803    1.518   .     S
C774   C776    1.443   .     A
C774   N851    1.385   .     A
C775   N851    1.385   .     A
C775   C804    1.515   .     S
C776   C805    1.519   .     S
C776   N852    1.385   .     A
C777   C779    1.460   .     S
C777   O862    1.309   .     A
C777   O668    1.318   1_655 S
C778   O863    1.310   .     A
C778   C781    1.455   .     S
C779   C786    1.399   .     A
C779   C784    1.386   .     A
C780   O857    1.316   .     A
C780   O667    1.321   1_655 S
C781   C787    1.397   .     A
C781   C785    1.398   .     A
C782   O855    1.376   .     S
C782   C784    1.391   .     A
C782   C790    1.406   .     A
C783   C792    1.405   .     A
C783   C785    1.406   .     A
C783   O856    1.374   .     S
C784   H653    1.078   1_655 S
C786   H824    1.067   .     S
C786   C788    1.412   .     A
C787   C789    1.396   .     A
C787   H813    1.081   .     S
C788   C793    1.426   .     A
C788   C790    1.413   .     A
C789   C794    1.407   .     A
C789   C792    1.398   .     A
C790   C1670   1.396   .     S
C791   C794    1.424   .     A
C791   C795    1.523   .     S
C791   C806    1.399   .     A
C792   C1671   1.404   1_554 S
C793   C802    1.425   .     A
C793   C1658   1.430   .     S
C794   C1657   1.430   1_554 S
C795   H814    1.109   .     S
C795   H815    1.111   .     S
C795   H850    1.105   .     S
C796   H817    1.111   .     S
C796   H818    1.111   .     S
C796   H816    1.111   .     S
C796   C802    1.511   .     S
C797   H819    1.111   .     S
C797   H821    1.107   .     S
C797   C808    1.519   .     S
C797   H820    1.111   .     S
C798   H822    1.111   .     S
C798   H825    1.111   .     S
C798   C809    1.517   .     S
C798   H823    1.104   .     S
C799   C810    1.518   .     S
C799   H826    1.111   .     S
C799   H827    1.110   .     S
C799   H828    1.106   .     S
C800   H831    1.111   .     S
C800   H829    1.111   .     S
C800   H830    1.103   .     S
C801   H833    1.107   .     S
C801   H834    1.083   .     S
C801   H832    1.110   .     S
C802   C807    1.414   .     A
C803   H838    1.084   .     S
C803   H836    1.107   .     S
C803   H837    1.107   .     S
C804   H839    1.085   .     S
C804   H841    1.108   .     S
C804   H840    1.105   .     S
C805   H842    1.086   .     S
C805   H843    1.110   .     S
C805   H844    1.106   .     S
C806   O864    1.377   .     S
C806   C1654   1.396   1_554 S
C807   O854    1.375   .     S
C807   C1656   1.404   .     S
C808   C580    1.416   1_655 S
C809   C194    1.399   1_565 S
C810   C232    1.401   1_565 S
Cu811  N851    2.063   .     S
Cu811  O863    1.974   .     S
Cu811  O853    1.973   .     S
Cu811  O859    1.970   .     S
Cu811  O860    1.970   .     S
Cu812  O861    1.970   .     S
Cu812  O858    1.970   .     S
Cu812  N852    2.063   .     S
Cu812  O862    1.974   .     S
Cu812  O857    1.973   .     S
Cu812  Cu619   2.745   1_655 S
H835   C593    1.084   1_655 S
H846   O864    0.992   .     S
H847   O854    0.991   .     S
H849   O664    0.992   1_655 S
O855   H656    0.992   1_655 S
O858   C577    1.318   1_655 S
O861   C586    1.316   1_655 S
C865   O949    1.319   .     A
C865   C868    1.479   .     S
C865   O1146   1.318   1_455 S
C866   C896    1.516   .     S
C866   C868    1.415   .     A
C866   C1481   1.399   1_545 S
C867   C906    1.418   .     A
C867   C876    1.479   .     S
C867   C1001   1.413   .     S
C868   C1096   1.416   1_455 S
C869   C897    1.519   .     S
C869   C871    1.442   .     A
C869   N948    1.383   .     A
C870   C899    1.518   .     S
C870   C872    1.443   .     A
C870   N947    1.385   .     A
C871   N947    1.385   .     A
C871   C900    1.515   .     S
C872   C901    1.519   .     S
C872   N948    1.385   .     A
C873   C875    1.460   .     S
C873   O958    1.309   .     A
C873   O1052   1.318   .     S
C874   O959    1.310   .     A
C874   C877    1.455   .     S
C874   O1149   1.316   1_455 S
C875   C882    1.399   .     A
C875   C880    1.386   .     A
C876   O953    1.316   .     A
C876   O1051   1.321   .     S
C877   C883    1.397   .     A
C877   C881    1.398   .     A
C878   O951    1.376   .     S
C878   C880    1.391   .     A
C878   C886    1.406   .     A
C879   C888    1.405   .     A
C879   C881    1.406   .     A
C879   O952    1.374   .     S
C880   H1037   1.078   .     S
C881   H1123   1.084   1_455 S
C882   H920    1.067   .     S
C882   C884    1.412   .     A
C883   C885    1.396   .     A
C883   H909    1.081   .     S
C884   C889    1.426   .     A
C884   C886    1.413   .     A
C885   C890    1.407   .     A
C885   C888    1.398   .     A
C886   C38     1.396   1_556 S
C887   C890    1.424   .     A
C887   C891    1.523   .     S
C887   C902    1.399   .     A
C889   C898    1.425   .     A
C889   C26     1.430   1_556 S
C891   H910    1.109   .     S
C891   H911    1.111   .     S
C891   H946    1.105   .     S
C892   H913    1.111   .     S
C892   H914    1.111   .     S
C892   H912    1.111   .     S
C892   C898    1.511   .     S
C893   H915    1.111   .     S
C893   H917    1.107   .     S
C893   C904    1.519   .     S
C893   H916    1.111   .     S
C894   H918    1.111   .     S
C894   H921    1.111   .     S
C894   C905    1.517   .     S
C894   H919    1.104   .     S
C895   C906    1.518   .     S
C895   H922    1.111   .     S
C895   H923    1.110   .     S
C895   H924    1.106   .     S
C896   H927    1.111   .     S
C896   H925    1.111   .     S
C896   H926    1.103   .     S
C897   H929    1.107   .     S
C897   H930    1.083   .     S
C897   H928    1.110   .     S
C898   C903    1.414   .     A
C899   H934    1.084   .     S
C899   H932    1.107   .     S
C899   H933    1.107   .     S
C900   H935    1.085   .     S
C900   H937    1.108   .     S
C900   H936    1.105   .     S
C901   H938    1.086   .     S
C901   H939    1.110   .     S
C901   H940    1.106   .     S
C902   O960    1.377   .     S
C903   O950    1.375   .     S
C903   C24     1.404   1_556 S
C904   C964    1.416   .     S
C904   C1482   1.401   1_545 S
C905   C1059   1.413   1_455 S
C905   C1154   1.399   .     S
C906   C1192   1.401   .     S
Cu907  N947    2.063   .     S
Cu907  O959    1.974   .     S
Cu907  O949    1.973   .     S
Cu907  O955    1.970   .     S
Cu907  O956    1.970   .     S
Cu907  Cu1100  2.745   1_455 S
Cu908  O957    1.970   .     S
Cu908  O954    1.970   .     S
Cu908  N948    2.063   .     S
Cu908  O958    1.974   .     S
Cu908  O953    1.973   .     S
Cu908  Cu1003  2.745   .     S
H931   C977    1.084   .     S
H941   C1072   1.078   1_455 S
H942   O960    0.992   .     S
H943   O950    0.991   .     S
H944   O1143   0.992   1_455 S
H945   O1048   0.992   .     S
O951   H1040   0.992   .     S
O952   H1137   0.992   1_455 S
O954   C961    1.318   .     S
O955   C1068   1.321   1_455 S
O956   C1065   1.318   1_455 S
O957   C970    1.316   .     S
C961   O1045   1.319   .     A
C961   C964    1.479   .     S
C962   C992    1.516   .     S
C962   C964    1.415   .     A
C962   C1577   1.399   1_545 S
C963   C1002   1.418   .     A
C963   C972    1.479   .     S
C963   C1097   1.413   .     S
C965   C993    1.519   .     S
C965   C967    1.442   .     A
C965   N1044   1.383   .     A
C966   C995    1.518   .     S
C966   C968    1.443   .     A
C966   N1043   1.385   .     A
C967   N1043   1.385   .     A
C967   C996    1.515   .     S
C968   C997    1.519   .     S
C968   N1044   1.385   .     A
C969   C971    1.460   .     S
C969   O1054   1.309   .     A
C969   O1148   1.318   .     S
C970   O1055   1.310   .     A
C970   C973    1.455   .     S
C971   C978    1.399   .     A
C971   C976    1.386   .     A
C972   O1049   1.316   .     A
C972   O1147   1.321   .     S
C973   C979    1.397   .     A
C973   C977    1.398   .     A
C974   O1047   1.376   .     S
C974   C976    1.391   .     A
C974   C982    1.406   .     A
C975   C984    1.405   .     A
C975   C977    1.406   .     A
C975   O1048   1.374   .     S
C976   H1133   1.078   .     S
C978   H1016   1.067   .     S
C978   C980    1.412   .     A
C979   C981    1.396   .     A
C979   H1005   1.081   .     S
C980   C985    1.426   .     A
C980   C982    1.413   .     A
C981   C986    1.407   .     A
C981   C984    1.398   .     A
C982   C134    1.396   1_556 S
C983   C986    1.424   .     A
C983   C987    1.523   .     S
C983   C998    1.399   .     A
C985   C994    1.425   .     A
C985   C122    1.430   1_556 S
C987   H1006   1.109   .     S
C987   H1007   1.111   .     S
C987   H1042   1.105   .     S
C988   H1009   1.111   .     S
C988   H1010   1.111   .     S
C988   H1008   1.111   .     S
C988   C994    1.511   .     S
C989   H1011   1.111   .     S
C989   H1013   1.107   .     S
C989   C1000   1.519   .     S
C989   H1012   1.111   .     S
C990   H1014   1.111   .     S
C990   H1017   1.111   .     S
C990   C1001   1.517   .     S
C990   H1015   1.104   .     S
C991   C1002   1.518   .     S
C991   H1018   1.111   .     S
C991   H1019   1.110   .     S
C991   H1020   1.106   .     S
C992   H1023   1.111   .     S
C992   H1021   1.111   .     S
C992   H1022   1.103   .     S
C993   H1025   1.107   .     S
C993   H1026   1.083   .     S
C993   H1024   1.110   .     S
C994   C999    1.414   .     A
C995   H1030   1.084   .     S
C995   H1028   1.107   .     S
C995   H1029   1.107   .     S
C996   H1031   1.085   .     S
C996   H1033   1.108   .     S
C996   H1032   1.105   .     S
C997   H1034   1.086   .     S
C997   H1035   1.110   .     S
C997   H1036   1.106   .     S
C998   O1056   1.377   .     S
C999   O1046   1.375   .     S
C999   C120    1.404   1_556 S
C1000  C1060   1.416   .     S
C1000  C1578   1.401   1_545 S
C1001  C1250   1.399   .     S
C1002  C1288   1.401   .     S
Cu1003 N1043   2.063   .     S
Cu1003 O1055   1.974   .     S
Cu1003 O1045   1.973   .     S
Cu1003 O1051   1.970   .     S
Cu1003 O1052   1.970   .     S
Cu1004 O1053   1.970   .     S
Cu1004 O1050   1.970   .     S
Cu1004 N1044   2.063   .     S
Cu1004 O1054   1.974   .     S
Cu1004 O1049   1.973   .     S
Cu1004 Cu1099  2.745   .     S
H1027  C1073   1.084   .     S
H1038  O1056   0.992   .     S
H1039  O1046   0.991   .     S
H1041  O1144   0.992   .     S
O1047  H1136   0.992   .     S
O1050  C1057   1.318   .     S
O1053  C1066   1.316   .     S
C1057  O1141   1.319   .     A
C1057  C1060   1.479   .     S
C1058  C1088   1.516   .     S
C1058  C1060   1.415   .     A
C1058  C1673   1.399   1_545 S
C1059  C1098   1.418   .     A
C1059  C1068   1.479   .     S
C1059  C905    1.413   1_655 S
C1061  C1089   1.519   .     S
C1061  C1063   1.442   .     A
C1061  N1140   1.383   .     A
C1062  C1091   1.518   .     S
C1062  C1064   1.443   .     A
C1062  N1139   1.385   .     A
C1063  N1139   1.385   .     A
C1063  C1092   1.515   .     S
C1064  C1093   1.519   .     S
C1064  N1140   1.385   .     A
C1065  C1067   1.460   .     S
C1065  O1150   1.309   .     A
C1065  O956    1.318   1_655 S
C1066  O1151   1.310   .     A
C1066  C1069   1.455   .     S
C1067  C1074   1.399   .     A
C1067  C1072   1.386   .     A
C1068  O1145   1.316   .     A
C1068  O955    1.321   1_655 S
C1069  C1075   1.397   .     A
C1069  C1073   1.398   .     A
C1070  O1143   1.376   .     S
C1070  C1072   1.391   .     A
C1070  C1078   1.406   .     A
C1071  C1080   1.405   .     A
C1071  C1073   1.406   .     A
C1071  O1144   1.374   .     S
C1072  H941    1.078   1_655 S
C1074  H1112   1.067   .     S
C1074  C1076   1.412   .     A
C1075  C1077   1.396   .     A
C1075  H1101   1.081   .     S
C1076  C1081   1.426   .     A
C1076  C1078   1.413   .     A
C1077  C1082   1.407   .     A
C1077  C1080   1.398   .     A
C1078  C230    1.396   1_556 S
C1079  C1082   1.424   .     A
C1079  C1083   1.523   .     S
C1079  C1094   1.399   .     A
C1081  C1090   1.425   .     A
C1081  C218    1.430   1_556 S
C1083  H1102   1.109   .     S
C1083  H1103   1.111   .     S
C1083  H1138   1.105   .     S
C1084  H1105   1.111   .     S
C1084  H1106   1.111   .     S
C1084  H1104   1.111   .     S
C1084  C1090   1.511   .     S
C1085  H1107   1.111   .     S
C1085  H1109   1.107   .     S
C1085  C1096   1.519   .     S
C1085  H1108   1.111   .     S
C1086  H1110   1.111   .     S
C1086  H1113   1.111   .     S
C1086  C1097   1.517   .     S
C1086  H1111   1.104   .     S
C1087  C1098   1.518   .     S
C1087  H1114   1.111   .     S
C1087  H1115   1.110   .     S
C1087  H1116   1.106   .     S
C1088  H1119   1.111   .     S
C1088  H1117   1.111   .     S
C1088  H1118   1.103   .     S
C1089  H1121   1.107   .     S
C1089  H1122   1.083   .     S
C1089  H1120   1.110   .     S
C1090  C1095   1.414   .     A
C1091  H1126   1.084   .     S
C1091  H1124   1.107   .     S
C1091  H1125   1.107   .     S
C1092  H1127   1.085   .     S
C1092  H1129   1.108   .     S
C1092  H1128   1.105   .     S
C1093  H1130   1.086   .     S
C1093  H1131   1.110   .     S
C1093  H1132   1.106   .     S
C1094  O1152   1.377   .     S
C1095  O1142   1.375   .     S
C1095  C216    1.404   1_556 S
C1096  C868    1.416   1_655 S
C1096  C1674   1.401   1_545 S
C1097  C1346   1.399   .     S
C1098  C1384   1.401   .     S
Cu1099 N1139   2.063   .     S
Cu1099 O1151   1.974   .     S
Cu1099 O1141   1.973   .     S
Cu1099 O1147   1.970   .     S
Cu1099 O1148   1.970   .     S
Cu1100 O1149   1.970   .     S
Cu1100 O1146   1.970   .     S
Cu1100 N1140   2.063   .     S
Cu1100 O1150   1.974   .     S
Cu1100 O1145   1.973   .     S
Cu1100 Cu907   2.745   1_655 S
H1123  C881    1.084   1_655 S
H1134  O1152   0.992   .     S
H1135  O1142   0.991   .     S
H1137  O952    0.992   1_655 S
O1143  H944    0.992   1_655 S
O1146  C865    1.318   1_655 S
O1149  C874    1.316   1_655 S
C1153  O1237   1.319   .     A
C1153  C1156   1.479   .     S
C1153  O1434   1.318   1_455 S
C1154  C1184   1.516   .     S
C1154  C1156   1.415   .     A
C1155  C1194   1.418   .     A
C1155  C1164   1.479   .     S
C1155  C1289   1.413   .     S
C1156  C1384   1.416   1_455 S
C1157  C1185   1.519   .     S
C1157  C1159   1.442   .     A
C1157  N1236   1.383   .     A
C1158  C1187   1.518   .     S
C1158  C1160   1.443   .     A
C1158  N1235   1.385   .     A
C1159  N1235   1.385   .     A
C1159  C1188   1.515   .     S
C1160  C1189   1.519   .     S
C1160  N1236   1.385   .     A
C1161  C1163   1.460   .     S
C1161  O1246   1.309   .     A
C1161  O1340   1.318   .     S
C1162  O1247   1.310   .     A
C1162  C1165   1.455   .     S
C1162  O1437   1.316   1_455 S
C1163  C1170   1.399   .     A
C1163  C1168   1.386   .     A
C1164  O1241   1.316   .     A
C1164  O1339   1.321   .     S
C1165  C1171   1.397   .     A
C1165  C1169   1.398   .     A
C1166  O1239   1.376   .     S
C1166  C1168   1.391   .     A
C1166  C1174   1.406   .     A
C1167  C1176   1.405   .     A
C1167  C1169   1.406   .     A
C1167  O1240   1.374   .     S
C1168  H1325   1.078   .     S
C1169  H1411   1.084   1_455 S
C1170  H1208   1.067   .     S
C1170  C1172   1.412   .     A
C1171  C1173   1.396   .     A
C1171  H1197   1.081   .     S
C1172  C1177   1.426   .     A
C1172  C1174   1.413   .     A
C1173  C1178   1.407   .     A
C1173  C1176   1.398   .     A
C1174  C326    1.396   1_556 S
C1175  C1178   1.424   .     A
C1175  C1179   1.523   .     S
C1175  C1190   1.399   .     A
C1177  C1186   1.425   .     A
C1177  C314    1.430   1_556 S
C1179  H1198   1.109   .     S
C1179  H1199   1.111   .     S
C1179  H1234   1.105   .     S
C1180  H1201   1.111   .     S
C1180  H1202   1.111   .     S
C1180  H1200   1.111   .     S
C1180  C1186   1.511   .     S
C1181  H1203   1.111   .     S
C1181  H1205   1.107   .     S
C1181  C1192   1.519   .     S
C1181  H1204   1.111   .     S
C1182  H1206   1.111   .     S
C1182  H1209   1.111   .     S
C1182  C1193   1.517   .     S
C1182  H1207   1.104   .     S
C1183  C1194   1.518   .     S
C1183  H1210   1.111   .     S
C1183  H1211   1.110   .     S
C1183  H1212   1.106   .     S
C1184  H1215   1.111   .     S
C1184  H1213   1.111   .     S
C1184  H1214   1.103   .     S
C1185  H1217   1.107   .     S
C1185  H1218   1.083   .     S
C1185  H1216   1.110   .     S
C1186  C1191   1.414   .     A
C1187  H1222   1.084   .     S
C1187  H1220   1.107   .     S
C1187  H1221   1.107   .     S
C1188  H1223   1.085   .     S
C1188  H1225   1.108   .     S
C1188  H1224   1.105   .     S
C1189  H1226   1.086   .     S
C1189  H1227   1.110   .     S
C1189  H1228   1.106   .     S
C1190  O1248   1.377   .     S
C1191  O1238   1.375   .     S
C1191  C312    1.404   1_556 S
C1192  C1252   1.416   .     S
C1193  C1347   1.413   1_455 S
C1193  C1442   1.399   .     S
C1194  C1480   1.401   .     S
Cu1195 N1235   2.063   .     S
Cu1195 O1247   1.974   .     S
Cu1195 O1237   1.973   .     S
Cu1195 O1243   1.970   .     S
Cu1195 O1244   1.970   .     S
Cu1195 Cu1388  2.745   1_455 S
Cu1196 O1245   1.970   .     S
Cu1196 O1242   1.970   .     S
Cu1196 N1236   2.063   .     S
Cu1196 O1246   1.974   .     S
Cu1196 O1241   1.973   .     S
Cu1196 Cu1291  2.745   .     S
H1219  C1265   1.084   .     S
H1229  C1360   1.078   1_455 S
H1230  O1248   0.992   .     S
H1231  O1238   0.991   .     S
H1232  O1431   0.992   1_455 S
H1233  O1336   0.992   .     S
O1239  H1328   0.992   .     S
O1240  H1425   0.992   1_455 S
O1242  C1249   1.318   .     S
O1243  C1356   1.321   1_455 S
O1244  C1353   1.318   1_455 S
O1245  C1258   1.316   .     S
C1249  O1333   1.319   .     A
C1249  C1252   1.479   .     S
C1250  C1280   1.516   .     S
C1250  C1252   1.415   .     A
C1251  C1290   1.418   .     A
C1251  C1260   1.479   .     S
C1251  C1385   1.413   .     S
C1253  C1281   1.519   .     S
C1253  C1255   1.442   .     A
C1253  N1332   1.383   .     A
C1254  C1283   1.518   .     S
C1254  C1256   1.443   .     A
C1254  N1331   1.385   .     A
C1255  N1331   1.385   .     A
C1255  C1284   1.515   .     S
C1256  C1285   1.519   .     S
C1256  N1332   1.385   .     A
C1257  C1259   1.460   .     S
C1257  O1342   1.309   .     A
C1257  O1436   1.318   .     S
C1258  O1343   1.310   .     A
C1258  C1261   1.455   .     S
C1259  C1266   1.399   .     A
C1259  C1264   1.386   .     A
C1260  O1337   1.316   .     A
C1260  O1435   1.321   .     S
C1261  C1267   1.397   .     A
C1261  C1265   1.398   .     A
C1262  O1335   1.376   .     S
C1262  C1264   1.391   .     A
C1262  C1270   1.406   .     A
C1263  C1272   1.405   .     A
C1263  C1265   1.406   .     A
C1263  O1336   1.374   .     S
C1264  H1421   1.078   .     S
C1266  H1304   1.067   .     S
C1266  C1268   1.412   .     A
C1267  C1269   1.396   .     A
C1267  H1293   1.081   .     S
C1268  C1273   1.426   .     A
C1268  C1270   1.413   .     A
C1269  C1274   1.407   .     A
C1269  C1272   1.398   .     A
C1270  C422    1.396   1_556 S
C1271  C1274   1.424   .     A
C1271  C1275   1.523   .     S
C1271  C1286   1.399   .     A
C1273  C1282   1.425   .     A
C1273  C410    1.430   1_556 S
C1275  H1294   1.109   .     S
C1275  H1295   1.111   .     S
C1275  H1330   1.105   .     S
C1276  H1297   1.111   .     S
C1276  H1298   1.111   .     S
C1276  H1296   1.111   .     S
C1276  C1282   1.511   .     S
C1277  H1299   1.111   .     S
C1277  H1301   1.107   .     S
C1277  C1288   1.519   .     S
C1277  H1300   1.111   .     S
C1278  H1302   1.111   .     S
C1278  H1305   1.111   .     S
C1278  C1289   1.517   .     S
C1278  H1303   1.104   .     S
C1279  C1290   1.518   .     S
C1279  H1306   1.111   .     S
C1279  H1307   1.110   .     S
C1279  H1308   1.106   .     S
C1280  H1311   1.111   .     S
C1280  H1309   1.111   .     S
C1280  H1310   1.103   .     S
C1281  H1313   1.107   .     S
C1281  H1314   1.083   .     S
C1281  H1312   1.110   .     S
C1282  C1287   1.414   .     A
C1283  H1318   1.084   .     S
C1283  H1316   1.107   .     S
C1283  H1317   1.107   .     S
C1284  H1319   1.085   .     S
C1284  H1321   1.108   .     S
C1284  H1320   1.105   .     S
C1285  H1322   1.086   .     S
C1285  H1323   1.110   .     S
C1285  H1324   1.106   .     S
C1286  O1344   1.377   .     S
C1287  O1334   1.375   .     S
C1287  C408    1.404   1_556 S
C1288  C1348   1.416   .     S
C1289  C1538   1.399   .     S
C1290  C1576   1.401   .     S
Cu1291 N1331   2.063   .     S
Cu1291 O1343   1.974   .     S
Cu1291 O1333   1.973   .     S
Cu1291 O1339   1.970   .     S
Cu1291 O1340   1.970   .     S
Cu1292 O1341   1.970   .     S
Cu1292 O1338   1.970   .     S
Cu1292 N1332   2.063   .     S
Cu1292 O1342   1.974   .     S
Cu1292 O1337   1.973   .     S
Cu1292 Cu1387  2.745   .     S
H1315  C1361   1.084   .     S
H1326  O1344   0.992   .     S
H1327  O1334   0.991   .     S
H1329  O1432   0.992   .     S
O1335  H1424   0.992   .     S
O1338  C1345   1.318   .     S
O1341  C1354   1.316   .     S
C1345  O1429   1.319   .     A
C1345  C1348   1.479   .     S
C1346  C1376   1.516   .     S
C1346  C1348   1.415   .     A
C1347  C1386   1.418   .     A
C1347  C1356   1.479   .     S
C1347  C1193   1.413   1_655 S
C1349  C1377   1.519   .     S
C1349  C1351   1.442   .     A
C1349  N1428   1.383   .     A
C1350  C1379   1.518   .     S
C1350  C1352   1.443   .     A
C1350  N1427   1.385   .     A
C1351  N1427   1.385   .     A
C1351  C1380   1.515   .     S
C1352  C1381   1.519   .     S
C1352  N1428   1.385   .     A
C1353  C1355   1.460   .     S
C1353  O1438   1.309   .     A
C1353  O1244   1.318   1_655 S
C1354  O1439   1.310   .     A
C1354  C1357   1.455   .     S
C1355  C1362   1.399   .     A
C1355  C1360   1.386   .     A
C1356  O1433   1.316   .     A
C1356  O1243   1.321   1_655 S
C1357  C1363   1.397   .     A
C1357  C1361   1.398   .     A
C1358  O1431   1.376   .     S
C1358  C1360   1.391   .     A
C1358  C1366   1.406   .     A
C1359  C1368   1.405   .     A
C1359  C1361   1.406   .     A
C1359  O1432   1.374   .     S
C1360  H1229   1.078   1_655 S
C1362  H1400   1.067   .     S
C1362  C1364   1.412   .     A
C1363  C1365   1.396   .     A
C1363  H1389   1.081   .     S
C1364  C1369   1.426   .     A
C1364  C1366   1.413   .     A
C1365  C1370   1.407   .     A
C1365  C1368   1.398   .     A
C1366  C518    1.396   1_556 S
C1367  C1370   1.424   .     A
C1367  C1371   1.523   .     S
C1367  C1382   1.399   .     A
C1369  C1378   1.425   .     A
C1369  C506    1.430   1_556 S
C1371  H1390   1.109   .     S
C1371  H1391   1.111   .     S
C1371  H1426   1.105   .     S
C1372  H1393   1.111   .     S
C1372  H1394   1.111   .     S
C1372  H1392   1.111   .     S
C1372  C1378   1.511   .     S
C1373  H1395   1.111   .     S
C1373  H1397   1.107   .     S
C1373  C1384   1.519   .     S
C1373  H1396   1.111   .     S
C1374  H1398   1.111   .     S
C1374  H1401   1.111   .     S
C1374  C1385   1.517   .     S
C1374  H1399   1.104   .     S
C1375  C1386   1.518   .     S
C1375  H1402   1.111   .     S
C1375  H1403   1.110   .     S
C1375  H1404   1.106   .     S
C1376  H1407   1.111   .     S
C1376  H1405   1.111   .     S
C1376  H1406   1.103   .     S
C1377  H1409   1.107   .     S
C1377  H1410   1.083   .     S
C1377  H1408   1.110   .     S
C1378  C1383   1.414   .     A
C1379  H1414   1.084   .     S
C1379  H1412   1.107   .     S
C1379  H1413   1.107   .     S
C1380  H1415   1.085   .     S
C1380  H1417   1.108   .     S
C1380  H1416   1.105   .     S
C1381  H1418   1.086   .     S
C1381  H1419   1.110   .     S
C1381  H1420   1.106   .     S
C1382  O1440   1.377   .     S
C1383  O1430   1.375   .     S
C1383  C504    1.404   1_556 S
C1384  C1156   1.416   1_655 S
C1385  C1634   1.399   .     S
C1386  C1672   1.401   .     S
Cu1387 N1427   2.063   .     S
Cu1387 O1439   1.974   .     S
Cu1387 O1429   1.973   .     S
Cu1387 O1435   1.970   .     S
Cu1387 O1436   1.970   .     S
Cu1388 O1437   1.970   .     S
Cu1388 O1434   1.970   .     S
Cu1388 N1428   2.063   .     S
Cu1388 O1438   1.974   .     S
Cu1388 O1433   1.973   .     S
Cu1388 Cu1195  2.745   1_655 S
H1411  C1169   1.084   1_655 S
H1422  O1440   0.992   .     S
H1423  O1430   0.991   .     S
H1425  O1240   0.992   1_655 S
O1431  H1232   0.992   1_655 S
O1434  C1153   1.318   1_655 S
O1437  C1162   1.316   1_655 S
C1441  O1525   1.319   .     A
C1441  C1444   1.479   .     S
C1441  O1722   1.318   1_455 S
C1442  C1472   1.516   .     S
C1442  C1444   1.415   .     A
C1443  C1482   1.418   .     A
C1443  C1452   1.479   .     S
C1443  C1577   1.413   .     S
C1444  C1672   1.416   1_455 S
C1445  C1473   1.519   .     S
C1445  C1447   1.442   .     A
C1445  N1524   1.383   .     A
C1446  C1475   1.518   .     S
C1446  C1448   1.443   .     A
C1446  N1523   1.385   .     A
C1447  N1523   1.385   .     A
C1447  C1476   1.515   .     S
C1448  C1477   1.519   .     S
C1448  N1524   1.385   .     A
C1449  C1451   1.460   .     S
C1449  O1534   1.309   .     A
C1449  O1628   1.318   .     S
C1450  O1535   1.310   .     A
C1450  C1453   1.455   .     S
C1450  O1725   1.316   1_455 S
C1451  C1458   1.399   .     A
C1451  C1456   1.386   .     A
C1452  O1529   1.316   .     A
C1452  O1627   1.321   .     S
C1453  C1459   1.397   .     A
C1453  C1457   1.398   .     A
C1454  O1527   1.376   .     S
C1454  C1456   1.391   .     A
C1454  C1462   1.406   .     A
C1455  C1464   1.405   .     A
C1455  C1457   1.406   .     A
C1455  O1528   1.374   .     S
C1456  H1613   1.078   .     S
C1457  H1699   1.084   1_455 S
C1458  H1496   1.067   .     S
C1458  C1460   1.412   .     A
C1459  C1461   1.396   .     A
C1459  H1485   1.081   .     S
C1460  C1465   1.426   .     A
C1460  C1462   1.413   .     A
C1461  C1466   1.407   .     A
C1461  C1464   1.398   .     A
C1462  C614    1.396   1_556 S
C1463  C1466   1.424   .     A
C1463  C1467   1.523   .     S
C1463  C1478   1.399   .     A
C1465  C1474   1.425   .     A
C1465  C602    1.430   1_556 S
C1467  H1486   1.109   .     S
C1467  H1487   1.111   .     S
C1467  H1522   1.105   .     S
C1468  H1489   1.111   .     S
C1468  H1490   1.111   .     S
C1468  H1488   1.111   .     S
C1468  C1474   1.511   .     S
C1469  H1491   1.111   .     S
C1469  H1493   1.107   .     S
C1469  C1480   1.519   .     S
C1469  H1492   1.111   .     S
C1470  H1494   1.111   .     S
C1470  H1497   1.111   .     S
C1470  C1481   1.517   .     S
C1470  H1495   1.104   .     S
C1471  C1482   1.518   .     S
C1471  H1498   1.111   .     S
C1471  H1499   1.110   .     S
C1471  H1500   1.106   .     S
C1472  H1503   1.111   .     S
C1472  H1501   1.111   .     S
C1472  H1502   1.103   .     S
C1473  H1505   1.107   .     S
C1473  H1506   1.083   .     S
C1473  H1504   1.110   .     S
C1474  C1479   1.414   .     A
C1475  H1510   1.084   .     S
C1475  H1508   1.107   .     S
C1475  H1509   1.107   .     S
C1476  H1511   1.085   .     S
C1476  H1513   1.108   .     S
C1476  H1512   1.105   .     S
C1477  H1514   1.086   .     S
C1477  H1515   1.110   .     S
C1477  H1516   1.106   .     S
C1478  O1536   1.377   .     S
C1479  O1526   1.375   .     S
C1479  C600    1.404   1_556 S
C1480  C1540   1.416   .     S
C1481  C1635   1.413   1_455 S
C1481  C866    1.399   1_565 S
C1482  C904    1.401   1_565 S
Cu1483 N1523   2.063   .     S
Cu1483 O1535   1.974   .     S
Cu1483 O1525   1.973   .     S
Cu1483 O1531   1.970   .     S
Cu1483 O1532   1.970   .     S
Cu1483 Cu1676  2.745   1_455 S
Cu1484 O1533   1.970   .     S
Cu1484 O1530   1.970   .     S
Cu1484 N1524   2.063   .     S
Cu1484 O1534   1.974   .     S
Cu1484 O1529   1.973   .     S
Cu1484 Cu1579  2.745   .     S
H1507  C1553   1.084   .     S
H1517  C1648   1.078   1_455 S
H1518  O1536   0.992   .     S
H1519  O1526   0.991   .     S
H1520  O1719   0.992   1_455 S
H1521  O1624   0.992   .     S
O1527  H1616   0.992   .     S
O1528  H1713   0.992   1_455 S
O1530  C1537   1.318   .     S
O1531  C1644   1.321   1_455 S
O1532  C1641   1.318   1_455 S
O1533  C1546   1.316   .     S
C1537  O1621   1.319   .     A
C1537  C1540   1.479   .     S
C1538  C1568   1.516   .     S
C1538  C1540   1.415   .     A
C1539  C1578   1.418   .     A
C1539  C1548   1.479   .     S
C1539  C1673   1.413   .     S
C1541  C1569   1.519   .     S
C1541  C1543   1.442   .     A
C1541  N1620   1.383   .     A
C1542  C1571   1.518   .     S
C1542  C1544   1.443   .     A
C1542  N1619   1.385   .     A
C1543  N1619   1.385   .     A
C1543  C1572   1.515   .     S
C1544  C1573   1.519   .     S
C1544  N1620   1.385   .     A
C1545  C1547   1.460   .     S
C1545  O1630   1.309   .     A
C1545  O1724   1.318   .     S
C1546  O1631   1.310   .     A
C1546  C1549   1.455   .     S
C1547  C1554   1.399   .     A
C1547  C1552   1.386   .     A
C1548  O1625   1.316   .     A
C1548  O1723   1.321   .     S
C1549  C1555   1.397   .     A
C1549  C1553   1.398   .     A
C1550  O1623   1.376   .     S
C1550  C1552   1.391   .     A
C1550  C1558   1.406   .     A
C1551  C1560   1.405   .     A
C1551  C1553   1.406   .     A
C1551  O1624   1.374   .     S
C1552  H1709   1.078   .     S
C1554  H1592   1.067   .     S
C1554  C1556   1.412   .     A
C1555  C1557   1.396   .     A
C1555  H1581   1.081   .     S
C1556  C1561   1.426   .     A
C1556  C1558   1.413   .     A
C1557  C1562   1.407   .     A
C1557  C1560   1.398   .     A
C1558  C710    1.396   1_556 S
C1559  C1562   1.424   .     A
C1559  C1563   1.523   .     S
C1559  C1574   1.399   .     A
C1561  C1570   1.425   .     A
C1561  C698    1.430   1_556 S
C1563  H1582   1.109   .     S
C1563  H1583   1.111   .     S
C1563  H1618   1.105   .     S
C1564  H1585   1.111   .     S
C1564  H1586   1.111   .     S
C1564  H1584   1.111   .     S
C1564  C1570   1.511   .     S
C1565  H1587   1.111   .     S
C1565  H1589   1.107   .     S
C1565  C1576   1.519   .     S
C1565  H1588   1.111   .     S
C1566  H1590   1.111   .     S
C1566  H1593   1.111   .     S
C1566  C1577   1.517   .     S
C1566  H1591   1.104   .     S
C1567  C1578   1.518   .     S
C1567  H1594   1.111   .     S
C1567  H1595   1.110   .     S
C1567  H1596   1.106   .     S
C1568  H1599   1.111   .     S
C1568  H1597   1.111   .     S
C1568  H1598   1.103   .     S
C1569  H1601   1.107   .     S
C1569  H1602   1.083   .     S
C1569  H1600   1.110   .     S
C1570  C1575   1.414   .     A
C1571  H1606   1.084   .     S
C1571  H1604   1.107   .     S
C1571  H1605   1.107   .     S
C1572  H1607   1.085   .     S
C1572  H1609   1.108   .     S
C1572  H1608   1.105   .     S
C1573  H1610   1.086   .     S
C1573  H1611   1.110   .     S
C1573  H1612   1.106   .     S
C1574  O1632   1.377   .     S
C1575  O1622   1.375   .     S
C1575  C696    1.404   1_556 S
C1576  C1636   1.416   .     S
C1577  C962    1.399   1_565 S
C1578  C1000   1.401   1_565 S
Cu1579 N1619   2.063   .     S
Cu1579 O1631   1.974   .     S
Cu1579 O1621   1.973   .     S
Cu1579 O1627   1.970   .     S
Cu1579 O1628   1.970   .     S
Cu1580 O1629   1.970   .     S
Cu1580 O1626   1.970   .     S
Cu1580 N1620   2.063   .     S
Cu1580 O1630   1.974   .     S
Cu1580 O1625   1.973   .     S
Cu1580 Cu1675  2.745   .     S
H1603  C1649   1.084   .     S
H1614  O1632   0.992   .     S
H1615  O1622   0.991   .     S
H1617  O1720   0.992   .     S
O1623  H1712   0.992   .     S
O1626  C1633   1.318   .     S
O1629  C1642   1.316   .     S
C1633  O1717   1.319   .     A
C1633  C1636   1.479   .     S
C1634  C1664   1.516   .     S
C1634  C1636   1.415   .     A
C1635  C1674   1.418   .     A
C1635  C1644   1.479   .     S
C1635  C1481   1.413   1_655 S
C1637  C1665   1.519   .     S
C1637  C1639   1.442   .     A
C1637  N1716   1.383   .     A
C1638  C1667   1.518   .     S
C1638  C1640   1.443   .     A
C1638  N1715   1.385   .     A
C1639  N1715   1.385   .     A
C1639  C1668   1.515   .     S
C1640  C1669   1.519   .     S
C1640  N1716   1.385   .     A
C1641  C1643   1.460   .     S
C1641  O1726   1.309   .     A
C1641  O1532   1.318   1_655 S
C1642  O1727   1.310   .     A
C1642  C1645   1.455   .     S
C1643  C1650   1.399   .     A
C1643  C1648   1.386   .     A
C1644  O1721   1.316   .     A
C1644  O1531   1.321   1_655 S
C1645  C1651   1.397   .     A
C1645  C1649   1.398   .     A
C1646  O1719   1.376   .     S
C1646  C1648   1.391   .     A
C1646  C1654   1.406   .     A
C1647  C1656   1.405   .     A
C1647  C1649   1.406   .     A
C1647  O1720   1.374   .     S
C1648  H1517   1.078   1_655 S
C1650  H1688   1.067   .     S
C1650  C1652   1.412   .     A
C1651  C1653   1.396   .     A
C1651  H1677   1.081   .     S
C1652  C1657   1.426   .     A
C1652  C1654   1.413   .     A
C1653  C1658   1.407   .     A
C1653  C1656   1.398   .     A
C1654  C806    1.396   1_556 S
C1655  C1658   1.424   .     A
C1655  C1659   1.523   .     S
C1655  C1670   1.399   .     A
C1657  C1666   1.425   .     A
C1657  C794    1.430   1_556 S
C1659  H1678   1.109   .     S
C1659  H1679   1.111   .     S
C1659  H1714   1.105   .     S
C1660  H1681   1.111   .     S
C1660  H1682   1.111   .     S
C1660  H1680   1.111   .     S
C1660  C1666   1.511   .     S
C1661  H1683   1.111   .     S
C1661  H1685   1.107   .     S
C1661  C1672   1.519   .     S
C1661  H1684   1.111   .     S
C1662  H1686   1.111   .     S
C1662  H1689   1.111   .     S
C1662  C1673   1.517   .     S
C1662  H1687   1.104   .     S
C1663  C1674   1.518   .     S
C1663  H1690   1.111   .     S
C1663  H1691   1.110   .     S
C1663  H1692   1.106   .     S
C1664  H1695   1.111   .     S
C1664  H1693   1.111   .     S
C1664  H1694   1.103   .     S
C1665  H1697   1.107   .     S
C1665  H1698   1.083   .     S
C1665  H1696   1.110   .     S
C1666  C1671   1.414   .     A
C1667  H1702   1.084   .     S
C1667  H1700   1.107   .     S
C1667  H1701   1.107   .     S
C1668  H1703   1.085   .     S
C1668  H1705   1.108   .     S
C1668  H1704   1.105   .     S
C1669  H1706   1.086   .     S
C1669  H1707   1.110   .     S
C1669  H1708   1.106   .     S
C1670  O1728   1.377   .     S
C1671  O1718   1.375   .     S
C1671  C792    1.404   1_556 S
C1672  C1444   1.416   1_655 S
C1673  C1058   1.399   1_565 S
C1674  C1096   1.401   1_565 S
Cu1675 N1715   2.063   .     S
Cu1675 O1727   1.974   .     S
Cu1675 O1717   1.973   .     S
Cu1675 O1723   1.970   .     S
Cu1675 O1724   1.970   .     S
Cu1676 O1725   1.970   .     S
Cu1676 O1722   1.970   .     S
Cu1676 N1716   2.063   .     S
Cu1676 O1726   1.974   .     S
Cu1676 O1721   1.973   .     S
Cu1676 Cu1483  2.745   1_655 S
H1699  C1457   1.084   1_655 S
H1710  O1728   0.992   .     S
H1711  O1718   0.991   .     S
H1713  O1528   0.992   1_655 S
O1719  H1520   0.992   1_655 S
O1722  C1441   1.318   1_655 S
O1725  C1450   1.316   1_655 S
