data_str_m3_o1_o10_pcu_sym.143
_audit_creation_date              2020-01-03
_audit_creation_method            'Materials Studio'
_symmetry_space_group_name_H-M    'P1'
_symmetry_Int_Tables_number       1
_symmetry_cell_setting            triclinic
loop_
_symmetry_equiv_pos_as_xyz
  x,y,z
_cell_length_a                    25.7897
_cell_length_b                    31.9844
_cell_length_c                    29.5777
_cell_angle_alpha                 89.6644
_cell_angle_beta                  98.5996
_cell_angle_gamma                 90.0598
loop_
_atom_site_label
_atom_site_type_symbol
_atom_site_fract_x
_atom_site_fract_y
_atom_site_fract_z
_atom_site_U_iso_or_equiv
_atom_site_adp_type
_atom_site_occupancy
C1     C     0.16653   0.08679   0.16678   0.00000  Uiso   1.00
C2     C     0.16680   0.24654   0.16655   0.00000  Uiso   1.00
C3     C     0.06705   0.16641   0.15470   0.00000  Uiso   1.00
C4     C     0.26629   0.16693   0.17863   0.00000  Uiso   1.00
C5     C     0.01201   0.16638   0.14828   0.00000  Uiso   1.00
C6     C     0.32132   0.16695   0.18506   0.00000  Uiso   1.00
C7     C     0.20841   0.02163   0.15065   0.00000  Uiso   1.00
C8     C     0.12492   0.31171   0.18268   0.00000  Uiso   1.00
C9     C     0.20766   0.31165   0.15009   0.00000  Uiso   1.00
C10    C     0.12567   0.02168   0.18324   0.00000  Uiso   1.00
C11    C     0.16606   0.29071   0.16601   0.00000  Uiso   1.00
C12    C     0.16727   0.04262   0.16733   0.00000  Uiso   1.00
C13    C     0.20025   0.19180   0.02817   0.00000  Uiso   1.00
C14    C     0.13308   0.14153   0.30516   0.00000  Uiso   1.00
C15    C     0.20023   0.19180   0.31358   0.00000  Uiso   1.00
C16    C     0.13310   0.14153   0.01976   0.00000  Uiso   1.00
H17    H     0.32474   0.16600   0.11338   0.00000  Uiso   1.00
H18    H     0.00860   0.16733   0.21995   0.00000  Uiso   1.00
H19    H     0.22714   0.21191   0.04965   0.00000  Uiso   1.00
H20    H     0.10619   0.12143   0.28368   0.00000  Uiso   1.00
H21    H     0.22708   0.21192   0.29882   0.00000  Uiso   1.00
H22    H     0.10625   0.12142   0.03451   0.00000  Uiso   1.00
N23    N     0.16665   0.16666   0.28573   0.00000  Uiso   1.00
N24    N     0.16668   0.16668   0.04760   0.00000  Uiso   1.00
O25    O     0.16666   0.10558   0.20487   0.00000  Uiso   1.00
O26    O     0.16667   0.22775   0.12846   0.00000  Uiso   1.00
O27    O     0.16666   0.10559   0.12843   0.00000  Uiso   1.00
O28    O     0.16667   0.22774   0.20490   0.00000  Uiso   1.00
O29    O     0.09058   0.16666   0.19595   0.00000  Uiso   1.00
O30    O     0.24275   0.16667   0.13739   0.00000  Uiso   1.00
O31    O     0.09058   0.16667   0.11950   0.00000  Uiso   1.00
O32    O     0.24275   0.16666   0.21383   0.00000  Uiso   1.00
Zn33   Zn    0.16667   0.16666   0.21771   0.00000  Uiso   1.00
Zn34   Zn    0.16667   0.16667   0.11563   0.00000  Uiso   1.00
C35    C     0.25275   0.04474   0.13526   0.00000  Uiso   1.00
O36    O     0.27616   0.07135   0.15984   0.00000  Uiso   1.00
O37    O     0.26732   0.03633   0.09256   0.00000  Uiso   1.00
H38    H     0.29793   0.05416   0.08606   0.00000  Uiso   1.00
C39    C     0.08057   0.28860   0.19806   0.00000  Uiso   1.00
O40    O     0.05719   0.26196   0.17349   0.00000  Uiso   1.00
O41    O     0.06594   0.29703   0.24073   0.00000  Uiso   1.00
H42    H     0.03534   0.27920   0.24722   0.00000  Uiso   1.00
Br43   Br    0.26603   0.28091   0.13218   0.00000  Uiso   1.00
Br44   Br    0.06730   0.05243   0.20115   0.00000  Uiso   1.00
C45    C     0.49986   0.08679   0.16678   0.00000  Uiso   1.00
C46    C     0.50014   0.24654   0.16655   0.00000  Uiso   1.00
C47    C     0.40038   0.16641   0.15470   0.00000  Uiso   1.00
C48    C     0.59962   0.16693   0.17863   0.00000  Uiso   1.00
C49    C     0.34534   0.16638   0.14828   0.00000  Uiso   1.00
C50    C     0.65466   0.16695   0.18506   0.00000  Uiso   1.00
C51    C     0.54174   0.02163   0.15065   0.00000  Uiso   1.00
C52    C     0.45825   0.31171   0.18268   0.00000  Uiso   1.00
C53    C     0.54099   0.31165   0.15009   0.00000  Uiso   1.00
C54    C     0.45900   0.02168   0.18324   0.00000  Uiso   1.00
C55    C     0.49939   0.29071   0.16601   0.00000  Uiso   1.00
C56    C     0.50060   0.04262   0.16733   0.00000  Uiso   1.00
C57    C     0.53359   0.19180   0.02817   0.00000  Uiso   1.00
C58    C     0.46641   0.14153   0.30516   0.00000  Uiso   1.00
C59    C     0.53356   0.19180   0.31358   0.00000  Uiso   1.00
C60    C     0.46644   0.14153   0.01976   0.00000  Uiso   1.00
H61    H     0.65807   0.16600   0.11338   0.00000  Uiso   1.00
H62    H     0.34193   0.16733   0.21995   0.00000  Uiso   1.00
H63    H     0.56048   0.21191   0.04965   0.00000  Uiso   1.00
H64    H     0.43952   0.12143   0.28368   0.00000  Uiso   1.00
H65    H     0.56042   0.21192   0.29882   0.00000  Uiso   1.00
H66    H     0.43958   0.12142   0.03451   0.00000  Uiso   1.00
N67    N     0.49999   0.16666   0.28573   0.00000  Uiso   1.00
N68    N     0.50001   0.16668   0.04760   0.00000  Uiso   1.00
O69    O     0.50000   0.10558   0.20487   0.00000  Uiso   1.00
O70    O     0.50000   0.22775   0.12846   0.00000  Uiso   1.00
O71    O     0.50000   0.10559   0.12843   0.00000  Uiso   1.00
O72    O     0.50000   0.22774   0.20490   0.00000  Uiso   1.00
O73    O     0.42392   0.16666   0.19595   0.00000  Uiso   1.00
O74    O     0.57608   0.16667   0.13739   0.00000  Uiso   1.00
O75    O     0.42392   0.16667   0.11950   0.00000  Uiso   1.00
O76    O     0.57608   0.16666   0.21383   0.00000  Uiso   1.00
Zn77   Zn    0.50000   0.16666   0.21771   0.00000  Uiso   1.00
Zn78   Zn    0.50000   0.16667   0.11563   0.00000  Uiso   1.00
C79    C     0.58608   0.04474   0.13526   0.00000  Uiso   1.00
O80    O     0.60950   0.07135   0.15984   0.00000  Uiso   1.00
O81    O     0.60065   0.03633   0.09256   0.00000  Uiso   1.00
H82    H     0.63126   0.05416   0.08606   0.00000  Uiso   1.00
C83    C     0.41391   0.28860   0.19806   0.00000  Uiso   1.00
O84    O     0.39052   0.26196   0.17349   0.00000  Uiso   1.00
O85    O     0.39928   0.29703   0.24073   0.00000  Uiso   1.00
H86    H     0.36867   0.27920   0.24722   0.00000  Uiso   1.00
Br87   Br    0.59936   0.28091   0.13218   0.00000  Uiso   1.00
Br88   Br    0.40064   0.05243   0.20115   0.00000  Uiso   1.00
C89    C     0.83320   0.08679   0.16678   0.00000  Uiso   1.00
C90    C     0.83347   0.24654   0.16655   0.00000  Uiso   1.00
C91    C     0.73371   0.16641   0.15470   0.00000  Uiso   1.00
C92    C     0.93295   0.16693   0.17863   0.00000  Uiso   1.00
C93    C     0.67868   0.16638   0.14828   0.00000  Uiso   1.00
C94    C     0.98799   0.16695   0.18506   0.00000  Uiso   1.00
C95    C     0.87507   0.02163   0.15065   0.00000  Uiso   1.00
C96    C     0.79159   0.31171   0.18268   0.00000  Uiso   1.00
C97    C     0.87432   0.31165   0.15009   0.00000  Uiso   1.00
C98    C     0.79234   0.02168   0.18324   0.00000  Uiso   1.00
C99    C     0.83273   0.29071   0.16601   0.00000  Uiso   1.00
C100   C     0.83394   0.04262   0.16733   0.00000  Uiso   1.00
C101   C     0.86692   0.19180   0.02817   0.00000  Uiso   1.00
C102   C     0.79975   0.14153   0.30516   0.00000  Uiso   1.00
C103   C     0.86690   0.19180   0.31358   0.00000  Uiso   1.00
C104   C     0.79977   0.14153   0.01976   0.00000  Uiso   1.00
H105   H     0.99140   0.16600   0.11338   0.00000  Uiso   1.00
H106   H     0.67526   0.16733   0.21995   0.00000  Uiso   1.00
H107   H     0.89381   0.21191   0.04965   0.00000  Uiso   1.00
H108   H     0.77286   0.12143   0.28368   0.00000  Uiso   1.00
H109   H     0.89375   0.21192   0.29882   0.00000  Uiso   1.00
H110   H     0.77292   0.12142   0.03451   0.00000  Uiso   1.00
N111   N     0.83332   0.16666   0.28573   0.00000  Uiso   1.00
N112   N     0.83335   0.16668   0.04760   0.00000  Uiso   1.00
O113   O     0.83333   0.10558   0.20487   0.00000  Uiso   1.00
O114   O     0.83334   0.22775   0.12846   0.00000  Uiso   1.00
O115   O     0.83333   0.10559   0.12843   0.00000  Uiso   1.00
O116   O     0.83334   0.22774   0.20490   0.00000  Uiso   1.00
O117   O     0.75725   0.16666   0.19595   0.00000  Uiso   1.00
O118   O     0.90942   0.16667   0.13739   0.00000  Uiso   1.00
O119   O     0.75725   0.16667   0.11950   0.00000  Uiso   1.00
O120   O     0.90942   0.16666   0.21383   0.00000  Uiso   1.00
Zn121  Zn    0.83333   0.16666   0.21771   0.00000  Uiso   1.00
Zn122  Zn    0.83333   0.16667   0.11563   0.00000  Uiso   1.00
C123   C     0.91941   0.04474   0.13526   0.00000  Uiso   1.00
O124   O     0.94283   0.07135   0.15984   0.00000  Uiso   1.00
O125   O     0.93399   0.03633   0.09256   0.00000  Uiso   1.00
H126   H     0.96460   0.05416   0.08606   0.00000  Uiso   1.00
C127   C     0.74724   0.28860   0.19806   0.00000  Uiso   1.00
O128   O     0.72385   0.26196   0.17349   0.00000  Uiso   1.00
O129   O     0.73261   0.29703   0.24073   0.00000  Uiso   1.00
H130   H     0.70200   0.27920   0.24722   0.00000  Uiso   1.00
Br131  Br    0.93269   0.28091   0.13218   0.00000  Uiso   1.00
Br132  Br    0.73397   0.05243   0.20115   0.00000  Uiso   1.00
C133   C     0.16653   0.42013   0.16678   0.00000  Uiso   1.00
C134   C     0.16680   0.57987   0.16655   0.00000  Uiso   1.00
C135   C     0.06705   0.49974   0.15470   0.00000  Uiso   1.00
C136   C     0.26629   0.50026   0.17863   0.00000  Uiso   1.00
C137   C     0.01201   0.49972   0.14828   0.00000  Uiso   1.00
C138   C     0.32132   0.50028   0.18506   0.00000  Uiso   1.00
C139   C     0.20841   0.35496   0.15065   0.00000  Uiso   1.00
C140   C     0.12492   0.64504   0.18268   0.00000  Uiso   1.00
C141   C     0.20766   0.64498   0.15009   0.00000  Uiso   1.00
C142   C     0.12567   0.35502   0.18324   0.00000  Uiso   1.00
C143   C     0.16606   0.62404   0.16601   0.00000  Uiso   1.00
C144   C     0.16727   0.37596   0.16733   0.00000  Uiso   1.00
C145   C     0.20025   0.52514   0.02817   0.00000  Uiso   1.00
C146   C     0.13308   0.47486   0.30516   0.00000  Uiso   1.00
C147   C     0.20023   0.52513   0.31358   0.00000  Uiso   1.00
C148   C     0.13310   0.47487   0.01976   0.00000  Uiso   1.00
H149   H     0.32474   0.49933   0.11338   0.00000  Uiso   1.00
H150   H     0.00860   0.50066   0.21995   0.00000  Uiso   1.00
H151   H     0.22714   0.54524   0.04965   0.00000  Uiso   1.00
H152   H     0.10619   0.45476   0.28368   0.00000  Uiso   1.00
H153   H     0.22708   0.54525   0.29882   0.00000  Uiso   1.00
H154   H     0.10625   0.45475   0.03451   0.00000  Uiso   1.00
N155   N     0.16665   0.49999   0.28573   0.00000  Uiso   1.00
N156   N     0.16668   0.50001   0.04760   0.00000  Uiso   1.00
O157   O     0.16666   0.43892   0.20487   0.00000  Uiso   1.00
O158   O     0.16667   0.56108   0.12846   0.00000  Uiso   1.00
O159   O     0.16666   0.43893   0.12843   0.00000  Uiso   1.00
O160   O     0.16667   0.56107   0.20490   0.00000  Uiso   1.00
O161   O     0.09058   0.50000   0.19595   0.00000  Uiso   1.00
O162   O     0.24275   0.50000   0.13739   0.00000  Uiso   1.00
O163   O     0.09058   0.50000   0.11950   0.00000  Uiso   1.00
O164   O     0.24275   0.50000   0.21383   0.00000  Uiso   1.00
Zn165  Zn    0.16667   0.49999   0.21771   0.00000  Uiso   1.00
Zn166  Zn    0.16667   0.50001   0.11563   0.00000  Uiso   1.00
C167   C     0.25275   0.37807   0.13526   0.00000  Uiso   1.00
O168   O     0.27616   0.40469   0.15984   0.00000  Uiso   1.00
O169   O     0.26732   0.36967   0.09256   0.00000  Uiso   1.00
H170   H     0.29793   0.38749   0.08606   0.00000  Uiso   1.00
C171   C     0.08057   0.62193   0.19806   0.00000  Uiso   1.00
O172   O     0.05719   0.59529   0.17349   0.00000  Uiso   1.00
O173   O     0.06594   0.63036   0.24073   0.00000  Uiso   1.00
H174   H     0.03534   0.61253   0.24722   0.00000  Uiso   1.00
Br175  Br    0.26603   0.61424   0.13218   0.00000  Uiso   1.00
Br176  Br    0.06730   0.38577   0.20115   0.00000  Uiso   1.00
C177   C     0.49986   0.42013   0.16678   0.00000  Uiso   1.00
C178   C     0.50014   0.57987   0.16655   0.00000  Uiso   1.00
C179   C     0.40038   0.49974   0.15470   0.00000  Uiso   1.00
C180   C     0.59962   0.50026   0.17863   0.00000  Uiso   1.00
C181   C     0.34534   0.49972   0.14828   0.00000  Uiso   1.00
C182   C     0.65466   0.50028   0.18506   0.00000  Uiso   1.00
C183   C     0.54174   0.35496   0.15065   0.00000  Uiso   1.00
C184   C     0.45825   0.64504   0.18268   0.00000  Uiso   1.00
C185   C     0.54099   0.64498   0.15009   0.00000  Uiso   1.00
C186   C     0.45900   0.35502   0.18324   0.00000  Uiso   1.00
C187   C     0.49939   0.62404   0.16601   0.00000  Uiso   1.00
C188   C     0.50060   0.37596   0.16733   0.00000  Uiso   1.00
C189   C     0.53359   0.52514   0.02817   0.00000  Uiso   1.00
C190   C     0.46641   0.47486   0.30516   0.00000  Uiso   1.00
C191   C     0.53356   0.52513   0.31358   0.00000  Uiso   1.00
C192   C     0.46644   0.47487   0.01976   0.00000  Uiso   1.00
H193   H     0.65807   0.49933   0.11338   0.00000  Uiso   1.00
H194   H     0.34193   0.50066   0.21995   0.00000  Uiso   1.00
H195   H     0.56048   0.54524   0.04965   0.00000  Uiso   1.00
H196   H     0.43952   0.45476   0.28368   0.00000  Uiso   1.00
H197   H     0.56042   0.54525   0.29882   0.00000  Uiso   1.00
H198   H     0.43958   0.45475   0.03451   0.00000  Uiso   1.00
N199   N     0.49999   0.49999   0.28573   0.00000  Uiso   1.00
N200   N     0.50001   0.50001   0.04760   0.00000  Uiso   1.00
O201   O     0.50000   0.43892   0.20487   0.00000  Uiso   1.00
O202   O     0.50000   0.56108   0.12846   0.00000  Uiso   1.00
O203   O     0.50000   0.43893   0.12843   0.00000  Uiso   1.00
O204   O     0.50000   0.56107   0.20490   0.00000  Uiso   1.00
O205   O     0.42392   0.50000   0.19595   0.00000  Uiso   1.00
O206   O     0.57608   0.50000   0.13739   0.00000  Uiso   1.00
O207   O     0.42392   0.50000   0.11950   0.00000  Uiso   1.00
O208   O     0.57608   0.50000   0.21383   0.00000  Uiso   1.00
Zn209  Zn    0.50000   0.49999   0.21771   0.00000  Uiso   1.00
Zn210  Zn    0.50000   0.50001   0.11563   0.00000  Uiso   1.00
C211   C     0.58608   0.37807   0.13526   0.00000  Uiso   1.00
O212   O     0.60950   0.40469   0.15984   0.00000  Uiso   1.00
O213   O     0.60065   0.36967   0.09256   0.00000  Uiso   1.00
H214   H     0.63126   0.38749   0.08606   0.00000  Uiso   1.00
C215   C     0.41391   0.62193   0.19806   0.00000  Uiso   1.00
O216   O     0.39052   0.59529   0.17349   0.00000  Uiso   1.00
O217   O     0.39928   0.63036   0.24073   0.00000  Uiso   1.00
H218   H     0.36867   0.61253   0.24722   0.00000  Uiso   1.00
Br219  Br    0.59936   0.61424   0.13218   0.00000  Uiso   1.00
Br220  Br    0.40064   0.38577   0.20115   0.00000  Uiso   1.00
C221   C     0.83320   0.42013   0.16678   0.00000  Uiso   1.00
C222   C     0.83347   0.57987   0.16655   0.00000  Uiso   1.00
C223   C     0.73371   0.49974   0.15470   0.00000  Uiso   1.00
C224   C     0.93295   0.50026   0.17863   0.00000  Uiso   1.00
C225   C     0.67868   0.49972   0.14828   0.00000  Uiso   1.00
C226   C     0.98799   0.50028   0.18506   0.00000  Uiso   1.00
C227   C     0.87507   0.35496   0.15065   0.00000  Uiso   1.00
C228   C     0.79159   0.64504   0.18268   0.00000  Uiso   1.00
C229   C     0.87432   0.64498   0.15009   0.00000  Uiso   1.00
C230   C     0.79234   0.35502   0.18324   0.00000  Uiso   1.00
C231   C     0.83273   0.62404   0.16601   0.00000  Uiso   1.00
C232   C     0.83394   0.37596   0.16733   0.00000  Uiso   1.00
C233   C     0.86692   0.52514   0.02817   0.00000  Uiso   1.00
C234   C     0.79975   0.47486   0.30516   0.00000  Uiso   1.00
C235   C     0.86690   0.52513   0.31358   0.00000  Uiso   1.00
C236   C     0.79977   0.47487   0.01976   0.00000  Uiso   1.00
H237   H     0.99140   0.49933   0.11338   0.00000  Uiso   1.00
H238   H     0.67526   0.50066   0.21995   0.00000  Uiso   1.00
H239   H     0.89381   0.54524   0.04965   0.00000  Uiso   1.00
H240   H     0.77286   0.45476   0.28368   0.00000  Uiso   1.00
H241   H     0.89375   0.54525   0.29882   0.00000  Uiso   1.00
H242   H     0.77292   0.45475   0.03451   0.00000  Uiso   1.00
N243   N     0.83332   0.49999   0.28573   0.00000  Uiso   1.00
N244   N     0.83335   0.50001   0.04760   0.00000  Uiso   1.00
O245   O     0.83333   0.43892   0.20487   0.00000  Uiso   1.00
O246   O     0.83334   0.56108   0.12846   0.00000  Uiso   1.00
O247   O     0.83333   0.43893   0.12843   0.00000  Uiso   1.00
O248   O     0.83334   0.56107   0.20490   0.00000  Uiso   1.00
O249   O     0.75725   0.50000   0.19595   0.00000  Uiso   1.00
O250   O     0.90942   0.50000   0.13739   0.00000  Uiso   1.00
O251   O     0.75725   0.50000   0.11950   0.00000  Uiso   1.00
O252   O     0.90942   0.50000   0.21383   0.00000  Uiso   1.00
Zn253  Zn    0.83333   0.49999   0.21771   0.00000  Uiso   1.00
Zn254  Zn    0.83333   0.50001   0.11563   0.00000  Uiso   1.00
C255   C     0.91941   0.37807   0.13526   0.00000  Uiso   1.00
O256   O     0.94283   0.40469   0.15984   0.00000  Uiso   1.00
O257   O     0.93399   0.36967   0.09256   0.00000  Uiso   1.00
H258   H     0.96460   0.38749   0.08606   0.00000  Uiso   1.00
C259   C     0.74724   0.62193   0.19806   0.00000  Uiso   1.00
O260   O     0.72385   0.59529   0.17349   0.00000  Uiso   1.00
O261   O     0.73261   0.63036   0.24073   0.00000  Uiso   1.00
H262   H     0.70200   0.61253   0.24722   0.00000  Uiso   1.00
Br263  Br    0.93269   0.61424   0.13218   0.00000  Uiso   1.00
Br264  Br    0.73397   0.38577   0.20115   0.00000  Uiso   1.00
C265   C     0.16653   0.75346   0.16678   0.00000  Uiso   1.00
C266   C     0.16680   0.91321   0.16655   0.00000  Uiso   1.00
C267   C     0.06705   0.83307   0.15470   0.00000  Uiso   1.00
C268   C     0.26629   0.83359   0.17863   0.00000  Uiso   1.00
C269   C     0.01201   0.83305   0.14828   0.00000  Uiso   1.00
C270   C     0.32132   0.83361   0.18506   0.00000  Uiso   1.00
C271   C     0.20841   0.68829   0.15065   0.00000  Uiso   1.00
C272   C     0.12492   0.97837   0.18268   0.00000  Uiso   1.00
C273   C     0.20766   0.97832   0.15009   0.00000  Uiso   1.00
C274   C     0.12567   0.68835   0.18324   0.00000  Uiso   1.00
C275   C     0.16606   0.95738   0.16601   0.00000  Uiso   1.00
C276   C     0.16727   0.70929   0.16733   0.00000  Uiso   1.00
C277   C     0.20025   0.85847   0.02817   0.00000  Uiso   1.00
C278   C     0.13308   0.80820   0.30516   0.00000  Uiso   1.00
C279   C     0.20023   0.85847   0.31358   0.00000  Uiso   1.00
C280   C     0.13310   0.80820   0.01976   0.00000  Uiso   1.00
H281   H     0.32474   0.83267   0.11338   0.00000  Uiso   1.00
H282   H     0.00860   0.83399   0.21995   0.00000  Uiso   1.00
H283   H     0.22714   0.87857   0.04965   0.00000  Uiso   1.00
H284   H     0.10619   0.78809   0.28368   0.00000  Uiso   1.00
H285   H     0.22708   0.87859   0.29882   0.00000  Uiso   1.00
H286   H     0.10625   0.78808   0.03451   0.00000  Uiso   1.00
N287   N     0.16665   0.83332   0.28573   0.00000  Uiso   1.00
N288   N     0.16668   0.83334   0.04760   0.00000  Uiso   1.00
O289   O     0.16666   0.77225   0.20487   0.00000  Uiso   1.00
O290   O     0.16667   0.89442   0.12846   0.00000  Uiso   1.00
O291   O     0.16666   0.77226   0.12843   0.00000  Uiso   1.00
O292   O     0.16667   0.89441   0.20490   0.00000  Uiso   1.00
O293   O     0.09058   0.83333   0.19595   0.00000  Uiso   1.00
O294   O     0.24275   0.83334   0.13739   0.00000  Uiso   1.00
O295   O     0.09058   0.83334   0.11950   0.00000  Uiso   1.00
O296   O     0.24275   0.83333   0.21383   0.00000  Uiso   1.00
Zn297  Zn    0.16667   0.83333   0.21771   0.00000  Uiso   1.00
Zn298  Zn    0.16667   0.83334   0.11563   0.00000  Uiso   1.00
C299   C     0.25275   0.71140   0.13526   0.00000  Uiso   1.00
O300   O     0.27616   0.73802   0.15984   0.00000  Uiso   1.00
O301   O     0.26732   0.70300   0.09256   0.00000  Uiso   1.00
H302   H     0.29793   0.72083   0.08606   0.00000  Uiso   1.00
C303   C     0.08057   0.95526   0.19806   0.00000  Uiso   1.00
O304   O     0.05719   0.92862   0.17349   0.00000  Uiso   1.00
O305   O     0.06594   0.96370   0.24073   0.00000  Uiso   1.00
H306   H     0.03534   0.94587   0.24722   0.00000  Uiso   1.00
Br307  Br    0.26603   0.94757   0.13218   0.00000  Uiso   1.00
Br308  Br    0.06730   0.71910   0.20115   0.00000  Uiso   1.00
C309   C     0.49986   0.75346   0.16678   0.00000  Uiso   1.00
C310   C     0.50014   0.91321   0.16655   0.00000  Uiso   1.00
C311   C     0.40038   0.83307   0.15470   0.00000  Uiso   1.00
C312   C     0.59962   0.83359   0.17863   0.00000  Uiso   1.00
C313   C     0.34534   0.83305   0.14828   0.00000  Uiso   1.00
C314   C     0.65466   0.83361   0.18506   0.00000  Uiso   1.00
C315   C     0.54174   0.68829   0.15065   0.00000  Uiso   1.00
C316   C     0.45825   0.97837   0.18268   0.00000  Uiso   1.00
C317   C     0.54099   0.97832   0.15009   0.00000  Uiso   1.00
C318   C     0.45900   0.68835   0.18324   0.00000  Uiso   1.00
C319   C     0.49939   0.95738   0.16601   0.00000  Uiso   1.00
C320   C     0.50060   0.70929   0.16733   0.00000  Uiso   1.00
C321   C     0.53359   0.85847   0.02817   0.00000  Uiso   1.00
C322   C     0.46641   0.80820   0.30516   0.00000  Uiso   1.00
C323   C     0.53356   0.85847   0.31358   0.00000  Uiso   1.00
C324   C     0.46644   0.80820   0.01976   0.00000  Uiso   1.00
H325   H     0.65807   0.83267   0.11338   0.00000  Uiso   1.00
H326   H     0.34193   0.83399   0.21995   0.00000  Uiso   1.00
H327   H     0.56048   0.87857   0.04965   0.00000  Uiso   1.00
H328   H     0.43952   0.78809   0.28368   0.00000  Uiso   1.00
H329   H     0.56042   0.87859   0.29882   0.00000  Uiso   1.00
H330   H     0.43958   0.78808   0.03451   0.00000  Uiso   1.00
N331   N     0.49999   0.83332   0.28573   0.00000  Uiso   1.00
N332   N     0.50001   0.83334   0.04760   0.00000  Uiso   1.00
O333   O     0.50000   0.77225   0.20487   0.00000  Uiso   1.00
O334   O     0.50000   0.89442   0.12846   0.00000  Uiso   1.00
O335   O     0.50000   0.77226   0.12843   0.00000  Uiso   1.00
O336   O     0.50000   0.89441   0.20490   0.00000  Uiso   1.00
O337   O     0.42392   0.83333   0.19595   0.00000  Uiso   1.00
O338   O     0.57608   0.83334   0.13739   0.00000  Uiso   1.00
O339   O     0.42392   0.83334   0.11950   0.00000  Uiso   1.00
O340   O     0.57608   0.83333   0.21383   0.00000  Uiso   1.00
Zn341  Zn    0.50000   0.83333   0.21771   0.00000  Uiso   1.00
Zn342  Zn    0.50000   0.83334   0.11563   0.00000  Uiso   1.00
C343   C     0.58608   0.71140   0.13526   0.00000  Uiso   1.00
O344   O     0.60950   0.73802   0.15984   0.00000  Uiso   1.00
O345   O     0.60065   0.70300   0.09256   0.00000  Uiso   1.00
H346   H     0.63126   0.72083   0.08606   0.00000  Uiso   1.00
C347   C     0.41391   0.95526   0.19806   0.00000  Uiso   1.00
O348   O     0.39052   0.92862   0.17349   0.00000  Uiso   1.00
O349   O     0.39928   0.96370   0.24073   0.00000  Uiso   1.00
H350   H     0.36867   0.94587   0.24722   0.00000  Uiso   1.00
Br351  Br    0.59936   0.94757   0.13218   0.00000  Uiso   1.00
Br352  Br    0.40064   0.71910   0.20115   0.00000  Uiso   1.00
C353   C     0.83320   0.75346   0.16678   0.00000  Uiso   1.00
C354   C     0.83347   0.91321   0.16655   0.00000  Uiso   1.00
C355   C     0.73371   0.83307   0.15470   0.00000  Uiso   1.00
C356   C     0.93295   0.83359   0.17863   0.00000  Uiso   1.00
C357   C     0.67868   0.83305   0.14828   0.00000  Uiso   1.00
C358   C     0.98799   0.83361   0.18506   0.00000  Uiso   1.00
C359   C     0.87507   0.68829   0.15065   0.00000  Uiso   1.00
C360   C     0.79159   0.97837   0.18268   0.00000  Uiso   1.00
C361   C     0.87432   0.97832   0.15009   0.00000  Uiso   1.00
C362   C     0.79234   0.68835   0.18324   0.00000  Uiso   1.00
C363   C     0.83273   0.95738   0.16601   0.00000  Uiso   1.00
C364   C     0.83394   0.70929   0.16733   0.00000  Uiso   1.00
C365   C     0.86692   0.85847   0.02817   0.00000  Uiso   1.00
C366   C     0.79975   0.80820   0.30516   0.00000  Uiso   1.00
C367   C     0.86690   0.85847   0.31358   0.00000  Uiso   1.00
C368   C     0.79977   0.80820   0.01976   0.00000  Uiso   1.00
H369   H     0.99140   0.83267   0.11338   0.00000  Uiso   1.00
H370   H     0.67526   0.83399   0.21995   0.00000  Uiso   1.00
H371   H     0.89381   0.87857   0.04965   0.00000  Uiso   1.00
H372   H     0.77286   0.78809   0.28368   0.00000  Uiso   1.00
H373   H     0.89375   0.87859   0.29882   0.00000  Uiso   1.00
H374   H     0.77292   0.78808   0.03451   0.00000  Uiso   1.00
N375   N     0.83332   0.83332   0.28573   0.00000  Uiso   1.00
N376   N     0.83335   0.83334   0.04760   0.00000  Uiso   1.00
O377   O     0.83333   0.77225   0.20487   0.00000  Uiso   1.00
O378   O     0.83334   0.89442   0.12846   0.00000  Uiso   1.00
O379   O     0.83333   0.77226   0.12843   0.00000  Uiso   1.00
O380   O     0.83334   0.89441   0.20490   0.00000  Uiso   1.00
O381   O     0.75725   0.83333   0.19595   0.00000  Uiso   1.00
O382   O     0.90942   0.83334   0.13739   0.00000  Uiso   1.00
O383   O     0.75725   0.83334   0.11950   0.00000  Uiso   1.00
O384   O     0.90942   0.83333   0.21383   0.00000  Uiso   1.00
Zn385  Zn    0.83333   0.83333   0.21771   0.00000  Uiso   1.00
Zn386  Zn    0.83333   0.83334   0.11563   0.00000  Uiso   1.00
C387   C     0.91941   0.71140   0.13526   0.00000  Uiso   1.00
O388   O     0.94283   0.73802   0.15984   0.00000  Uiso   1.00
O389   O     0.93399   0.70300   0.09256   0.00000  Uiso   1.00
H390   H     0.96460   0.72083   0.08606   0.00000  Uiso   1.00
C391   C     0.74724   0.95526   0.19806   0.00000  Uiso   1.00
O392   O     0.72385   0.92862   0.17349   0.00000  Uiso   1.00
O393   O     0.73261   0.96370   0.24073   0.00000  Uiso   1.00
H394   H     0.70200   0.94587   0.24722   0.00000  Uiso   1.00
Br395  Br    0.93269   0.94757   0.13218   0.00000  Uiso   1.00
Br396  Br    0.73397   0.71910   0.20115   0.00000  Uiso   1.00
C397   C     0.16653   0.08679   0.50012   0.00000  Uiso   1.00
C398   C     0.16680   0.24654   0.49988   0.00000  Uiso   1.00
C399   C     0.06705   0.16641   0.48804   0.00000  Uiso   1.00
C400   C     0.26629   0.16693   0.51196   0.00000  Uiso   1.00
C401   C     0.01201   0.16638   0.48161   0.00000  Uiso   1.00
C402   C     0.32132   0.16695   0.51839   0.00000  Uiso   1.00
C403   C     0.20841   0.02163   0.48398   0.00000  Uiso   1.00
C404   C     0.12492   0.31171   0.51602   0.00000  Uiso   1.00
C405   C     0.20766   0.31165   0.48342   0.00000  Uiso   1.00
C406   C     0.12567   0.02168   0.51657   0.00000  Uiso   1.00
C407   C     0.16606   0.29071   0.49934   0.00000  Uiso   1.00
C408   C     0.16727   0.04262   0.50066   0.00000  Uiso   1.00
C409   C     0.20025   0.19180   0.36150   0.00000  Uiso   1.00
C410   C     0.13308   0.14153   0.63850   0.00000  Uiso   1.00
C411   C     0.20023   0.19180   0.64691   0.00000  Uiso   1.00
C412   C     0.13310   0.14153   0.35309   0.00000  Uiso   1.00
H413   H     0.32474   0.16600   0.44672   0.00000  Uiso   1.00
H414   H     0.00860   0.16733   0.55328   0.00000  Uiso   1.00
H415   H     0.22714   0.21191   0.38298   0.00000  Uiso   1.00
H416   H     0.10619   0.12143   0.61702   0.00000  Uiso   1.00
H417   H     0.22708   0.21192   0.63216   0.00000  Uiso   1.00
H418   H     0.10625   0.12142   0.36784   0.00000  Uiso   1.00
N419   N     0.16665   0.16666   0.61907   0.00000  Uiso   1.00
N420   N     0.16668   0.16668   0.38093   0.00000  Uiso   1.00
O421   O     0.16666   0.10558   0.53821   0.00000  Uiso   1.00
O422   O     0.16667   0.22775   0.46179   0.00000  Uiso   1.00
O423   O     0.16666   0.10559   0.46176   0.00000  Uiso   1.00
O424   O     0.16667   0.22774   0.53824   0.00000  Uiso   1.00
O425   O     0.09058   0.16666   0.52928   0.00000  Uiso   1.00
O426   O     0.24275   0.16667   0.47072   0.00000  Uiso   1.00
O427   O     0.09058   0.16667   0.45284   0.00000  Uiso   1.00
O428   O     0.24275   0.16666   0.54716   0.00000  Uiso   1.00
Zn429  Zn    0.16667   0.16666   0.55104   0.00000  Uiso   1.00
Zn430  Zn    0.16667   0.16667   0.44896   0.00000  Uiso   1.00
C431   C     0.25275   0.04474   0.46859   0.00000  Uiso   1.00
O432   O     0.27616   0.07135   0.49318   0.00000  Uiso   1.00
O433   O     0.26732   0.03633   0.42589   0.00000  Uiso   1.00
H434   H     0.29793   0.05416   0.41940   0.00000  Uiso   1.00
C435   C     0.08057   0.28860   0.53139   0.00000  Uiso   1.00
O436   O     0.05719   0.26196   0.50682   0.00000  Uiso   1.00
O437   O     0.06594   0.29703   0.57406   0.00000  Uiso   1.00
H438   H     0.03534   0.27920   0.58055   0.00000  Uiso   1.00
Br439  Br    0.26603   0.28091   0.46551   0.00000  Uiso   1.00
Br440  Br    0.06730   0.05243   0.53448   0.00000  Uiso   1.00
C441   C     0.49986   0.08679   0.50012   0.00000  Uiso   1.00
C442   C     0.50014   0.24654   0.49988   0.00000  Uiso   1.00
C443   C     0.40038   0.16641   0.48804   0.00000  Uiso   1.00
C444   C     0.59962   0.16693   0.51196   0.00000  Uiso   1.00
C445   C     0.34534   0.16638   0.48161   0.00000  Uiso   1.00
C446   C     0.65466   0.16695   0.51839   0.00000  Uiso   1.00
C447   C     0.54174   0.02163   0.48398   0.00000  Uiso   1.00
C448   C     0.45825   0.31171   0.51602   0.00000  Uiso   1.00
C449   C     0.54099   0.31165   0.48342   0.00000  Uiso   1.00
C450   C     0.45900   0.02168   0.51657   0.00000  Uiso   1.00
C451   C     0.49939   0.29071   0.49934   0.00000  Uiso   1.00
C452   C     0.50060   0.04262   0.50066   0.00000  Uiso   1.00
C453   C     0.53359   0.19180   0.36150   0.00000  Uiso   1.00
C454   C     0.46641   0.14153   0.63850   0.00000  Uiso   1.00
C455   C     0.53356   0.19180   0.64691   0.00000  Uiso   1.00
C456   C     0.46644   0.14153   0.35309   0.00000  Uiso   1.00
H457   H     0.65807   0.16600   0.44672   0.00000  Uiso   1.00
H458   H     0.34193   0.16733   0.55328   0.00000  Uiso   1.00
H459   H     0.56048   0.21191   0.38298   0.00000  Uiso   1.00
H460   H     0.43952   0.12143   0.61702   0.00000  Uiso   1.00
H461   H     0.56042   0.21192   0.63216   0.00000  Uiso   1.00
H462   H     0.43958   0.12142   0.36784   0.00000  Uiso   1.00
N463   N     0.49999   0.16666   0.61907   0.00000  Uiso   1.00
N464   N     0.50001   0.16668   0.38093   0.00000  Uiso   1.00
O465   O     0.50000   0.10558   0.53821   0.00000  Uiso   1.00
O466   O     0.50000   0.22775   0.46179   0.00000  Uiso   1.00
O467   O     0.50000   0.10559   0.46176   0.00000  Uiso   1.00
O468   O     0.50000   0.22774   0.53824   0.00000  Uiso   1.00
O469   O     0.42392   0.16666   0.52928   0.00000  Uiso   1.00
O470   O     0.57608   0.16667   0.47072   0.00000  Uiso   1.00
O471   O     0.42392   0.16667   0.45284   0.00000  Uiso   1.00
O472   O     0.57608   0.16666   0.54716   0.00000  Uiso   1.00
Zn473  Zn    0.50000   0.16666   0.55104   0.00000  Uiso   1.00
Zn474  Zn    0.50000   0.16667   0.44896   0.00000  Uiso   1.00
C475   C     0.58608   0.04474   0.46859   0.00000  Uiso   1.00
O476   O     0.60950   0.07135   0.49318   0.00000  Uiso   1.00
O477   O     0.60065   0.03633   0.42589   0.00000  Uiso   1.00
H478   H     0.63126   0.05416   0.41940   0.00000  Uiso   1.00
C479   C     0.41391   0.28860   0.53139   0.00000  Uiso   1.00
O480   O     0.39052   0.26196   0.50682   0.00000  Uiso   1.00
O481   O     0.39928   0.29703   0.57406   0.00000  Uiso   1.00
H482   H     0.36867   0.27920   0.58055   0.00000  Uiso   1.00
Br483  Br    0.59936   0.28091   0.46551   0.00000  Uiso   1.00
Br484  Br    0.40064   0.05243   0.53448   0.00000  Uiso   1.00
C485   C     0.83320   0.08679   0.50012   0.00000  Uiso   1.00
C486   C     0.83347   0.24654   0.49988   0.00000  Uiso   1.00
C487   C     0.73371   0.16641   0.48804   0.00000  Uiso   1.00
C488   C     0.93295   0.16693   0.51196   0.00000  Uiso   1.00
C489   C     0.67868   0.16638   0.48161   0.00000  Uiso   1.00
C490   C     0.98799   0.16695   0.51839   0.00000  Uiso   1.00
C491   C     0.87507   0.02163   0.48398   0.00000  Uiso   1.00
C492   C     0.79159   0.31171   0.51602   0.00000  Uiso   1.00
C493   C     0.87432   0.31165   0.48342   0.00000  Uiso   1.00
C494   C     0.79234   0.02168   0.51657   0.00000  Uiso   1.00
C495   C     0.83273   0.29071   0.49934   0.00000  Uiso   1.00
C496   C     0.83394   0.04262   0.50066   0.00000  Uiso   1.00
C497   C     0.86692   0.19180   0.36150   0.00000  Uiso   1.00
C498   C     0.79975   0.14153   0.63850   0.00000  Uiso   1.00
C499   C     0.86690   0.19180   0.64691   0.00000  Uiso   1.00
C500   C     0.79977   0.14153   0.35309   0.00000  Uiso   1.00
H501   H     0.99140   0.16600   0.44672   0.00000  Uiso   1.00
H502   H     0.67526   0.16733   0.55328   0.00000  Uiso   1.00
H503   H     0.89381   0.21191   0.38298   0.00000  Uiso   1.00
H504   H     0.77286   0.12143   0.61702   0.00000  Uiso   1.00
H505   H     0.89375   0.21192   0.63216   0.00000  Uiso   1.00
H506   H     0.77292   0.12142   0.36784   0.00000  Uiso   1.00
N507   N     0.83332   0.16666   0.61907   0.00000  Uiso   1.00
N508   N     0.83335   0.16668   0.38093   0.00000  Uiso   1.00
O509   O     0.83333   0.10558   0.53821   0.00000  Uiso   1.00
O510   O     0.83334   0.22775   0.46179   0.00000  Uiso   1.00
O511   O     0.83333   0.10559   0.46176   0.00000  Uiso   1.00
O512   O     0.83334   0.22774   0.53824   0.00000  Uiso   1.00
O513   O     0.75725   0.16666   0.52928   0.00000  Uiso   1.00
O514   O     0.90942   0.16667   0.47072   0.00000  Uiso   1.00
O515   O     0.75725   0.16667   0.45284   0.00000  Uiso   1.00
O516   O     0.90942   0.16666   0.54716   0.00000  Uiso   1.00
Zn517  Zn    0.83333   0.16666   0.55104   0.00000  Uiso   1.00
Zn518  Zn    0.83333   0.16667   0.44896   0.00000  Uiso   1.00
C519   C     0.91941   0.04474   0.46859   0.00000  Uiso   1.00
O520   O     0.94283   0.07135   0.49318   0.00000  Uiso   1.00
O521   O     0.93399   0.03633   0.42589   0.00000  Uiso   1.00
H522   H     0.96460   0.05416   0.41940   0.00000  Uiso   1.00
C523   C     0.74724   0.28860   0.53139   0.00000  Uiso   1.00
O524   O     0.72385   0.26196   0.50682   0.00000  Uiso   1.00
O525   O     0.73261   0.29703   0.57406   0.00000  Uiso   1.00
H526   H     0.70200   0.27920   0.58055   0.00000  Uiso   1.00
Br527  Br    0.93269   0.28091   0.46551   0.00000  Uiso   1.00
Br528  Br    0.73397   0.05243   0.53448   0.00000  Uiso   1.00
C529   C     0.16653   0.42013   0.50012   0.00000  Uiso   1.00
C530   C     0.16680   0.57987   0.49988   0.00000  Uiso   1.00
C531   C     0.06705   0.49974   0.48804   0.00000  Uiso   1.00
C532   C     0.26629   0.50026   0.51196   0.00000  Uiso   1.00
C533   C     0.01201   0.49972   0.48161   0.00000  Uiso   1.00
C534   C     0.32132   0.50028   0.51839   0.00000  Uiso   1.00
C535   C     0.20841   0.35496   0.48398   0.00000  Uiso   1.00
C536   C     0.12492   0.64504   0.51602   0.00000  Uiso   1.00
C537   C     0.20766   0.64498   0.48342   0.00000  Uiso   1.00
C538   C     0.12567   0.35502   0.51657   0.00000  Uiso   1.00
C539   C     0.16606   0.62404   0.49934   0.00000  Uiso   1.00
C540   C     0.16727   0.37596   0.50066   0.00000  Uiso   1.00
C541   C     0.20025   0.52514   0.36150   0.00000  Uiso   1.00
C542   C     0.13308   0.47486   0.63850   0.00000  Uiso   1.00
C543   C     0.20023   0.52513   0.64691   0.00000  Uiso   1.00
C544   C     0.13310   0.47487   0.35309   0.00000  Uiso   1.00
H545   H     0.32474   0.49933   0.44672   0.00000  Uiso   1.00
H546   H     0.00860   0.50066   0.55328   0.00000  Uiso   1.00
H547   H     0.22714   0.54524   0.38298   0.00000  Uiso   1.00
H548   H     0.10619   0.45476   0.61702   0.00000  Uiso   1.00
H549   H     0.22708   0.54525   0.63216   0.00000  Uiso   1.00
H550   H     0.10625   0.45475   0.36784   0.00000  Uiso   1.00
N551   N     0.16665   0.49999   0.61907   0.00000  Uiso   1.00
N552   N     0.16668   0.50001   0.38093   0.00000  Uiso   1.00
O553   O     0.16666   0.43892   0.53821   0.00000  Uiso   1.00
O554   O     0.16667   0.56108   0.46179   0.00000  Uiso   1.00
O555   O     0.16666   0.43893   0.46176   0.00000  Uiso   1.00
O556   O     0.16667   0.56107   0.53824   0.00000  Uiso   1.00
O557   O     0.09058   0.50000   0.52928   0.00000  Uiso   1.00
O558   O     0.24275   0.50000   0.47072   0.00000  Uiso   1.00
O559   O     0.09058   0.50000   0.45284   0.00000  Uiso   1.00
O560   O     0.24275   0.50000   0.54716   0.00000  Uiso   1.00
Zn561  Zn    0.16667   0.49999   0.55104   0.00000  Uiso   1.00
Zn562  Zn    0.16667   0.50001   0.44896   0.00000  Uiso   1.00
C563   C     0.25275   0.37807   0.46859   0.00000  Uiso   1.00
O564   O     0.27616   0.40469   0.49318   0.00000  Uiso   1.00
O565   O     0.26732   0.36967   0.42589   0.00000  Uiso   1.00
H566   H     0.29793   0.38749   0.41940   0.00000  Uiso   1.00
C567   C     0.08057   0.62193   0.53139   0.00000  Uiso   1.00
O568   O     0.05719   0.59529   0.50682   0.00000  Uiso   1.00
O569   O     0.06594   0.63036   0.57406   0.00000  Uiso   1.00
H570   H     0.03534   0.61253   0.58055   0.00000  Uiso   1.00
Br571  Br    0.26603   0.61424   0.46551   0.00000  Uiso   1.00
Br572  Br    0.06730   0.38577   0.53448   0.00000  Uiso   1.00
C573   C     0.49986   0.42013   0.50012   0.00000  Uiso   1.00
C574   C     0.50014   0.57987   0.49988   0.00000  Uiso   1.00
C575   C     0.40038   0.49974   0.48804   0.00000  Uiso   1.00
C576   C     0.59962   0.50026   0.51196   0.00000  Uiso   1.00
C577   C     0.34534   0.49972   0.48161   0.00000  Uiso   1.00
C578   C     0.65466   0.50028   0.51839   0.00000  Uiso   1.00
C579   C     0.54174   0.35496   0.48398   0.00000  Uiso   1.00
C580   C     0.45825   0.64504   0.51602   0.00000  Uiso   1.00
C581   C     0.54099   0.64498   0.48342   0.00000  Uiso   1.00
C582   C     0.45900   0.35502   0.51657   0.00000  Uiso   1.00
C583   C     0.49939   0.62404   0.49934   0.00000  Uiso   1.00
C584   C     0.50060   0.37596   0.50066   0.00000  Uiso   1.00
C585   C     0.53359   0.52514   0.36150   0.00000  Uiso   1.00
C586   C     0.46641   0.47486   0.63850   0.00000  Uiso   1.00
C587   C     0.53356   0.52513   0.64691   0.00000  Uiso   1.00
C588   C     0.46644   0.47487   0.35309   0.00000  Uiso   1.00
H589   H     0.65807   0.49933   0.44672   0.00000  Uiso   1.00
H590   H     0.34193   0.50066   0.55328   0.00000  Uiso   1.00
H591   H     0.56048   0.54524   0.38298   0.00000  Uiso   1.00
H592   H     0.43952   0.45476   0.61702   0.00000  Uiso   1.00
H593   H     0.56042   0.54525   0.63216   0.00000  Uiso   1.00
H594   H     0.43958   0.45475   0.36784   0.00000  Uiso   1.00
N595   N     0.49999   0.49999   0.61907   0.00000  Uiso   1.00
N596   N     0.50001   0.50001   0.38093   0.00000  Uiso   1.00
O597   O     0.50000   0.43892   0.53821   0.00000  Uiso   1.00
O598   O     0.50000   0.56108   0.46179   0.00000  Uiso   1.00
O599   O     0.50000   0.43893   0.46176   0.00000  Uiso   1.00
O600   O     0.50000   0.56107   0.53824   0.00000  Uiso   1.00
O601   O     0.42392   0.50000   0.52928   0.00000  Uiso   1.00
O602   O     0.57608   0.50000   0.47072   0.00000  Uiso   1.00
O603   O     0.42392   0.50000   0.45284   0.00000  Uiso   1.00
O604   O     0.57608   0.50000   0.54716   0.00000  Uiso   1.00
Zn605  Zn    0.50000   0.49999   0.55104   0.00000  Uiso   1.00
Zn606  Zn    0.50000   0.50001   0.44896   0.00000  Uiso   1.00
C607   C     0.58608   0.37807   0.46859   0.00000  Uiso   1.00
O608   O     0.60950   0.40469   0.49318   0.00000  Uiso   1.00
O609   O     0.60065   0.36967   0.42589   0.00000  Uiso   1.00
H610   H     0.63126   0.38749   0.41940   0.00000  Uiso   1.00
C611   C     0.41391   0.62193   0.53139   0.00000  Uiso   1.00
O612   O     0.39052   0.59529   0.50682   0.00000  Uiso   1.00
O613   O     0.39928   0.63036   0.57406   0.00000  Uiso   1.00
H614   H     0.36867   0.61253   0.58055   0.00000  Uiso   1.00
Br615  Br    0.59936   0.61424   0.46551   0.00000  Uiso   1.00
Br616  Br    0.40064   0.38577   0.53448   0.00000  Uiso   1.00
C617   C     0.83320   0.42013   0.50012   0.00000  Uiso   1.00
C618   C     0.83347   0.57987   0.49988   0.00000  Uiso   1.00
C619   C     0.73371   0.49974   0.48804   0.00000  Uiso   1.00
C620   C     0.93295   0.50026   0.51196   0.00000  Uiso   1.00
C621   C     0.67868   0.49972   0.48161   0.00000  Uiso   1.00
C622   C     0.98799   0.50028   0.51839   0.00000  Uiso   1.00
C623   C     0.87507   0.35496   0.48398   0.00000  Uiso   1.00
C624   C     0.79159   0.64504   0.51602   0.00000  Uiso   1.00
C625   C     0.87432   0.64498   0.48342   0.00000  Uiso   1.00
C626   C     0.79234   0.35502   0.51657   0.00000  Uiso   1.00
C627   C     0.83273   0.62404   0.49934   0.00000  Uiso   1.00
C628   C     0.83394   0.37596   0.50066   0.00000  Uiso   1.00
C629   C     0.86692   0.52514   0.36150   0.00000  Uiso   1.00
C630   C     0.79975   0.47486   0.63850   0.00000  Uiso   1.00
C631   C     0.86690   0.52513   0.64691   0.00000  Uiso   1.00
C632   C     0.79977   0.47487   0.35309   0.00000  Uiso   1.00
H633   H     0.99140   0.49933   0.44672   0.00000  Uiso   1.00
H634   H     0.67526   0.50066   0.55328   0.00000  Uiso   1.00
H635   H     0.89381   0.54524   0.38298   0.00000  Uiso   1.00
H636   H     0.77286   0.45476   0.61702   0.00000  Uiso   1.00
H637   H     0.89375   0.54525   0.63216   0.00000  Uiso   1.00
H638   H     0.77292   0.45475   0.36784   0.00000  Uiso   1.00
N639   N     0.83332   0.49999   0.61907   0.00000  Uiso   1.00
N640   N     0.83335   0.50001   0.38093   0.00000  Uiso   1.00
O641   O     0.83333   0.43892   0.53821   0.00000  Uiso   1.00
O642   O     0.83334   0.56108   0.46179   0.00000  Uiso   1.00
O643   O     0.83333   0.43893   0.46176   0.00000  Uiso   1.00
O644   O     0.83334   0.56107   0.53824   0.00000  Uiso   1.00
O645   O     0.75725   0.50000   0.52928   0.00000  Uiso   1.00
O646   O     0.90942   0.50000   0.47072   0.00000  Uiso   1.00
O647   O     0.75725   0.50000   0.45284   0.00000  Uiso   1.00
O648   O     0.90942   0.50000   0.54716   0.00000  Uiso   1.00
Zn649  Zn    0.83333   0.49999   0.55104   0.00000  Uiso   1.00
Zn650  Zn    0.83333   0.50001   0.44896   0.00000  Uiso   1.00
C651   C     0.91941   0.37807   0.46859   0.00000  Uiso   1.00
O652   O     0.94283   0.40469   0.49318   0.00000  Uiso   1.00
O653   O     0.93399   0.36967   0.42589   0.00000  Uiso   1.00
H654   H     0.96460   0.38749   0.41940   0.00000  Uiso   1.00
C655   C     0.74724   0.62193   0.53139   0.00000  Uiso   1.00
O656   O     0.72385   0.59529   0.50682   0.00000  Uiso   1.00
O657   O     0.73261   0.63036   0.57406   0.00000  Uiso   1.00
H658   H     0.70200   0.61253   0.58055   0.00000  Uiso   1.00
Br659  Br    0.93269   0.61424   0.46551   0.00000  Uiso   1.00
Br660  Br    0.73397   0.38577   0.53448   0.00000  Uiso   1.00
C661   C     0.16653   0.75346   0.50012   0.00000  Uiso   1.00
C662   C     0.16680   0.91321   0.49988   0.00000  Uiso   1.00
C663   C     0.06705   0.83307   0.48804   0.00000  Uiso   1.00
C664   C     0.26629   0.83359   0.51196   0.00000  Uiso   1.00
C665   C     0.01201   0.83305   0.48161   0.00000  Uiso   1.00
C666   C     0.32132   0.83361   0.51839   0.00000  Uiso   1.00
C667   C     0.20841   0.68829   0.48398   0.00000  Uiso   1.00
C668   C     0.12492   0.97837   0.51602   0.00000  Uiso   1.00
C669   C     0.20766   0.97832   0.48342   0.00000  Uiso   1.00
C670   C     0.12567   0.68835   0.51657   0.00000  Uiso   1.00
C671   C     0.16606   0.95738   0.49934   0.00000  Uiso   1.00
C672   C     0.16727   0.70929   0.50066   0.00000  Uiso   1.00
C673   C     0.20025   0.85847   0.36150   0.00000  Uiso   1.00
C674   C     0.13308   0.80820   0.63850   0.00000  Uiso   1.00
C675   C     0.20023   0.85847   0.64691   0.00000  Uiso   1.00
C676   C     0.13310   0.80820   0.35309   0.00000  Uiso   1.00
H677   H     0.32474   0.83267   0.44672   0.00000  Uiso   1.00
H678   H     0.00860   0.83399   0.55328   0.00000  Uiso   1.00
H679   H     0.22714   0.87857   0.38298   0.00000  Uiso   1.00
H680   H     0.10619   0.78809   0.61702   0.00000  Uiso   1.00
H681   H     0.22708   0.87859   0.63216   0.00000  Uiso   1.00
H682   H     0.10625   0.78808   0.36784   0.00000  Uiso   1.00
N683   N     0.16665   0.83332   0.61907   0.00000  Uiso   1.00
N684   N     0.16668   0.83334   0.38093   0.00000  Uiso   1.00
O685   O     0.16666   0.77225   0.53821   0.00000  Uiso   1.00
O686   O     0.16667   0.89442   0.46179   0.00000  Uiso   1.00
O687   O     0.16666   0.77226   0.46176   0.00000  Uiso   1.00
O688   O     0.16667   0.89441   0.53824   0.00000  Uiso   1.00
O689   O     0.09058   0.83333   0.52928   0.00000  Uiso   1.00
O690   O     0.24275   0.83334   0.47072   0.00000  Uiso   1.00
O691   O     0.09058   0.83334   0.45284   0.00000  Uiso   1.00
O692   O     0.24275   0.83333   0.54716   0.00000  Uiso   1.00
Zn693  Zn    0.16667   0.83333   0.55104   0.00000  Uiso   1.00
Zn694  Zn    0.16667   0.83334   0.44896   0.00000  Uiso   1.00
C695   C     0.25275   0.71140   0.46859   0.00000  Uiso   1.00
O696   O     0.27616   0.73802   0.49318   0.00000  Uiso   1.00
O697   O     0.26732   0.70300   0.42589   0.00000  Uiso   1.00
H698   H     0.29793   0.72083   0.41940   0.00000  Uiso   1.00
C699   C     0.08057   0.95526   0.53139   0.00000  Uiso   1.00
O700   O     0.05719   0.92862   0.50682   0.00000  Uiso   1.00
O701   O     0.06594   0.96370   0.57406   0.00000  Uiso   1.00
H702   H     0.03534   0.94587   0.58055   0.00000  Uiso   1.00
Br703  Br    0.26603   0.94757   0.46551   0.00000  Uiso   1.00
Br704  Br    0.06730   0.71910   0.53448   0.00000  Uiso   1.00
C705   C     0.49986   0.75346   0.50012   0.00000  Uiso   1.00
C706   C     0.50014   0.91321   0.49988   0.00000  Uiso   1.00
C707   C     0.40038   0.83307   0.48804   0.00000  Uiso   1.00
C708   C     0.59962   0.83359   0.51196   0.00000  Uiso   1.00
C709   C     0.34534   0.83305   0.48161   0.00000  Uiso   1.00
C710   C     0.65466   0.83361   0.51839   0.00000  Uiso   1.00
C711   C     0.54174   0.68829   0.48398   0.00000  Uiso   1.00
C712   C     0.45825   0.97837   0.51602   0.00000  Uiso   1.00
C713   C     0.54099   0.97832   0.48342   0.00000  Uiso   1.00
C714   C     0.45900   0.68835   0.51657   0.00000  Uiso   1.00
C715   C     0.49939   0.95738   0.49934   0.00000  Uiso   1.00
C716   C     0.50060   0.70929   0.50066   0.00000  Uiso   1.00
C717   C     0.53359   0.85847   0.36150   0.00000  Uiso   1.00
C718   C     0.46641   0.80820   0.63850   0.00000  Uiso   1.00
C719   C     0.53356   0.85847   0.64691   0.00000  Uiso   1.00
C720   C     0.46644   0.80820   0.35309   0.00000  Uiso   1.00
H721   H     0.65807   0.83267   0.44672   0.00000  Uiso   1.00
H722   H     0.34193   0.83399   0.55328   0.00000  Uiso   1.00
H723   H     0.56048   0.87857   0.38298   0.00000  Uiso   1.00
H724   H     0.43952   0.78809   0.61702   0.00000  Uiso   1.00
H725   H     0.56042   0.87859   0.63216   0.00000  Uiso   1.00
H726   H     0.43958   0.78808   0.36784   0.00000  Uiso   1.00
N727   N     0.49999   0.83332   0.61907   0.00000  Uiso   1.00
N728   N     0.50001   0.83334   0.38093   0.00000  Uiso   1.00
O729   O     0.50000   0.77225   0.53821   0.00000  Uiso   1.00
O730   O     0.50000   0.89442   0.46179   0.00000  Uiso   1.00
O731   O     0.50000   0.77226   0.46176   0.00000  Uiso   1.00
O732   O     0.50000   0.89441   0.53824   0.00000  Uiso   1.00
O733   O     0.42392   0.83333   0.52928   0.00000  Uiso   1.00
O734   O     0.57608   0.83334   0.47072   0.00000  Uiso   1.00
O735   O     0.42392   0.83334   0.45284   0.00000  Uiso   1.00
O736   O     0.57608   0.83333   0.54716   0.00000  Uiso   1.00
Zn737  Zn    0.50000   0.83333   0.55104   0.00000  Uiso   1.00
Zn738  Zn    0.50000   0.83334   0.44896   0.00000  Uiso   1.00
C739   C     0.58608   0.71140   0.46859   0.00000  Uiso   1.00
O740   O     0.60950   0.73802   0.49318   0.00000  Uiso   1.00
O741   O     0.60065   0.70300   0.42589   0.00000  Uiso   1.00
H742   H     0.63126   0.72083   0.41940   0.00000  Uiso   1.00
C743   C     0.41391   0.95526   0.53139   0.00000  Uiso   1.00
O744   O     0.39052   0.92862   0.50682   0.00000  Uiso   1.00
O745   O     0.39928   0.96370   0.57406   0.00000  Uiso   1.00
H746   H     0.36867   0.94587   0.58055   0.00000  Uiso   1.00
Br747  Br    0.59936   0.94757   0.46551   0.00000  Uiso   1.00
Br748  Br    0.40064   0.71910   0.53448   0.00000  Uiso   1.00
C749   C     0.83320   0.75346   0.50012   0.00000  Uiso   1.00
C750   C     0.83347   0.91321   0.49988   0.00000  Uiso   1.00
C751   C     0.73371   0.83307   0.48804   0.00000  Uiso   1.00
C752   C     0.93295   0.83359   0.51196   0.00000  Uiso   1.00
C753   C     0.67868   0.83305   0.48161   0.00000  Uiso   1.00
C754   C     0.98799   0.83361   0.51839   0.00000  Uiso   1.00
C755   C     0.87507   0.68829   0.48398   0.00000  Uiso   1.00
C756   C     0.79159   0.97837   0.51602   0.00000  Uiso   1.00
C757   C     0.87432   0.97832   0.48342   0.00000  Uiso   1.00
C758   C     0.79234   0.68835   0.51657   0.00000  Uiso   1.00
C759   C     0.83273   0.95738   0.49934   0.00000  Uiso   1.00
C760   C     0.83394   0.70929   0.50066   0.00000  Uiso   1.00
C761   C     0.86692   0.85847   0.36150   0.00000  Uiso   1.00
C762   C     0.79975   0.80820   0.63850   0.00000  Uiso   1.00
C763   C     0.86690   0.85847   0.64691   0.00000  Uiso   1.00
C764   C     0.79977   0.80820   0.35309   0.00000  Uiso   1.00
H765   H     0.99140   0.83267   0.44672   0.00000  Uiso   1.00
H766   H     0.67526   0.83399   0.55328   0.00000  Uiso   1.00
H767   H     0.89381   0.87857   0.38298   0.00000  Uiso   1.00
H768   H     0.77286   0.78809   0.61702   0.00000  Uiso   1.00
H769   H     0.89375   0.87859   0.63216   0.00000  Uiso   1.00
H770   H     0.77292   0.78808   0.36784   0.00000  Uiso   1.00
N771   N     0.83332   0.83332   0.61907   0.00000  Uiso   1.00
N772   N     0.83335   0.83334   0.38093   0.00000  Uiso   1.00
O773   O     0.83333   0.77225   0.53821   0.00000  Uiso   1.00
O774   O     0.83334   0.89442   0.46179   0.00000  Uiso   1.00
O775   O     0.83333   0.77226   0.46176   0.00000  Uiso   1.00
O776   O     0.83334   0.89441   0.53824   0.00000  Uiso   1.00
O777   O     0.75725   0.83333   0.52928   0.00000  Uiso   1.00
O778   O     0.90942   0.83334   0.47072   0.00000  Uiso   1.00
O779   O     0.75725   0.83334   0.45284   0.00000  Uiso   1.00
O780   O     0.90942   0.83333   0.54716   0.00000  Uiso   1.00
Zn781  Zn    0.83333   0.83333   0.55104   0.00000  Uiso   1.00
Zn782  Zn    0.83333   0.83334   0.44896   0.00000  Uiso   1.00
C783   C     0.91941   0.71140   0.46859   0.00000  Uiso   1.00
O784   O     0.94283   0.73802   0.49318   0.00000  Uiso   1.00
O785   O     0.93399   0.70300   0.42589   0.00000  Uiso   1.00
H786   H     0.96460   0.72083   0.41940   0.00000  Uiso   1.00
C787   C     0.74724   0.95526   0.53139   0.00000  Uiso   1.00
O788   O     0.72385   0.92862   0.50682   0.00000  Uiso   1.00
O789   O     0.73261   0.96370   0.57406   0.00000  Uiso   1.00
H790   H     0.70200   0.94587   0.58055   0.00000  Uiso   1.00
Br791  Br    0.93269   0.94757   0.46551   0.00000  Uiso   1.00
Br792  Br    0.73397   0.71910   0.53448   0.00000  Uiso   1.00
C793   C     0.16653   0.08679   0.83345   0.00000  Uiso   1.00
C794   C     0.16680   0.24654   0.83322   0.00000  Uiso   1.00
C795   C     0.06705   0.16641   0.82137   0.00000  Uiso   1.00
C796   C     0.26629   0.16693   0.84530   0.00000  Uiso   1.00
C797   C     0.01201   0.16638   0.81494   0.00000  Uiso   1.00
C798   C     0.32132   0.16695   0.85172   0.00000  Uiso   1.00
C799   C     0.20841   0.02163   0.81731   0.00000  Uiso   1.00
C800   C     0.12492   0.31171   0.84935   0.00000  Uiso   1.00
C801   C     0.20766   0.31165   0.81676   0.00000  Uiso   1.00
C802   C     0.12567   0.02168   0.84991   0.00000  Uiso   1.00
C803   C     0.16606   0.29071   0.83267   0.00000  Uiso   1.00
C804   C     0.16727   0.04262   0.83399   0.00000  Uiso   1.00
C805   C     0.20025   0.19180   0.69484   0.00000  Uiso   1.00
C806   C     0.13308   0.14153   0.97183   0.00000  Uiso   1.00
C807   C     0.20023   0.19180   0.98024   0.00000  Uiso   1.00
C808   C     0.13310   0.14153   0.68642   0.00000  Uiso   1.00
H809   H     0.32474   0.16600   0.78005   0.00000  Uiso   1.00
H810   H     0.00860   0.16733   0.88662   0.00000  Uiso   1.00
H811   H     0.22714   0.21191   0.71632   0.00000  Uiso   1.00
H812   H     0.10619   0.12143   0.95035   0.00000  Uiso   1.00
H813   H     0.22708   0.21192   0.96549   0.00000  Uiso   1.00
H814   H     0.10625   0.12142   0.70118   0.00000  Uiso   1.00
N815   N     0.16665   0.16666   0.95240   0.00000  Uiso   1.00
N816   N     0.16668   0.16668   0.71427   0.00000  Uiso   1.00
O817   O     0.16666   0.10558   0.87154   0.00000  Uiso   1.00
O818   O     0.16667   0.22775   0.79513   0.00000  Uiso   1.00
O819   O     0.16666   0.10559   0.79510   0.00000  Uiso   1.00
O820   O     0.16667   0.22774   0.87157   0.00000  Uiso   1.00
O821   O     0.09058   0.16666   0.86261   0.00000  Uiso   1.00
O822   O     0.24275   0.16667   0.80405   0.00000  Uiso   1.00
O823   O     0.09058   0.16667   0.78617   0.00000  Uiso   1.00
O824   O     0.24275   0.16666   0.88050   0.00000  Uiso   1.00
Zn825  Zn    0.16667   0.16666   0.88437   0.00000  Uiso   1.00
Zn826  Zn    0.16667   0.16667   0.78229   0.00000  Uiso   1.00
C827   C     0.25275   0.04474   0.80193   0.00000  Uiso   1.00
O828   O     0.27616   0.07135   0.82651   0.00000  Uiso   1.00
O829   O     0.26732   0.03633   0.75923   0.00000  Uiso   1.00
H830   H     0.29793   0.05416   0.75273   0.00000  Uiso   1.00
C831   C     0.08057   0.28860   0.86473   0.00000  Uiso   1.00
O832   O     0.05719   0.26196   0.84015   0.00000  Uiso   1.00
O833   O     0.06594   0.29703   0.90739   0.00000  Uiso   1.00
H834   H     0.03534   0.27920   0.91389   0.00000  Uiso   1.00
Br835  Br    0.26603   0.28091   0.79884   0.00000  Uiso   1.00
Br836  Br    0.06730   0.05243   0.86781   0.00000  Uiso   1.00
C837   C     0.49986   0.08679   0.83345   0.00000  Uiso   1.00
C838   C     0.50014   0.24654   0.83322   0.00000  Uiso   1.00
C839   C     0.40038   0.16641   0.82137   0.00000  Uiso   1.00
C840   C     0.59962   0.16693   0.84530   0.00000  Uiso   1.00
C841   C     0.34534   0.16638   0.81494   0.00000  Uiso   1.00
C842   C     0.65466   0.16695   0.85172   0.00000  Uiso   1.00
C843   C     0.54174   0.02163   0.81731   0.00000  Uiso   1.00
C844   C     0.45825   0.31171   0.84935   0.00000  Uiso   1.00
C845   C     0.54099   0.31165   0.81676   0.00000  Uiso   1.00
C846   C     0.45900   0.02168   0.84991   0.00000  Uiso   1.00
C847   C     0.49939   0.29071   0.83267   0.00000  Uiso   1.00
C848   C     0.50060   0.04262   0.83399   0.00000  Uiso   1.00
C849   C     0.53359   0.19180   0.69484   0.00000  Uiso   1.00
C850   C     0.46641   0.14153   0.97183   0.00000  Uiso   1.00
C851   C     0.53356   0.19180   0.98024   0.00000  Uiso   1.00
C852   C     0.46644   0.14153   0.68642   0.00000  Uiso   1.00
H853   H     0.65807   0.16600   0.78005   0.00000  Uiso   1.00
H854   H     0.34193   0.16733   0.88662   0.00000  Uiso   1.00
H855   H     0.56048   0.21191   0.71632   0.00000  Uiso   1.00
H856   H     0.43952   0.12143   0.95035   0.00000  Uiso   1.00
H857   H     0.56042   0.21192   0.96549   0.00000  Uiso   1.00
H858   H     0.43958   0.12142   0.70118   0.00000  Uiso   1.00
N859   N     0.49999   0.16666   0.95240   0.00000  Uiso   1.00
N860   N     0.50001   0.16668   0.71427   0.00000  Uiso   1.00
O861   O     0.50000   0.10558   0.87154   0.00000  Uiso   1.00
O862   O     0.50000   0.22775   0.79513   0.00000  Uiso   1.00
O863   O     0.50000   0.10559   0.79510   0.00000  Uiso   1.00
O864   O     0.50000   0.22774   0.87157   0.00000  Uiso   1.00
O865   O     0.42392   0.16666   0.86261   0.00000  Uiso   1.00
O866   O     0.57608   0.16667   0.80405   0.00000  Uiso   1.00
O867   O     0.42392   0.16667   0.78617   0.00000  Uiso   1.00
O868   O     0.57608   0.16666   0.88050   0.00000  Uiso   1.00
Zn869  Zn    0.50000   0.16666   0.88437   0.00000  Uiso   1.00
Zn870  Zn    0.50000   0.16667   0.78229   0.00000  Uiso   1.00
C871   C     0.58608   0.04474   0.80193   0.00000  Uiso   1.00
O872   O     0.60950   0.07135   0.82651   0.00000  Uiso   1.00
O873   O     0.60065   0.03633   0.75923   0.00000  Uiso   1.00
H874   H     0.63126   0.05416   0.75273   0.00000  Uiso   1.00
C875   C     0.41391   0.28860   0.86473   0.00000  Uiso   1.00
O876   O     0.39052   0.26196   0.84015   0.00000  Uiso   1.00
O877   O     0.39928   0.29703   0.90739   0.00000  Uiso   1.00
H878   H     0.36867   0.27920   0.91389   0.00000  Uiso   1.00
Br879  Br    0.59936   0.28091   0.79884   0.00000  Uiso   1.00
Br880  Br    0.40064   0.05243   0.86781   0.00000  Uiso   1.00
C881   C     0.83320   0.08679   0.83345   0.00000  Uiso   1.00
C882   C     0.83347   0.24654   0.83322   0.00000  Uiso   1.00
C883   C     0.73371   0.16641   0.82137   0.00000  Uiso   1.00
C884   C     0.93295   0.16693   0.84530   0.00000  Uiso   1.00
C885   C     0.67868   0.16638   0.81494   0.00000  Uiso   1.00
C886   C     0.98799   0.16695   0.85172   0.00000  Uiso   1.00
C887   C     0.87507   0.02163   0.81731   0.00000  Uiso   1.00
C888   C     0.79159   0.31171   0.84935   0.00000  Uiso   1.00
C889   C     0.87432   0.31165   0.81676   0.00000  Uiso   1.00
C890   C     0.79234   0.02168   0.84991   0.00000  Uiso   1.00
C891   C     0.83273   0.29071   0.83267   0.00000  Uiso   1.00
C892   C     0.83394   0.04262   0.83399   0.00000  Uiso   1.00
C893   C     0.86692   0.19180   0.69484   0.00000  Uiso   1.00
C894   C     0.79975   0.14153   0.97183   0.00000  Uiso   1.00
C895   C     0.86690   0.19180   0.98024   0.00000  Uiso   1.00
C896   C     0.79977   0.14153   0.68642   0.00000  Uiso   1.00
H897   H     0.99140   0.16600   0.78005   0.00000  Uiso   1.00
H898   H     0.67526   0.16733   0.88662   0.00000  Uiso   1.00
H899   H     0.89381   0.21191   0.71632   0.00000  Uiso   1.00
H900   H     0.77286   0.12143   0.95035   0.00000  Uiso   1.00
H901   H     0.89375   0.21192   0.96549   0.00000  Uiso   1.00
H902   H     0.77292   0.12142   0.70118   0.00000  Uiso   1.00
N903   N     0.83332   0.16666   0.95240   0.00000  Uiso   1.00
N904   N     0.83335   0.16668   0.71427   0.00000  Uiso   1.00
O905   O     0.83333   0.10558   0.87154   0.00000  Uiso   1.00
O906   O     0.83334   0.22775   0.79513   0.00000  Uiso   1.00
O907   O     0.83333   0.10559   0.79510   0.00000  Uiso   1.00
O908   O     0.83334   0.22774   0.87157   0.00000  Uiso   1.00
O909   O     0.75725   0.16666   0.86261   0.00000  Uiso   1.00
O910   O     0.90942   0.16667   0.80405   0.00000  Uiso   1.00
O911   O     0.75725   0.16667   0.78617   0.00000  Uiso   1.00
O912   O     0.90942   0.16666   0.88050   0.00000  Uiso   1.00
Zn913  Zn    0.83333   0.16666   0.88437   0.00000  Uiso   1.00
Zn914  Zn    0.83333   0.16667   0.78229   0.00000  Uiso   1.00
C915   C     0.91941   0.04474   0.80193   0.00000  Uiso   1.00
O916   O     0.94283   0.07135   0.82651   0.00000  Uiso   1.00
O917   O     0.93399   0.03633   0.75923   0.00000  Uiso   1.00
H918   H     0.96460   0.05416   0.75273   0.00000  Uiso   1.00
C919   C     0.74724   0.28860   0.86473   0.00000  Uiso   1.00
O920   O     0.72385   0.26196   0.84015   0.00000  Uiso   1.00
O921   O     0.73261   0.29703   0.90739   0.00000  Uiso   1.00
H922   H     0.70200   0.27920   0.91389   0.00000  Uiso   1.00
Br923  Br    0.93269   0.28091   0.79884   0.00000  Uiso   1.00
Br924  Br    0.73397   0.05243   0.86781   0.00000  Uiso   1.00
C925   C     0.16653   0.42013   0.83345   0.00000  Uiso   1.00
C926   C     0.16680   0.57987   0.83322   0.00000  Uiso   1.00
C927   C     0.06705   0.49974   0.82137   0.00000  Uiso   1.00
C928   C     0.26629   0.50026   0.84530   0.00000  Uiso   1.00
C929   C     0.01201   0.49972   0.81494   0.00000  Uiso   1.00
C930   C     0.32132   0.50028   0.85172   0.00000  Uiso   1.00
C931   C     0.20841   0.35496   0.81731   0.00000  Uiso   1.00
C932   C     0.12492   0.64504   0.84935   0.00000  Uiso   1.00
C933   C     0.20766   0.64498   0.81676   0.00000  Uiso   1.00
C934   C     0.12567   0.35502   0.84991   0.00000  Uiso   1.00
C935   C     0.16606   0.62404   0.83267   0.00000  Uiso   1.00
C936   C     0.16727   0.37596   0.83399   0.00000  Uiso   1.00
C937   C     0.20025   0.52514   0.69484   0.00000  Uiso   1.00
C938   C     0.13308   0.47486   0.97183   0.00000  Uiso   1.00
C939   C     0.20023   0.52513   0.98024   0.00000  Uiso   1.00
C940   C     0.13310   0.47487   0.68642   0.00000  Uiso   1.00
H941   H     0.32474   0.49933   0.78005   0.00000  Uiso   1.00
H942   H     0.00860   0.50066   0.88662   0.00000  Uiso   1.00
H943   H     0.22714   0.54524   0.71632   0.00000  Uiso   1.00
H944   H     0.10619   0.45476   0.95035   0.00000  Uiso   1.00
H945   H     0.22708   0.54525   0.96549   0.00000  Uiso   1.00
H946   H     0.10625   0.45475   0.70118   0.00000  Uiso   1.00
N947   N     0.16665   0.49999   0.95240   0.00000  Uiso   1.00
N948   N     0.16668   0.50001   0.71427   0.00000  Uiso   1.00
O949   O     0.16666   0.43892   0.87154   0.00000  Uiso   1.00
O950   O     0.16667   0.56108   0.79513   0.00000  Uiso   1.00
O951   O     0.16666   0.43893   0.79510   0.00000  Uiso   1.00
O952   O     0.16667   0.56107   0.87157   0.00000  Uiso   1.00
O953   O     0.09058   0.50000   0.86261   0.00000  Uiso   1.00
O954   O     0.24275   0.50000   0.80405   0.00000  Uiso   1.00
O955   O     0.09058   0.50000   0.78617   0.00000  Uiso   1.00
O956   O     0.24275   0.50000   0.88050   0.00000  Uiso   1.00
Zn957  Zn    0.16667   0.49999   0.88437   0.00000  Uiso   1.00
Zn958  Zn    0.16667   0.50001   0.78229   0.00000  Uiso   1.00
C959   C     0.25275   0.37807   0.80193   0.00000  Uiso   1.00
O960   O     0.27616   0.40469   0.82651   0.00000  Uiso   1.00
O961   O     0.26732   0.36967   0.75923   0.00000  Uiso   1.00
H962   H     0.29793   0.38749   0.75273   0.00000  Uiso   1.00
C963   C     0.08057   0.62193   0.86473   0.00000  Uiso   1.00
O964   O     0.05719   0.59529   0.84015   0.00000  Uiso   1.00
O965   O     0.06594   0.63036   0.90739   0.00000  Uiso   1.00
H966   H     0.03534   0.61253   0.91389   0.00000  Uiso   1.00
Br967  Br    0.26603   0.61424   0.79884   0.00000  Uiso   1.00
Br968  Br    0.06730   0.38577   0.86781   0.00000  Uiso   1.00
C969   C     0.49986   0.42013   0.83345   0.00000  Uiso   1.00
C970   C     0.50014   0.57987   0.83322   0.00000  Uiso   1.00
C971   C     0.40038   0.49974   0.82137   0.00000  Uiso   1.00
C972   C     0.59962   0.50026   0.84530   0.00000  Uiso   1.00
C973   C     0.34534   0.49972   0.81494   0.00000  Uiso   1.00
C974   C     0.65466   0.50028   0.85172   0.00000  Uiso   1.00
C975   C     0.54174   0.35496   0.81731   0.00000  Uiso   1.00
C976   C     0.45825   0.64504   0.84935   0.00000  Uiso   1.00
C977   C     0.54099   0.64498   0.81676   0.00000  Uiso   1.00
C978   C     0.45900   0.35502   0.84991   0.00000  Uiso   1.00
C979   C     0.49939   0.62404   0.83267   0.00000  Uiso   1.00
C980   C     0.50060   0.37596   0.83399   0.00000  Uiso   1.00
C981   C     0.53359   0.52514   0.69484   0.00000  Uiso   1.00
C982   C     0.46641   0.47486   0.97183   0.00000  Uiso   1.00
C983   C     0.53356   0.52513   0.98024   0.00000  Uiso   1.00
C984   C     0.46644   0.47487   0.68642   0.00000  Uiso   1.00
H985   H     0.65807   0.49933   0.78005   0.00000  Uiso   1.00
H986   H     0.34193   0.50066   0.88662   0.00000  Uiso   1.00
H987   H     0.56048   0.54524   0.71632   0.00000  Uiso   1.00
H988   H     0.43952   0.45476   0.95035   0.00000  Uiso   1.00
H989   H     0.56042   0.54525   0.96549   0.00000  Uiso   1.00
H990   H     0.43958   0.45475   0.70118   0.00000  Uiso   1.00
N991   N     0.49999   0.49999   0.95240   0.00000  Uiso   1.00
N992   N     0.50001   0.50001   0.71427   0.00000  Uiso   1.00
O993   O     0.50000   0.43892   0.87154   0.00000  Uiso   1.00
O994   O     0.50000   0.56108   0.79513   0.00000  Uiso   1.00
O995   O     0.50000   0.43893   0.79510   0.00000  Uiso   1.00
O996   O     0.50000   0.56107   0.87157   0.00000  Uiso   1.00
O997   O     0.42392   0.50000   0.86261   0.00000  Uiso   1.00
O998   O     0.57608   0.50000   0.80405   0.00000  Uiso   1.00
O999   O     0.42392   0.50000   0.78617   0.00000  Uiso   1.00
O1000  O     0.57608   0.50000   0.88050   0.00000  Uiso   1.00
Zn1001 Zn    0.50000   0.49999   0.88437   0.00000  Uiso   1.00
Zn1002 Zn    0.50000   0.50001   0.78229   0.00000  Uiso   1.00
C1003  C     0.58608   0.37807   0.80193   0.00000  Uiso   1.00
O1004  O     0.60950   0.40469   0.82651   0.00000  Uiso   1.00
O1005  O     0.60065   0.36967   0.75923   0.00000  Uiso   1.00
H1006  H     0.63126   0.38749   0.75273   0.00000  Uiso   1.00
C1007  C     0.41391   0.62193   0.86473   0.00000  Uiso   1.00
O1008  O     0.39052   0.59529   0.84015   0.00000  Uiso   1.00
O1009  O     0.39928   0.63036   0.90739   0.00000  Uiso   1.00
H1010  H     0.36867   0.61253   0.91389   0.00000  Uiso   1.00
Br1011 Br    0.59936   0.61424   0.79884   0.00000  Uiso   1.00
Br1012 Br    0.40064   0.38577   0.86781   0.00000  Uiso   1.00
C1013  C     0.83320   0.42013   0.83345   0.00000  Uiso   1.00
C1014  C     0.83347   0.57987   0.83322   0.00000  Uiso   1.00
C1015  C     0.73371   0.49974   0.82137   0.00000  Uiso   1.00
C1016  C     0.93295   0.50026   0.84530   0.00000  Uiso   1.00
C1017  C     0.67868   0.49972   0.81494   0.00000  Uiso   1.00
C1018  C     0.98799   0.50028   0.85172   0.00000  Uiso   1.00
C1019  C     0.87507   0.35496   0.81731   0.00000  Uiso   1.00
C1020  C     0.79159   0.64504   0.84935   0.00000  Uiso   1.00
C1021  C     0.87432   0.64498   0.81676   0.00000  Uiso   1.00
C1022  C     0.79234   0.35502   0.84991   0.00000  Uiso   1.00
C1023  C     0.83273   0.62404   0.83267   0.00000  Uiso   1.00
C1024  C     0.83394   0.37596   0.83399   0.00000  Uiso   1.00
C1025  C     0.86692   0.52514   0.69484   0.00000  Uiso   1.00
C1026  C     0.79975   0.47486   0.97183   0.00000  Uiso   1.00
C1027  C     0.86690   0.52513   0.98024   0.00000  Uiso   1.00
C1028  C     0.79977   0.47487   0.68642   0.00000  Uiso   1.00
H1029  H     0.99140   0.49933   0.78005   0.00000  Uiso   1.00
H1030  H     0.67526   0.50066   0.88662   0.00000  Uiso   1.00
H1031  H     0.89381   0.54524   0.71632   0.00000  Uiso   1.00
H1032  H     0.77286   0.45476   0.95035   0.00000  Uiso   1.00
H1033  H     0.89375   0.54525   0.96549   0.00000  Uiso   1.00
H1034  H     0.77292   0.45475   0.70118   0.00000  Uiso   1.00
N1035  N     0.83332   0.49999   0.95240   0.00000  Uiso   1.00
N1036  N     0.83335   0.50001   0.71427   0.00000  Uiso   1.00
O1037  O     0.83333   0.43892   0.87154   0.00000  Uiso   1.00
O1038  O     0.83334   0.56108   0.79513   0.00000  Uiso   1.00
O1039  O     0.83333   0.43893   0.79510   0.00000  Uiso   1.00
O1040  O     0.83334   0.56107   0.87157   0.00000  Uiso   1.00
O1041  O     0.75725   0.50000   0.86261   0.00000  Uiso   1.00
O1042  O     0.90942   0.50000   0.80405   0.00000  Uiso   1.00
O1043  O     0.75725   0.50000   0.78617   0.00000  Uiso   1.00
O1044  O     0.90942   0.50000   0.88050   0.00000  Uiso   1.00
Zn1045 Zn    0.83333   0.49999   0.88437   0.00000  Uiso   1.00
Zn1046 Zn    0.83333   0.50001   0.78229   0.00000  Uiso   1.00
C1047  C     0.91941   0.37807   0.80193   0.00000  Uiso   1.00
O1048  O     0.94283   0.40469   0.82651   0.00000  Uiso   1.00
O1049  O     0.93399   0.36967   0.75923   0.00000  Uiso   1.00
H1050  H     0.96460   0.38749   0.75273   0.00000  Uiso   1.00
C1051  C     0.74724   0.62193   0.86473   0.00000  Uiso   1.00
O1052  O     0.72385   0.59529   0.84015   0.00000  Uiso   1.00
O1053  O     0.73261   0.63036   0.90739   0.00000  Uiso   1.00
H1054  H     0.70200   0.61253   0.91389   0.00000  Uiso   1.00
Br1055 Br    0.93269   0.61424   0.79884   0.00000  Uiso   1.00
Br1056 Br    0.73397   0.38577   0.86781   0.00000  Uiso   1.00
C1057  C     0.16653   0.75346   0.83345   0.00000  Uiso   1.00
C1058  C     0.16680   0.91321   0.83322   0.00000  Uiso   1.00
C1059  C     0.06705   0.83307   0.82137   0.00000  Uiso   1.00
C1060  C     0.26629   0.83359   0.84530   0.00000  Uiso   1.00
C1061  C     0.01201   0.83305   0.81494   0.00000  Uiso   1.00
C1062  C     0.32132   0.83361   0.85172   0.00000  Uiso   1.00
C1063  C     0.20841   0.68829   0.81731   0.00000  Uiso   1.00
C1064  C     0.12492   0.97837   0.84935   0.00000  Uiso   1.00
C1065  C     0.20766   0.97832   0.81676   0.00000  Uiso   1.00
C1066  C     0.12567   0.68835   0.84991   0.00000  Uiso   1.00
C1067  C     0.16606   0.95738   0.83267   0.00000  Uiso   1.00
C1068  C     0.16727   0.70929   0.83399   0.00000  Uiso   1.00
C1069  C     0.20025   0.85847   0.69484   0.00000  Uiso   1.00
C1070  C     0.13308   0.80820   0.97183   0.00000  Uiso   1.00
C1071  C     0.20023   0.85847   0.98024   0.00000  Uiso   1.00
C1072  C     0.13310   0.80820   0.68642   0.00000  Uiso   1.00
H1073  H     0.32474   0.83267   0.78005   0.00000  Uiso   1.00
H1074  H     0.00860   0.83399   0.88662   0.00000  Uiso   1.00
H1075  H     0.22714   0.87857   0.71632   0.00000  Uiso   1.00
H1076  H     0.10619   0.78809   0.95035   0.00000  Uiso   1.00
H1077  H     0.22708   0.87859   0.96549   0.00000  Uiso   1.00
H1078  H     0.10625   0.78808   0.70118   0.00000  Uiso   1.00
N1079  N     0.16665   0.83332   0.95240   0.00000  Uiso   1.00
N1080  N     0.16668   0.83334   0.71427   0.00000  Uiso   1.00
O1081  O     0.16666   0.77225   0.87154   0.00000  Uiso   1.00
O1082  O     0.16667   0.89442   0.79513   0.00000  Uiso   1.00
O1083  O     0.16666   0.77226   0.79510   0.00000  Uiso   1.00
O1084  O     0.16667   0.89441   0.87157   0.00000  Uiso   1.00
O1085  O     0.09058   0.83333   0.86261   0.00000  Uiso   1.00
O1086  O     0.24275   0.83334   0.80405   0.00000  Uiso   1.00
O1087  O     0.09058   0.83334   0.78617   0.00000  Uiso   1.00
O1088  O     0.24275   0.83333   0.88050   0.00000  Uiso   1.00
Zn1089 Zn    0.16667   0.83333   0.88437   0.00000  Uiso   1.00
Zn1090 Zn    0.16667   0.83334   0.78229   0.00000  Uiso   1.00
C1091  C     0.25275   0.71140   0.80193   0.00000  Uiso   1.00
O1092  O     0.27616   0.73802   0.82651   0.00000  Uiso   1.00
O1093  O     0.26732   0.70300   0.75923   0.00000  Uiso   1.00
H1094  H     0.29793   0.72083   0.75273   0.00000  Uiso   1.00
C1095  C     0.08057   0.95526   0.86473   0.00000  Uiso   1.00
O1096  O     0.05719   0.92862   0.84015   0.00000  Uiso   1.00
O1097  O     0.06594   0.96370   0.90739   0.00000  Uiso   1.00
H1098  H     0.03534   0.94587   0.91389   0.00000  Uiso   1.00
Br1099 Br    0.26603   0.94757   0.79884   0.00000  Uiso   1.00
Br1100 Br    0.06730   0.71910   0.86781   0.00000  Uiso   1.00
C1101  C     0.49986   0.75346   0.83345   0.00000  Uiso   1.00
C1102  C     0.50014   0.91321   0.83322   0.00000  Uiso   1.00
C1103  C     0.40038   0.83307   0.82137   0.00000  Uiso   1.00
C1104  C     0.59962   0.83359   0.84530   0.00000  Uiso   1.00
C1105  C     0.34534   0.83305   0.81494   0.00000  Uiso   1.00
C1106  C     0.65466   0.83361   0.85172   0.00000  Uiso   1.00
C1107  C     0.54174   0.68829   0.81731   0.00000  Uiso   1.00
C1108  C     0.45825   0.97837   0.84935   0.00000  Uiso   1.00
C1109  C     0.54099   0.97832   0.81676   0.00000  Uiso   1.00
C1110  C     0.45900   0.68835   0.84991   0.00000  Uiso   1.00
C1111  C     0.49939   0.95738   0.83267   0.00000  Uiso   1.00
C1112  C     0.50060   0.70929   0.83399   0.00000  Uiso   1.00
C1113  C     0.53359   0.85847   0.69484   0.00000  Uiso   1.00
C1114  C     0.46641   0.80820   0.97183   0.00000  Uiso   1.00
C1115  C     0.53356   0.85847   0.98024   0.00000  Uiso   1.00
C1116  C     0.46644   0.80820   0.68642   0.00000  Uiso   1.00
H1117  H     0.65807   0.83267   0.78005   0.00000  Uiso   1.00
H1118  H     0.34193   0.83399   0.88662   0.00000  Uiso   1.00
H1119  H     0.56048   0.87857   0.71632   0.00000  Uiso   1.00
H1120  H     0.43952   0.78809   0.95035   0.00000  Uiso   1.00
H1121  H     0.56042   0.87859   0.96549   0.00000  Uiso   1.00
H1122  H     0.43958   0.78808   0.70118   0.00000  Uiso   1.00
N1123  N     0.49999   0.83332   0.95240   0.00000  Uiso   1.00
N1124  N     0.50001   0.83334   0.71427   0.00000  Uiso   1.00
O1125  O     0.50000   0.77225   0.87154   0.00000  Uiso   1.00
O1126  O     0.50000   0.89442   0.79513   0.00000  Uiso   1.00
O1127  O     0.50000   0.77226   0.79510   0.00000  Uiso   1.00
O1128  O     0.50000   0.89441   0.87157   0.00000  Uiso   1.00
O1129  O     0.42392   0.83333   0.86261   0.00000  Uiso   1.00
O1130  O     0.57608   0.83334   0.80405   0.00000  Uiso   1.00
O1131  O     0.42392   0.83334   0.78617   0.00000  Uiso   1.00
O1132  O     0.57608   0.83333   0.88050   0.00000  Uiso   1.00
Zn1133 Zn    0.50000   0.83333   0.88437   0.00000  Uiso   1.00
Zn1134 Zn    0.50000   0.83334   0.78229   0.00000  Uiso   1.00
C1135  C     0.58608   0.71140   0.80193   0.00000  Uiso   1.00
O1136  O     0.60950   0.73802   0.82651   0.00000  Uiso   1.00
O1137  O     0.60065   0.70300   0.75923   0.00000  Uiso   1.00
H1138  H     0.63126   0.72083   0.75273   0.00000  Uiso   1.00
C1139  C     0.41391   0.95526   0.86473   0.00000  Uiso   1.00
O1140  O     0.39052   0.92862   0.84015   0.00000  Uiso   1.00
O1141  O     0.39928   0.96370   0.90739   0.00000  Uiso   1.00
H1142  H     0.36867   0.94587   0.91389   0.00000  Uiso   1.00
Br1143 Br    0.59936   0.94757   0.79884   0.00000  Uiso   1.00
Br1144 Br    0.40064   0.71910   0.86781   0.00000  Uiso   1.00
C1145  C     0.83320   0.75346   0.83345   0.00000  Uiso   1.00
C1146  C     0.83347   0.91321   0.83322   0.00000  Uiso   1.00
C1147  C     0.73371   0.83307   0.82137   0.00000  Uiso   1.00
C1148  C     0.93295   0.83359   0.84530   0.00000  Uiso   1.00
C1149  C     0.67868   0.83305   0.81494   0.00000  Uiso   1.00
C1150  C     0.98799   0.83361   0.85172   0.00000  Uiso   1.00
C1151  C     0.87507   0.68829   0.81731   0.00000  Uiso   1.00
C1152  C     0.79159   0.97837   0.84935   0.00000  Uiso   1.00
C1153  C     0.87432   0.97832   0.81676   0.00000  Uiso   1.00
C1154  C     0.79234   0.68835   0.84991   0.00000  Uiso   1.00
C1155  C     0.83273   0.95738   0.83267   0.00000  Uiso   1.00
C1156  C     0.83394   0.70929   0.83399   0.00000  Uiso   1.00
C1157  C     0.86692   0.85847   0.69484   0.00000  Uiso   1.00
C1158  C     0.79975   0.80820   0.97183   0.00000  Uiso   1.00
C1159  C     0.86690   0.85847   0.98024   0.00000  Uiso   1.00
C1160  C     0.79977   0.80820   0.68642   0.00000  Uiso   1.00
H1161  H     0.99140   0.83267   0.78005   0.00000  Uiso   1.00
H1162  H     0.67526   0.83399   0.88662   0.00000  Uiso   1.00
H1163  H     0.89381   0.87857   0.71632   0.00000  Uiso   1.00
H1164  H     0.77286   0.78809   0.95035   0.00000  Uiso   1.00
H1165  H     0.89375   0.87859   0.96549   0.00000  Uiso   1.00
H1166  H     0.77292   0.78808   0.70118   0.00000  Uiso   1.00
N1167  N     0.83332   0.83332   0.95240   0.00000  Uiso   1.00
N1168  N     0.83335   0.83334   0.71427   0.00000  Uiso   1.00
O1169  O     0.83333   0.77225   0.87154   0.00000  Uiso   1.00
O1170  O     0.83334   0.89442   0.79513   0.00000  Uiso   1.00
O1171  O     0.83333   0.77226   0.79510   0.00000  Uiso   1.00
O1172  O     0.83334   0.89441   0.87157   0.00000  Uiso   1.00
O1173  O     0.75725   0.83333   0.86261   0.00000  Uiso   1.00
O1174  O     0.90942   0.83334   0.80405   0.00000  Uiso   1.00
O1175  O     0.75725   0.83334   0.78617   0.00000  Uiso   1.00
O1176  O     0.90942   0.83333   0.88050   0.00000  Uiso   1.00
Zn1177 Zn    0.83333   0.83333   0.88437   0.00000  Uiso   1.00
Zn1178 Zn    0.83333   0.83334   0.78229   0.00000  Uiso   1.00
C1179  C     0.91941   0.71140   0.80193   0.00000  Uiso   1.00
O1180  O     0.94283   0.73802   0.82651   0.00000  Uiso   1.00
O1181  O     0.93399   0.70300   0.75923   0.00000  Uiso   1.00
H1182  H     0.96460   0.72083   0.75273   0.00000  Uiso   1.00
C1183  C     0.74724   0.95526   0.86473   0.00000  Uiso   1.00
O1184  O     0.72385   0.92862   0.84015   0.00000  Uiso   1.00
O1185  O     0.73261   0.96370   0.90739   0.00000  Uiso   1.00
H1186  H     0.70200   0.94587   0.91389   0.00000  Uiso   1.00
Br1187 Br    0.93269   0.94757   0.79884   0.00000  Uiso   1.00
Br1188 Br    0.73397   0.71910   0.86781   0.00000  Uiso   1.00
loop_
_geom_bond_atom_site_label_1
_geom_bond_atom_site_label_2
_geom_bond_distance
_geom_bond_site_symmetry_2
_ccdc_geom_bond_type
C1     O25     1.280   .     A
C1     C12     1.413   .     S
C1     O27     1.281   .     A
C2     O28     1.281   .     A
C2     O26     1.280   .     A
C2     C11     1.413   .     S
C3     O31     1.281   .     A
C3     O29     1.279   .     A
C3     C5      1.404   .     S
C4     O32     1.281   .     A
C4     C6      1.404   .     S
C4     O30     1.279   .     A
C5     C94     1.330   1_455 S
C5     H105    1.088   1_455 S
C6     C49     1.330   .     S
C6     H62     1.088   .     S
C7     C12     1.408   .     A
C7     C35     1.487   .     S
C7     C273    1.385   1_545 S
C8     C39     1.487   .     S
C8     C11     1.408   .     A
C8     C142    1.386   .     S
C9     C11     1.402   .     A
C9     Br43    1.939   .     S
C9     C139    1.385   .     S
C10    C12     1.402   .     A
C10    Br44    1.939   .     S
C10    C272    1.386   1_545 S
C13    H19     1.082   .     S
C13    N24     1.367   .     A
C13    C807    1.417   1_554 S
C14    N23     1.367   .     A
C14    H20     1.082   .     S
C14    C412    1.417   .     S
C15    N23     1.367   .     A
C15    H21     1.082   .     S
C15    C409    1.417   .     S
C16    N24     1.367   .     A
C16    H22     1.082   .     S
C16    C806    1.417   1_554 S
H17    C49     1.088   .     S
H18    C94     1.088   1_455 S
N23    Zn33    2.012   .     S
N24    Zn34    2.012   .     S
O25    Zn33    1.992   .     S
O26    Zn34    1.992   .     S
O27    Zn34    1.988   .     S
O28    Zn33    1.988   .     S
O29    Zn33    1.971   .     S
O30    Zn34    1.971   .     S
O31    Zn34    1.983   .     S
O32    Zn33    1.983   .     S
C35    O36     1.222   .     D
C35    O37     1.398   .     S
O37    H38     1.014   .     S
C39    O41     1.398   .     S
C39    O40     1.222   .     D
O41    H42     1.014   .     S
C45    O69     1.280   .     A
C45    C56     1.413   .     S
C45    O71     1.281   .     A
C46    O72     1.281   .     A
C46    O70     1.280   .     A
C46    C55     1.413   .     S
C47    O75     1.281   .     A
C47    O73     1.279   .     A
C47    C49     1.404   .     S
C48    O76     1.281   .     A
C48    C50     1.404   .     S
C48    O74     1.279   .     A
C50    C93     1.330   .     S
C50    H106    1.088   .     S
C51    C56     1.408   .     A
C51    C79     1.487   .     S
C51    C317    1.385   1_545 S
C52    C83     1.487   .     S
C52    C55     1.408   .     A
C52    C186    1.386   .     S
C53    C55     1.402   .     A
C53    Br87    1.939   .     S
C53    C183    1.385   .     S
C54    C56     1.402   .     A
C54    Br88    1.939   .     S
C54    C316    1.386   1_545 S
C57    H63     1.082   .     S
C57    N68     1.367   .     A
C57    C851    1.417   1_554 S
C58    N67     1.367   .     A
C58    H64     1.082   .     S
C58    C456    1.417   .     S
C59    N67     1.367   .     A
C59    H65     1.082   .     S
C59    C453    1.417   .     S
C60    N68     1.367   .     A
C60    H66     1.082   .     S
C60    C850    1.417   1_554 S
H61    C93     1.088   .     S
N67    Zn77    2.012   .     S
N68    Zn78    2.012   .     S
O69    Zn77    1.992   .     S
O70    Zn78    1.992   .     S
O71    Zn78    1.988   .     S
O72    Zn77    1.988   .     S
O73    Zn77    1.971   .     S
O74    Zn78    1.971   .     S
O75    Zn78    1.983   .     S
O76    Zn77    1.983   .     S
C79    O80     1.222   .     D
C79    O81     1.398   .     S
O81    H82     1.014   .     S
C83    O85     1.398   .     S
C83    O84     1.222   .     D
O85    H86     1.014   .     S
C89    O113    1.280   .     A
C89    C100    1.413   .     S
C89    O115    1.281   .     A
C90    O116    1.281   .     A
C90    O114    1.280   .     A
C90    C99     1.413   .     S
C91    O119    1.281   .     A
C91    O117    1.279   .     A
C91    C93     1.404   .     S
C92    O120    1.281   .     A
C92    C94     1.404   .     S
C92    O118    1.279   .     A
C94    C5      1.330   1_655 S
C94    H18     1.088   1_655 S
C95    C100    1.408   .     A
C95    C123    1.487   .     S
C95    C361    1.385   1_545 S
C96    C127    1.487   .     S
C96    C99     1.408   .     A
C96    C230    1.386   .     S
C97    C99     1.402   .     A
C97    Br131   1.939   .     S
C97    C227    1.385   .     S
C98    C100    1.402   .     A
C98    Br132   1.939   .     S
C98    C360    1.386   1_545 S
C101   H107    1.082   .     S
C101   N112    1.367   .     A
C101   C895    1.417   1_554 S
C102   N111    1.367   .     A
C102   H108    1.082   .     S
C102   C500    1.417   .     S
C103   N111    1.367   .     A
C103   H109    1.082   .     S
C103   C497    1.417   .     S
C104   N112    1.367   .     A
C104   H110    1.082   .     S
C104   C894    1.417   1_554 S
H105   C5      1.088   1_655 S
N111   Zn121   2.012   .     S
N112   Zn122   2.012   .     S
O113   Zn121   1.992   .     S
O114   Zn122   1.992   .     S
O115   Zn122   1.988   .     S
O116   Zn121   1.988   .     S
O117   Zn121   1.971   .     S
O118   Zn122   1.971   .     S
O119   Zn122   1.983   .     S
O120   Zn121   1.983   .     S
C123   O124    1.222   .     D
C123   O125    1.398   .     S
O125   H126    1.014   .     S
C127   O129    1.398   .     S
C127   O128    1.222   .     D
O129   H130    1.014   .     S
C133   O157    1.280   .     A
C133   C144    1.413   .     S
C133   O159    1.281   .     A
C134   O160    1.281   .     A
C134   O158    1.280   .     A
C134   C143    1.413   .     S
C135   O163    1.281   .     A
C135   O161    1.279   .     A
C135   C137    1.404   .     S
C136   O164    1.281   .     A
C136   C138    1.404   .     S
C136   O162    1.279   .     A
C137   C226    1.330   1_455 S
C137   H237    1.088   1_455 S
C138   C181    1.330   .     S
C138   H194    1.088   .     S
C139   C144    1.408   .     A
C139   C167    1.487   .     S
C140   C171    1.487   .     S
C140   C143    1.408   .     A
C140   C274    1.386   .     S
C141   C143    1.402   .     A
C141   Br175   1.939   .     S
C141   C271    1.385   .     S
C142   C144    1.402   .     A
C142   Br176   1.939   .     S
C145   H151    1.082   .     S
C145   N156    1.367   .     A
C145   C939    1.417   1_554 S
C146   N155    1.367   .     A
C146   H152    1.082   .     S
C146   C544    1.417   .     S
C147   N155    1.367   .     A
C147   H153    1.082   .     S
C147   C541    1.417   .     S
C148   N156    1.367   .     A
C148   H154    1.082   .     S
C148   C938    1.417   1_554 S
H149   C181    1.088   .     S
H150   C226    1.088   1_455 S
N155   Zn165   2.012   .     S
N156   Zn166   2.012   .     S
O157   Zn165   1.992   .     S
O158   Zn166   1.992   .     S
O159   Zn166   1.988   .     S
O160   Zn165   1.988   .     S
O161   Zn165   1.971   .     S
O162   Zn166   1.971   .     S
O163   Zn166   1.983   .     S
O164   Zn165   1.983   .     S
C167   O168    1.222   .     D
C167   O169    1.398   .     S
O169   H170    1.014   .     S
C171   O173    1.398   .     S
C171   O172    1.222   .     D
O173   H174    1.014   .     S
C177   O201    1.280   .     A
C177   C188    1.413   .     S
C177   O203    1.281   .     A
C178   O204    1.281   .     A
C178   O202    1.280   .     A
C178   C187    1.413   .     S
C179   O207    1.281   .     A
C179   O205    1.279   .     A
C179   C181    1.404   .     S
C180   O208    1.281   .     A
C180   C182    1.404   .     S
C180   O206    1.279   .     A
C182   C225    1.330   .     S
C182   H238    1.088   .     S
C183   C188    1.408   .     A
C183   C211    1.487   .     S
C184   C215    1.487   .     S
C184   C187    1.408   .     A
C184   C318    1.386   .     S
C185   C187    1.402   .     A
C185   Br219   1.939   .     S
C185   C315    1.385   .     S
C186   C188    1.402   .     A
C186   Br220   1.939   .     S
C189   H195    1.082   .     S
C189   N200    1.367   .     A
C189   C983    1.417   1_554 S
C190   N199    1.367   .     A
C190   H196    1.082   .     S
C190   C588    1.417   .     S
C191   N199    1.367   .     A
C191   H197    1.082   .     S
C191   C585    1.417   .     S
C192   N200    1.367   .     A
C192   H198    1.082   .     S
C192   C982    1.417   1_554 S
H193   C225    1.088   .     S
N199   Zn209   2.012   .     S
N200   Zn210   2.012   .     S
O201   Zn209   1.992   .     S
O202   Zn210   1.992   .     S
O203   Zn210   1.988   .     S
O204   Zn209   1.988   .     S
O205   Zn209   1.971   .     S
O206   Zn210   1.971   .     S
O207   Zn210   1.983   .     S
O208   Zn209   1.983   .     S
C211   O212    1.222   .     D
C211   O213    1.398   .     S
O213   H214    1.014   .     S
C215   O217    1.398   .     S
C215   O216    1.222   .     D
O217   H218    1.014   .     S
C221   O245    1.280   .     A
C221   C232    1.413   .     S
C221   O247    1.281   .     A
C222   O248    1.281   .     A
C222   O246    1.280   .     A
C222   C231    1.413   .     S
C223   O251    1.281   .     A
C223   O249    1.279   .     A
C223   C225    1.404   .     S
C224   O252    1.281   .     A
C224   C226    1.404   .     S
C224   O250    1.279   .     A
C226   C137    1.330   1_655 S
C226   H150    1.088   1_655 S
C227   C232    1.408   .     A
C227   C255    1.487   .     S
C228   C259    1.487   .     S
C228   C231    1.408   .     A
C228   C362    1.386   .     S
C229   C231    1.402   .     A
C229   Br263   1.939   .     S
C229   C359    1.385   .     S
C230   C232    1.402   .     A
C230   Br264   1.939   .     S
C233   H239    1.082   .     S
C233   N244    1.367   .     A
C233   C1027   1.417   1_554 S
C234   N243    1.367   .     A
C234   H240    1.082   .     S
C234   C632    1.417   .     S
C235   N243    1.367   .     A
C235   H241    1.082   .     S
C235   C629    1.417   .     S
C236   N244    1.367   .     A
C236   H242    1.082   .     S
C236   C1026   1.417   1_554 S
H237   C137    1.088   1_655 S
N243   Zn253   2.012   .     S
N244   Zn254   2.012   .     S
O245   Zn253   1.992   .     S
O246   Zn254   1.992   .     S
O247   Zn254   1.988   .     S
O248   Zn253   1.988   .     S
O249   Zn253   1.971   .     S
O250   Zn254   1.971   .     S
O251   Zn254   1.983   .     S
O252   Zn253   1.983   .     S
C255   O256    1.222   .     D
C255   O257    1.398   .     S
O257   H258    1.014   .     S
C259   O261    1.398   .     S
C259   O260    1.222   .     D
O261   H262    1.014   .     S
C265   O289    1.280   .     A
C265   C276    1.413   .     S
C265   O291    1.281   .     A
C266   O292    1.281   .     A
C266   O290    1.280   .     A
C266   C275    1.413   .     S
C267   O295    1.281   .     A
C267   O293    1.279   .     A
C267   C269    1.404   .     S
C268   O296    1.281   .     A
C268   C270    1.404   .     S
C268   O294    1.279   .     A
C269   C358    1.330   1_455 S
C269   H369    1.088   1_455 S
C270   C313    1.330   .     S
C270   H326    1.088   .     S
C271   C276    1.408   .     A
C271   C299    1.487   .     S
C272   C303    1.487   .     S
C272   C275    1.408   .     A
C272   C10     1.386   1_565 S
C273   C275    1.402   .     A
C273   Br307   1.939   .     S
C273   C7      1.385   1_565 S
C274   C276    1.402   .     A
C274   Br308   1.939   .     S
C277   H283    1.082   .     S
C277   N288    1.367   .     A
C277   C1071   1.417   1_554 S
C278   N287    1.367   .     A
C278   H284    1.082   .     S
C278   C676    1.417   .     S
C279   N287    1.367   .     A
C279   H285    1.082   .     S
C279   C673    1.417   .     S
C280   N288    1.367   .     A
C280   H286    1.082   .     S
C280   C1070   1.417   1_554 S
H281   C313    1.088   .     S
H282   C358    1.088   1_455 S
N287   Zn297   2.012   .     S
N288   Zn298   2.012   .     S
O289   Zn297   1.992   .     S
O290   Zn298   1.992   .     S
O291   Zn298   1.988   .     S
O292   Zn297   1.988   .     S
O293   Zn297   1.971   .     S
O294   Zn298   1.971   .     S
O295   Zn298   1.983   .     S
O296   Zn297   1.983   .     S
C299   O300    1.222   .     D
C299   O301    1.398   .     S
O301   H302    1.014   .     S
C303   O305    1.398   .     S
C303   O304    1.222   .     D
O305   H306    1.014   .     S
C309   O333    1.280   .     A
C309   C320    1.413   .     S
C309   O335    1.281   .     A
C310   O336    1.281   .     A
C310   O334    1.280   .     A
C310   C319    1.413   .     S
C311   O339    1.281   .     A
C311   O337    1.279   .     A
C311   C313    1.404   .     S
C312   O340    1.281   .     A
C312   C314    1.404   .     S
C312   O338    1.279   .     A
C314   C357    1.330   .     S
C314   H370    1.088   .     S
C315   C320    1.408   .     A
C315   C343    1.487   .     S
C316   C347    1.487   .     S
C316   C319    1.408   .     A
C316   C54     1.386   1_565 S
C317   C319    1.402   .     A
C317   Br351   1.939   .     S
C317   C51     1.385   1_565 S
C318   C320    1.402   .     A
C318   Br352   1.939   .     S
C321   H327    1.082   .     S
C321   N332    1.367   .     A
C321   C1115   1.417   1_554 S
C322   N331    1.367   .     A
C322   H328    1.082   .     S
C322   C720    1.417   .     S
C323   N331    1.367   .     A
C323   H329    1.082   .     S
C323   C717    1.417   .     S
C324   N332    1.367   .     A
C324   H330    1.082   .     S
C324   C1114   1.417   1_554 S
H325   C357    1.088   .     S
N331   Zn341   2.012   .     S
N332   Zn342   2.012   .     S
O333   Zn341   1.992   .     S
O334   Zn342   1.992   .     S
O335   Zn342   1.988   .     S
O336   Zn341   1.988   .     S
O337   Zn341   1.971   .     S
O338   Zn342   1.971   .     S
O339   Zn342   1.983   .     S
O340   Zn341   1.983   .     S
C343   O344    1.222   .     D
C343   O345    1.398   .     S
O345   H346    1.014   .     S
C347   O349    1.398   .     S
C347   O348    1.222   .     D
O349   H350    1.014   .     S
C353   O377    1.280   .     A
C353   C364    1.413   .     S
C353   O379    1.281   .     A
C354   O380    1.281   .     A
C354   O378    1.280   .     A
C354   C363    1.413   .     S
C355   O383    1.281   .     A
C355   O381    1.279   .     A
C355   C357    1.404   .     S
C356   O384    1.281   .     A
C356   C358    1.404   .     S
C356   O382    1.279   .     A
C358   C269    1.330   1_655 S
C358   H282    1.088   1_655 S
C359   C364    1.408   .     A
C359   C387    1.487   .     S
C360   C391    1.487   .     S
C360   C363    1.408   .     A
C360   C98     1.386   1_565 S
C361   C363    1.402   .     A
C361   Br395   1.939   .     S
C361   C95     1.385   1_565 S
C362   C364    1.402   .     A
C362   Br396   1.939   .     S
C365   H371    1.082   .     S
C365   N376    1.367   .     A
C365   C1159   1.417   1_554 S
C366   N375    1.367   .     A
C366   H372    1.082   .     S
C366   C764    1.417   .     S
C367   N375    1.367   .     A
C367   H373    1.082   .     S
C367   C761    1.417   .     S
C368   N376    1.367   .     A
C368   H374    1.082   .     S
C368   C1158   1.417   1_554 S
H369   C269    1.088   1_655 S
N375   Zn385   2.012   .     S
N376   Zn386   2.012   .     S
O377   Zn385   1.992   .     S
O378   Zn386   1.992   .     S
O379   Zn386   1.988   .     S
O380   Zn385   1.988   .     S
O381   Zn385   1.971   .     S
O382   Zn386   1.971   .     S
O383   Zn386   1.983   .     S
O384   Zn385   1.983   .     S
C387   O388    1.222   .     D
C387   O389    1.398   .     S
O389   H390    1.014   .     S
C391   O393    1.398   .     S
C391   O392    1.222   .     D
O393   H394    1.014   .     S
C397   O421    1.280   .     A
C397   C408    1.413   .     S
C397   O423    1.281   .     A
C398   O424    1.281   .     A
C398   O422    1.280   .     A
C398   C407    1.413   .     S
C399   O427    1.281   .     A
C399   O425    1.279   .     A
C399   C401    1.404   .     S
C400   O428    1.281   .     A
C400   C402    1.404   .     S
C400   O426    1.279   .     A
C401   C490    1.330   1_455 S
C401   H501    1.088   1_455 S
C402   C445    1.330   .     S
C402   H458    1.088   .     S
C403   C408    1.408   .     A
C403   C431    1.487   .     S
C403   C669    1.385   1_545 S
C404   C435    1.487   .     S
C404   C407    1.408   .     A
C404   C538    1.386   .     S
C405   C407    1.402   .     A
C405   Br439   1.939   .     S
C405   C535    1.385   .     S
C406   C408    1.402   .     A
C406   Br440   1.939   .     S
C406   C668    1.386   1_545 S
C409   H415    1.082   .     S
C409   N420    1.367   .     A
C410   N419    1.367   .     A
C410   H416    1.082   .     S
C410   C808    1.417   .     S
C411   N419    1.367   .     A
C411   H417    1.082   .     S
C411   C805    1.417   .     S
C412   N420    1.367   .     A
C412   H418    1.082   .     S
H413   C445    1.088   .     S
H414   C490    1.088   1_455 S
N419   Zn429   2.012   .     S
N420   Zn430   2.012   .     S
O421   Zn429   1.992   .     S
O422   Zn430   1.992   .     S
O423   Zn430   1.988   .     S
O424   Zn429   1.988   .     S
O425   Zn429   1.971   .     S
O426   Zn430   1.971   .     S
O427   Zn430   1.983   .     S
O428   Zn429   1.983   .     S
C431   O432    1.222   .     D
C431   O433    1.398   .     S
O433   H434    1.014   .     S
C435   O437    1.398   .     S
C435   O436    1.222   .     D
O437   H438    1.014   .     S
C441   O465    1.280   .     A
C441   C452    1.413   .     S
C441   O467    1.281   .     A
C442   O468    1.281   .     A
C442   O466    1.280   .     A
C442   C451    1.413   .     S
C443   O471    1.281   .     A
C443   O469    1.279   .     A
C443   C445    1.404   .     S
C444   O472    1.281   .     A
C444   C446    1.404   .     S
C444   O470    1.279   .     A
C446   C489    1.330   .     S
C446   H502    1.088   .     S
C447   C452    1.408   .     A
C447   C475    1.487   .     S
C447   C713    1.385   1_545 S
C448   C479    1.487   .     S
C448   C451    1.408   .     A
C448   C582    1.386   .     S
C449   C451    1.402   .     A
C449   Br483   1.939   .     S
C449   C579    1.385   .     S
C450   C452    1.402   .     A
C450   Br484   1.939   .     S
C450   C712    1.386   1_545 S
C453   H459    1.082   .     S
C453   N464    1.367   .     A
C454   N463    1.367   .     A
C454   H460    1.082   .     S
C454   C852    1.417   .     S
C455   N463    1.367   .     A
C455   H461    1.082   .     S
C455   C849    1.417   .     S
C456   N464    1.367   .     A
C456   H462    1.082   .     S
H457   C489    1.088   .     S
N463   Zn473   2.012   .     S
N464   Zn474   2.012   .     S
O465   Zn473   1.992   .     S
O466   Zn474   1.992   .     S
O467   Zn474   1.988   .     S
O468   Zn473   1.988   .     S
O469   Zn473   1.971   .     S
O470   Zn474   1.971   .     S
O471   Zn474   1.983   .     S
O472   Zn473   1.983   .     S
C475   O476    1.222   .     D
C475   O477    1.398   .     S
O477   H478    1.014   .     S
C479   O481    1.398   .     S
C479   O480    1.222   .     D
O481   H482    1.014   .     S
C485   O509    1.280   .     A
C485   C496    1.413   .     S
C485   O511    1.281   .     A
C486   O512    1.281   .     A
C486   O510    1.280   .     A
C486   C495    1.413   .     S
C487   O515    1.281   .     A
C487   O513    1.279   .     A
C487   C489    1.404   .     S
C488   O516    1.281   .     A
C488   C490    1.404   .     S
C488   O514    1.279   .     A
C490   C401    1.330   1_655 S
C490   H414    1.088   1_655 S
C491   C496    1.408   .     A
C491   C519    1.487   .     S
C491   C757    1.385   1_545 S
C492   C523    1.487   .     S
C492   C495    1.408   .     A
C492   C626    1.386   .     S
C493   C495    1.402   .     A
C493   Br527   1.939   .     S
C493   C623    1.385   .     S
C494   C496    1.402   .     A
C494   Br528   1.939   .     S
C494   C756    1.386   1_545 S
C497   H503    1.082   .     S
C497   N508    1.367   .     A
C498   N507    1.367   .     A
C498   H504    1.082   .     S
C498   C896    1.417   .     S
C499   N507    1.367   .     A
C499   H505    1.082   .     S
C499   C893    1.417   .     S
C500   N508    1.367   .     A
C500   H506    1.082   .     S
H501   C401    1.088   1_655 S
N507   Zn517   2.012   .     S
N508   Zn518   2.012   .     S
O509   Zn517   1.992   .     S
O510   Zn518   1.992   .     S
O511   Zn518   1.988   .     S
O512   Zn517   1.988   .     S
O513   Zn517   1.971   .     S
O514   Zn518   1.971   .     S
O515   Zn518   1.983   .     S
O516   Zn517   1.983   .     S
C519   O520    1.222   .     D
C519   O521    1.398   .     S
O521   H522    1.014   .     S
C523   O525    1.398   .     S
C523   O524    1.222   .     D
O525   H526    1.014   .     S
C529   O553    1.280   .     A
C529   C540    1.413   .     S
C529   O555    1.281   .     A
C530   O556    1.281   .     A
C530   O554    1.280   .     A
C530   C539    1.413   .     S
C531   O559    1.281   .     A
C531   O557    1.279   .     A
C531   C533    1.404   .     S
C532   O560    1.281   .     A
C532   C534    1.404   .     S
C532   O558    1.279   .     A
C533   C622    1.330   1_455 S
C533   H633    1.088   1_455 S
C534   C577    1.330   .     S
C534   H590    1.088   .     S
C535   C540    1.408   .     A
C535   C563    1.487   .     S
C536   C567    1.487   .     S
C536   C539    1.408   .     A
C536   C670    1.386   .     S
C537   C539    1.402   .     A
C537   Br571   1.939   .     S
C537   C667    1.385   .     S
C538   C540    1.402   .     A
C538   Br572   1.939   .     S
C541   H547    1.082   .     S
C541   N552    1.367   .     A
C542   N551    1.367   .     A
C542   H548    1.082   .     S
C542   C940    1.417   .     S
C543   N551    1.367   .     A
C543   H549    1.082   .     S
C543   C937    1.417   .     S
C544   N552    1.367   .     A
C544   H550    1.082   .     S
H545   C577    1.088   .     S
H546   C622    1.088   1_455 S
N551   Zn561   2.012   .     S
N552   Zn562   2.012   .     S
O553   Zn561   1.992   .     S
O554   Zn562   1.992   .     S
O555   Zn562   1.988   .     S
O556   Zn561   1.988   .     S
O557   Zn561   1.971   .     S
O558   Zn562   1.971   .     S
O559   Zn562   1.983   .     S
O560   Zn561   1.983   .     S
C563   O564    1.222   .     D
C563   O565    1.398   .     S
O565   H566    1.014   .     S
C567   O569    1.398   .     S
C567   O568    1.222   .     D
O569   H570    1.014   .     S
C573   O597    1.280   .     A
C573   C584    1.413   .     S
C573   O599    1.281   .     A
C574   O600    1.281   .     A
C574   O598    1.280   .     A
C574   C583    1.413   .     S
C575   O603    1.281   .     A
C575   O601    1.279   .     A
C575   C577    1.404   .     S
C576   O604    1.281   .     A
C576   C578    1.404   .     S
C576   O602    1.279   .     A
C578   C621    1.330   .     S
C578   H634    1.088   .     S
C579   C584    1.408   .     A
C579   C607    1.487   .     S
C580   C611    1.487   .     S
C580   C583    1.408   .     A
C580   C714    1.386   .     S
C581   C583    1.402   .     A
C581   Br615   1.939   .     S
C581   C711    1.385   .     S
C582   C584    1.402   .     A
C582   Br616   1.939   .     S
C585   H591    1.082   .     S
C585   N596    1.367   .     A
C586   N595    1.367   .     A
C586   H592    1.082   .     S
C586   C984    1.417   .     S
C587   N595    1.367   .     A
C587   H593    1.082   .     S
C587   C981    1.417   .     S
C588   N596    1.367   .     A
C588   H594    1.082   .     S
H589   C621    1.088   .     S
N595   Zn605   2.012   .     S
N596   Zn606   2.012   .     S
O597   Zn605   1.992   .     S
O598   Zn606   1.992   .     S
O599   Zn606   1.988   .     S
O600   Zn605   1.988   .     S
O601   Zn605   1.971   .     S
O602   Zn606   1.971   .     S
O603   Zn606   1.983   .     S
O604   Zn605   1.983   .     S
C607   O608    1.222   .     D
C607   O609    1.398   .     S
O609   H610    1.014   .     S
C611   O613    1.398   .     S
C611   O612    1.222   .     D
O613   H614    1.014   .     S
C617   O641    1.280   .     A
C617   C628    1.413   .     S
C617   O643    1.281   .     A
C618   O644    1.281   .     A
C618   O642    1.280   .     A
C618   C627    1.413   .     S
C619   O647    1.281   .     A
C619   O645    1.279   .     A
C619   C621    1.404   .     S
C620   O648    1.281   .     A
C620   C622    1.404   .     S
C620   O646    1.279   .     A
C622   C533    1.330   1_655 S
C622   H546    1.088   1_655 S
C623   C628    1.408   .     A
C623   C651    1.487   .     S
C624   C655    1.487   .     S
C624   C627    1.408   .     A
C624   C758    1.386   .     S
C625   C627    1.402   .     A
C625   Br659   1.939   .     S
C625   C755    1.385   .     S
C626   C628    1.402   .     A
C626   Br660   1.939   .     S
C629   H635    1.082   .     S
C629   N640    1.367   .     A
C630   N639    1.367   .     A
C630   H636    1.082   .     S
C630   C1028   1.417   .     S
C631   N639    1.367   .     A
C631   H637    1.082   .     S
C631   C1025   1.417   .     S
C632   N640    1.367   .     A
C632   H638    1.082   .     S
H633   C533    1.088   1_655 S
N639   Zn649   2.012   .     S
N640   Zn650   2.012   .     S
O641   Zn649   1.992   .     S
O642   Zn650   1.992   .     S
O643   Zn650   1.988   .     S
O644   Zn649   1.988   .     S
O645   Zn649   1.971   .     S
O646   Zn650   1.971   .     S
O647   Zn650   1.983   .     S
O648   Zn649   1.983   .     S
C651   O652    1.222   .     D
C651   O653    1.398   .     S
O653   H654    1.014   .     S
C655   O657    1.398   .     S
C655   O656    1.222   .     D
O657   H658    1.014   .     S
C661   O685    1.280   .     A
C661   C672    1.413   .     S
C661   O687    1.281   .     A
C662   O688    1.281   .     A
C662   O686    1.280   .     A
C662   C671    1.413   .     S
C663   O691    1.281   .     A
C663   O689    1.279   .     A
C663   C665    1.404   .     S
C664   O692    1.281   .     A
C664   C666    1.404   .     S
C664   O690    1.279   .     A
C665   C754    1.330   1_455 S
C665   H765    1.088   1_455 S
C666   C709    1.330   .     S
C666   H722    1.088   .     S
C667   C672    1.408   .     A
C667   C695    1.487   .     S
C668   C699    1.487   .     S
C668   C671    1.408   .     A
C668   C406    1.386   1_565 S
C669   C671    1.402   .     A
C669   Br703   1.939   .     S
C669   C403    1.385   1_565 S
C670   C672    1.402   .     A
C670   Br704   1.939   .     S
C673   H679    1.082   .     S
C673   N684    1.367   .     A
C674   N683    1.367   .     A
C674   H680    1.082   .     S
C674   C1072   1.417   .     S
C675   N683    1.367   .     A
C675   H681    1.082   .     S
C675   C1069   1.417   .     S
C676   N684    1.367   .     A
C676   H682    1.082   .     S
H677   C709    1.088   .     S
H678   C754    1.088   1_455 S
N683   Zn693   2.012   .     S
N684   Zn694   2.012   .     S
O685   Zn693   1.992   .     S
O686   Zn694   1.992   .     S
O687   Zn694   1.988   .     S
O688   Zn693   1.988   .     S
O689   Zn693   1.971   .     S
O690   Zn694   1.971   .     S
O691   Zn694   1.983   .     S
O692   Zn693   1.983   .     S
C695   O696    1.222   .     D
C695   O697    1.398   .     S
O697   H698    1.014   .     S
C699   O701    1.398   .     S
C699   O700    1.222   .     D
O701   H702    1.014   .     S
C705   O729    1.280   .     A
C705   C716    1.413   .     S
C705   O731    1.281   .     A
C706   O732    1.281   .     A
C706   O730    1.280   .     A
C706   C715    1.413   .     S
C707   O735    1.281   .     A
C707   O733    1.279   .     A
C707   C709    1.404   .     S
C708   O736    1.281   .     A
C708   C710    1.404   .     S
C708   O734    1.279   .     A
C710   C753    1.330   .     S
C710   H766    1.088   .     S
C711   C716    1.408   .     A
C711   C739    1.487   .     S
C712   C743    1.487   .     S
C712   C715    1.408   .     A
C712   C450    1.386   1_565 S
C713   C715    1.402   .     A
C713   Br747   1.939   .     S
C713   C447    1.385   1_565 S
C714   C716    1.402   .     A
C714   Br748   1.939   .     S
C717   H723    1.082   .     S
C717   N728    1.367   .     A
C718   N727    1.367   .     A
C718   H724    1.082   .     S
C718   C1116   1.417   .     S
C719   N727    1.367   .     A
C719   H725    1.082   .     S
C719   C1113   1.417   .     S
C720   N728    1.367   .     A
C720   H726    1.082   .     S
H721   C753    1.088   .     S
N727   Zn737   2.012   .     S
N728   Zn738   2.012   .     S
O729   Zn737   1.992   .     S
O730   Zn738   1.992   .     S
O731   Zn738   1.988   .     S
O732   Zn737   1.988   .     S
O733   Zn737   1.971   .     S
O734   Zn738   1.971   .     S
O735   Zn738   1.983   .     S
O736   Zn737   1.983   .     S
C739   O740    1.222   .     D
C739   O741    1.398   .     S
O741   H742    1.014   .     S
C743   O745    1.398   .     S
C743   O744    1.222   .     D
O745   H746    1.014   .     S
C749   O773    1.280   .     A
C749   C760    1.413   .     S
C749   O775    1.281   .     A
C750   O776    1.281   .     A
C750   O774    1.280   .     A
C750   C759    1.413   .     S
C751   O779    1.281   .     A
C751   O777    1.279   .     A
C751   C753    1.404   .     S
C752   O780    1.281   .     A
C752   C754    1.404   .     S
C752   O778    1.279   .     A
C754   C665    1.330   1_655 S
C754   H678    1.088   1_655 S
C755   C760    1.408   .     A
C755   C783    1.487   .     S
C756   C787    1.487   .     S
C756   C759    1.408   .     A
C756   C494    1.386   1_565 S
C757   C759    1.402   .     A
C757   Br791   1.939   .     S
C757   C491    1.385   1_565 S
C758   C760    1.402   .     A
C758   Br792   1.939   .     S
C761   H767    1.082   .     S
C761   N772    1.367   .     A
C762   N771    1.367   .     A
C762   H768    1.082   .     S
C762   C1160   1.417   .     S
C763   N771    1.367   .     A
C763   H769    1.082   .     S
C763   C1157   1.417   .     S
C764   N772    1.367   .     A
C764   H770    1.082   .     S
H765   C665    1.088   1_655 S
N771   Zn781   2.012   .     S
N772   Zn782   2.012   .     S
O773   Zn781   1.992   .     S
O774   Zn782   1.992   .     S
O775   Zn782   1.988   .     S
O776   Zn781   1.988   .     S
O777   Zn781   1.971   .     S
O778   Zn782   1.971   .     S
O779   Zn782   1.983   .     S
O780   Zn781   1.983   .     S
C783   O784    1.222   .     D
C783   O785    1.398   .     S
O785   H786    1.014   .     S
C787   O789    1.398   .     S
C787   O788    1.222   .     D
O789   H790    1.014   .     S
C793   O817    1.280   .     A
C793   C804    1.413   .     S
C793   O819    1.281   .     A
C794   O820    1.281   .     A
C794   O818    1.280   .     A
C794   C803    1.413   .     S
C795   O823    1.281   .     A
C795   O821    1.279   .     A
C795   C797    1.404   .     S
C796   O824    1.281   .     A
C796   C798    1.404   .     S
C796   O822    1.279   .     A
C797   C886    1.330   1_455 S
C797   H897    1.088   1_455 S
C798   C841    1.330   .     S
C798   H854    1.088   .     S
C799   C804    1.408   .     A
C799   C827    1.487   .     S
C799   C1065   1.385   1_545 S
C800   C831    1.487   .     S
C800   C803    1.408   .     A
C800   C934    1.386   .     S
C801   C803    1.402   .     A
C801   Br835   1.939   .     S
C801   C931    1.385   .     S
C802   C804    1.402   .     A
C802   Br836   1.939   .     S
C802   C1064   1.386   1_545 S
C805   H811    1.082   .     S
C805   N816    1.367   .     A
C806   N815    1.367   .     A
C806   H812    1.082   .     S
C806   C16     1.417   1_556 S
C807   N815    1.367   .     A
C807   H813    1.082   .     S
C807   C13     1.417   1_556 S
C808   N816    1.367   .     A
C808   H814    1.082   .     S
H809   C841    1.088   .     S
H810   C886    1.088   1_455 S
N815   Zn825   2.012   .     S
N816   Zn826   2.012   .     S
O817   Zn825   1.992   .     S
O818   Zn826   1.992   .     S
O819   Zn826   1.988   .     S
O820   Zn825   1.988   .     S
O821   Zn825   1.971   .     S
O822   Zn826   1.971   .     S
O823   Zn826   1.983   .     S
O824   Zn825   1.983   .     S
C827   O828    1.222   .     D
C827   O829    1.398   .     S
O829   H830    1.014   .     S
C831   O833    1.398   .     S
C831   O832    1.222   .     D
O833   H834    1.014   .     S
C837   O861    1.280   .     A
C837   C848    1.413   .     S
C837   O863    1.281   .     A
C838   O864    1.281   .     A
C838   O862    1.280   .     A
C838   C847    1.413   .     S
C839   O867    1.281   .     A
C839   O865    1.279   .     A
C839   C841    1.404   .     S
C840   O868    1.281   .     A
C840   C842    1.404   .     S
C840   O866    1.279   .     A
C842   C885    1.330   .     S
C842   H898    1.088   .     S
C843   C848    1.408   .     A
C843   C871    1.487   .     S
C843   C1109   1.385   1_545 S
C844   C875    1.487   .     S
C844   C847    1.408   .     A
C844   C978    1.386   .     S
C845   C847    1.402   .     A
C845   Br879   1.939   .     S
C845   C975    1.385   .     S
C846   C848    1.402   .     A
C846   Br880   1.939   .     S
C846   C1108   1.386   1_545 S
C849   H855    1.082   .     S
C849   N860    1.367   .     A
C850   N859    1.367   .     A
C850   H856    1.082   .     S
C850   C60     1.417   1_556 S
C851   N859    1.367   .     A
C851   H857    1.082   .     S
C851   C57     1.417   1_556 S
C852   N860    1.367   .     A
C852   H858    1.082   .     S
H853   C885    1.088   .     S
N859   Zn869   2.012   .     S
N860   Zn870   2.012   .     S
O861   Zn869   1.992   .     S
O862   Zn870   1.992   .     S
O863   Zn870   1.988   .     S
O864   Zn869   1.988   .     S
O865   Zn869   1.971   .     S
O866   Zn870   1.971   .     S
O867   Zn870   1.983   .     S
O868   Zn869   1.983   .     S
C871   O872    1.222   .     D
C871   O873    1.398   .     S
O873   H874    1.014   .     S
C875   O877    1.398   .     S
C875   O876    1.222   .     D
O877   H878    1.014   .     S
C881   O905    1.280   .     A
C881   C892    1.413   .     S
C881   O907    1.281   .     A
C882   O908    1.281   .     A
C882   O906    1.280   .     A
C882   C891    1.413   .     S
C883   O911    1.281   .     A
C883   O909    1.279   .     A
C883   C885    1.404   .     S
C884   O912    1.281   .     A
C884   C886    1.404   .     S
C884   O910    1.279   .     A
C886   C797    1.330   1_655 S
C886   H810    1.088   1_655 S
C887   C892    1.408   .     A
C887   C915    1.487   .     S
C887   C1153   1.385   1_545 S
C888   C919    1.487   .     S
C888   C891    1.408   .     A
C888   C1022   1.386   .     S
C889   C891    1.402   .     A
C889   Br923   1.939   .     S
C889   C1019   1.385   .     S
C890   C892    1.402   .     A
C890   Br924   1.939   .     S
C890   C1152   1.386   1_545 S
C893   H899    1.082   .     S
C893   N904    1.367   .     A
C894   N903    1.367   .     A
C894   H900    1.082   .     S
C894   C104    1.417   1_556 S
C895   N903    1.367   .     A
C895   H901    1.082   .     S
C895   C101    1.417   1_556 S
C896   N904    1.367   .     A
C896   H902    1.082   .     S
H897   C797    1.088   1_655 S
N903   Zn913   2.012   .     S
N904   Zn914   2.012   .     S
O905   Zn913   1.992   .     S
O906   Zn914   1.992   .     S
O907   Zn914   1.988   .     S
O908   Zn913   1.988   .     S
O909   Zn913   1.971   .     S
O910   Zn914   1.971   .     S
O911   Zn914   1.983   .     S
O912   Zn913   1.983   .     S
C915   O916    1.222   .     D
C915   O917    1.398   .     S
O917   H918    1.014   .     S
C919   O921    1.398   .     S
C919   O920    1.222   .     D
O921   H922    1.014   .     S
C925   O949    1.280   .     A
C925   C936    1.413   .     S
C925   O951    1.281   .     A
C926   O952    1.281   .     A
C926   O950    1.280   .     A
C926   C935    1.413   .     S
C927   O955    1.281   .     A
C927   O953    1.279   .     A
C927   C929    1.404   .     S
C928   O956    1.281   .     A
C928   C930    1.404   .     S
C928   O954    1.279   .     A
C929   C1018   1.330   1_455 S
C929   H1029   1.088   1_455 S
C930   C973    1.330   .     S
C930   H986    1.088   .     S
C931   C936    1.408   .     A
C931   C959    1.487   .     S
C932   C963    1.487   .     S
C932   C935    1.408   .     A
C932   C1066   1.386   .     S
C933   C935    1.402   .     A
C933   Br967   1.939   .     S
C933   C1063   1.385   .     S
C934   C936    1.402   .     A
C934   Br968   1.939   .     S
C937   H943    1.082   .     S
C937   N948    1.367   .     A
C938   N947    1.367   .     A
C938   H944    1.082   .     S
C938   C148    1.417   1_556 S
C939   N947    1.367   .     A
C939   H945    1.082   .     S
C939   C145    1.417   1_556 S
C940   N948    1.367   .     A
C940   H946    1.082   .     S
H941   C973    1.088   .     S
H942   C1018   1.088   1_455 S
N947   Zn957   2.012   .     S
N948   Zn958   2.012   .     S
O949   Zn957   1.992   .     S
O950   Zn958   1.992   .     S
O951   Zn958   1.988   .     S
O952   Zn957   1.988   .     S
O953   Zn957   1.971   .     S
O954   Zn958   1.971   .     S
O955   Zn958   1.983   .     S
O956   Zn957   1.983   .     S
C959   O960    1.222   .     D
C959   O961    1.398   .     S
O961   H962    1.014   .     S
C963   O965    1.398   .     S
C963   O964    1.222   .     D
O965   H966    1.014   .     S
C969   O993    1.280   .     A
C969   C980    1.413   .     S
C969   O995    1.281   .     A
C970   O996    1.281   .     A
C970   O994    1.280   .     A
C970   C979    1.413   .     S
C971   O999    1.281   .     A
C971   O997    1.279   .     A
C971   C973    1.404   .     S
C972   O1000   1.281   .     A
C972   C974    1.404   .     S
C972   O998    1.279   .     A
C974   C1017   1.330   .     S
C974   H1030   1.088   .     S
C975   C980    1.408   .     A
C975   C1003   1.487   .     S
C976   C1007   1.487   .     S
C976   C979    1.408   .     A
C976   C1110   1.386   .     S
C977   C979    1.402   .     A
C977   Br1011  1.939   .     S
C977   C1107   1.385   .     S
C978   C980    1.402   .     A
C978   Br1012  1.939   .     S
C981   H987    1.082   .     S
C981   N992    1.367   .     A
C982   N991    1.367   .     A
C982   H988    1.082   .     S
C982   C192    1.417   1_556 S
C983   N991    1.367   .     A
C983   H989    1.082   .     S
C983   C189    1.417   1_556 S
C984   N992    1.367   .     A
C984   H990    1.082   .     S
H985   C1017   1.088   .     S
N991   Zn1001  2.012   .     S
N992   Zn1002  2.012   .     S
O993   Zn1001  1.992   .     S
O994   Zn1002  1.992   .     S
O995   Zn1002  1.988   .     S
O996   Zn1001  1.988   .     S
O997   Zn1001  1.971   .     S
O998   Zn1002  1.971   .     S
O999   Zn1002  1.983   .     S
O1000  Zn1001  1.983   .     S
C1003  O1004   1.222   .     D
C1003  O1005   1.398   .     S
O1005  H1006   1.014   .     S
C1007  O1009   1.398   .     S
C1007  O1008   1.222   .     D
O1009  H1010   1.014   .     S
C1013  O1037   1.280   .     A
C1013  C1024   1.413   .     S
C1013  O1039   1.281   .     A
C1014  O1040   1.281   .     A
C1014  O1038   1.280   .     A
C1014  C1023   1.413   .     S
C1015  O1043   1.281   .     A
C1015  O1041   1.279   .     A
C1015  C1017   1.404   .     S
C1016  O1044   1.281   .     A
C1016  C1018   1.404   .     S
C1016  O1042   1.279   .     A
C1018  C929    1.330   1_655 S
C1018  H942    1.088   1_655 S
C1019  C1024   1.408   .     A
C1019  C1047   1.487   .     S
C1020  C1051   1.487   .     S
C1020  C1023   1.408   .     A
C1020  C1154   1.386   .     S
C1021  C1023   1.402   .     A
C1021  Br1055  1.939   .     S
C1021  C1151   1.385   .     S
C1022  C1024   1.402   .     A
C1022  Br1056  1.939   .     S
C1025  H1031   1.082   .     S
C1025  N1036   1.367   .     A
C1026  N1035   1.367   .     A
C1026  H1032   1.082   .     S
C1026  C236    1.417   1_556 S
C1027  N1035   1.367   .     A
C1027  H1033   1.082   .     S
C1027  C233    1.417   1_556 S
C1028  N1036   1.367   .     A
C1028  H1034   1.082   .     S
H1029  C929    1.088   1_655 S
N1035  Zn1045  2.012   .     S
N1036  Zn1046  2.012   .     S
O1037  Zn1045  1.992   .     S
O1038  Zn1046  1.992   .     S
O1039  Zn1046  1.988   .     S
O1040  Zn1045  1.988   .     S
O1041  Zn1045  1.971   .     S
O1042  Zn1046  1.971   .     S
O1043  Zn1046  1.983   .     S
O1044  Zn1045  1.983   .     S
C1047  O1048   1.222   .     D
C1047  O1049   1.398   .     S
O1049  H1050   1.014   .     S
C1051  O1053   1.398   .     S
C1051  O1052   1.222   .     D
O1053  H1054   1.014   .     S
C1057  O1081   1.280   .     A
C1057  C1068   1.413   .     S
C1057  O1083   1.281   .     A
C1058  O1084   1.281   .     A
C1058  O1082   1.280   .     A
C1058  C1067   1.413   .     S
C1059  O1087   1.281   .     A
C1059  O1085   1.279   .     A
C1059  C1061   1.404   .     S
C1060  O1088   1.281   .     A
C1060  C1062   1.404   .     S
C1060  O1086   1.279   .     A
C1061  C1150   1.330   1_455 S
C1061  H1161   1.088   1_455 S
C1062  C1105   1.330   .     S
C1062  H1118   1.088   .     S
C1063  C1068   1.408   .     A
C1063  C1091   1.487   .     S
C1064  C1095   1.487   .     S
C1064  C1067   1.408   .     A
C1064  C802    1.386   1_565 S
C1065  C1067   1.402   .     A
C1065  Br1099  1.939   .     S
C1065  C799    1.385   1_565 S
C1066  C1068   1.402   .     A
C1066  Br1100  1.939   .     S
C1069  H1075   1.082   .     S
C1069  N1080   1.367   .     A
C1070  N1079   1.367   .     A
C1070  H1076   1.082   .     S
C1070  C280    1.417   1_556 S
C1071  N1079   1.367   .     A
C1071  H1077   1.082   .     S
C1071  C277    1.417   1_556 S
C1072  N1080   1.367   .     A
C1072  H1078   1.082   .     S
H1073  C1105   1.088   .     S
H1074  C1150   1.088   1_455 S
N1079  Zn1089  2.012   .     S
N1080  Zn1090  2.012   .     S
O1081  Zn1089  1.992   .     S
O1082  Zn1090  1.992   .     S
O1083  Zn1090  1.988   .     S
O1084  Zn1089  1.988   .     S
O1085  Zn1089  1.971   .     S
O1086  Zn1090  1.971   .     S
O1087  Zn1090  1.983   .     S
O1088  Zn1089  1.983   .     S
C1091  O1092   1.222   .     D
C1091  O1093   1.398   .     S
O1093  H1094   1.014   .     S
C1095  O1097   1.398   .     S
C1095  O1096   1.222   .     D
O1097  H1098   1.014   .     S
C1101  O1125   1.280   .     A
C1101  C1112   1.413   .     S
C1101  O1127   1.281   .     A
C1102  O1128   1.281   .     A
C1102  O1126   1.280   .     A
C1102  C1111   1.413   .     S
C1103  O1131   1.281   .     A
C1103  O1129   1.279   .     A
C1103  C1105   1.404   .     S
C1104  O1132   1.281   .     A
C1104  C1106   1.404   .     S
C1104  O1130   1.279   .     A
C1106  C1149   1.330   .     S
C1106  H1162   1.088   .     S
C1107  C1112   1.408   .     A
C1107  C1135   1.487   .     S
C1108  C1139   1.487   .     S
C1108  C1111   1.408   .     A
C1108  C846    1.386   1_565 S
C1109  C1111   1.402   .     A
C1109  Br1143  1.939   .     S
C1109  C843    1.385   1_565 S
C1110  C1112   1.402   .     A
C1110  Br1144  1.939   .     S
C1113  H1119   1.082   .     S
C1113  N1124   1.367   .     A
C1114  N1123   1.367   .     A
C1114  H1120   1.082   .     S
C1114  C324    1.417   1_556 S
C1115  N1123   1.367   .     A
C1115  H1121   1.082   .     S
C1115  C321    1.417   1_556 S
C1116  N1124   1.367   .     A
C1116  H1122   1.082   .     S
H1117  C1149   1.088   .     S
N1123  Zn1133  2.012   .     S
N1124  Zn1134  2.012   .     S
O1125  Zn1133  1.992   .     S
O1126  Zn1134  1.992   .     S
O1127  Zn1134  1.988   .     S
O1128  Zn1133  1.988   .     S
O1129  Zn1133  1.971   .     S
O1130  Zn1134  1.971   .     S
O1131  Zn1134  1.983   .     S
O1132  Zn1133  1.983   .     S
C1135  O1136   1.222   .     D
C1135  O1137   1.398   .     S
O1137  H1138   1.014   .     S
C1139  O1141   1.398   .     S
C1139  O1140   1.222   .     D
O1141  H1142   1.014   .     S
C1145  O1169   1.280   .     A
C1145  C1156   1.413   .     S
C1145  O1171   1.281   .     A
C1146  O1172   1.281   .     A
C1146  O1170   1.280   .     A
C1146  C1155   1.413   .     S
C1147  O1175   1.281   .     A
C1147  O1173   1.279   .     A
C1147  C1149   1.404   .     S
C1148  O1176   1.281   .     A
C1148  C1150   1.404   .     S
C1148  O1174   1.279   .     A
C1150  C1061   1.330   1_655 S
C1150  H1074   1.088   1_655 S
C1151  C1156   1.408   .     A
C1151  C1179   1.487   .     S
C1152  C1183   1.487   .     S
C1152  C1155   1.408   .     A
C1152  C890    1.386   1_565 S
C1153  C1155   1.402   .     A
C1153  Br1187  1.939   .     S
C1153  C887    1.385   1_565 S
C1154  C1156   1.402   .     A
C1154  Br1188  1.939   .     S
C1157  H1163   1.082   .     S
C1157  N1168   1.367   .     A
C1158  N1167   1.367   .     A
C1158  H1164   1.082   .     S
C1158  C368    1.417   1_556 S
C1159  N1167   1.367   .     A
C1159  H1165   1.082   .     S
C1159  C365    1.417   1_556 S
C1160  N1168   1.367   .     A
C1160  H1166   1.082   .     S
H1161  C1061   1.088   1_655 S
N1167  Zn1177  2.012   .     S
N1168  Zn1178  2.012   .     S
O1169  Zn1177  1.992   .     S
O1170  Zn1178  1.992   .     S
O1171  Zn1178  1.988   .     S
O1172  Zn1177  1.988   .     S
O1173  Zn1177  1.971   .     S
O1174  Zn1178  1.971   .     S
O1175  Zn1178  1.983   .     S
O1176  Zn1177  1.983   .     S
C1179  O1180   1.222   .     D
C1179  O1181   1.398   .     S
O1181  H1182   1.014   .     S
C1183  O1185   1.398   .     S
C1183  O1184   1.222   .     D
O1185  H1186   1.014   .     S
