data_str_m2_o1_o18_pcu_sym.114
_audit_creation_date              2020-01-03
_audit_creation_method            'Materials Studio'
_symmetry_space_group_name_H-M    'P1'
_symmetry_Int_Tables_number       1
_symmetry_cell_setting            triclinic
loop_
_symmetry_equiv_pos_as_xyz
  x,y,z
_cell_length_a                    29.0563
_cell_length_b                    32.0920
_cell_length_c                    31.6190
_cell_angle_alpha                 88.5441
_cell_angle_beta                  72.3939
_cell_angle_gamma                 89.3112
loop_
_atom_site_label
_atom_site_type_symbol
_atom_site_fract_x
_atom_site_fract_y
_atom_site_fract_z
_atom_site_U_iso_or_equiv
_atom_site_adp_type
_atom_site_occupancy
C1     C     0.00023   0.08760   0.25012   0.00000  Uiso   1.00
C2     C     0.33325   0.24572   0.24970   0.00000  Uiso   1.00
C3     C     0.18866   0.20615   0.04005   0.00000  Uiso   1.00
C4     C     0.13531   0.18185   0.45232   0.00000  Uiso   1.00
C5     C     0.23646   0.21308   0.01506   0.00000  Uiso   1.00
C6     C     0.08726   0.17719   0.47655   0.00000  Uiso   1.00
C7     C     0.31051   0.02075   0.28902   0.00000  Uiso   1.00
C8     C     0.02484   0.31248   0.21105   0.00000  Uiso   1.00
C9     C     0.30928   0.31094   0.28862   0.00000  Uiso   1.00
C10    C     0.02523   0.02236   0.21124   0.00000  Uiso   1.00
C11    C     0.33304   0.29036   0.24961   0.00000  Uiso   1.00
C12    C     0.00095   0.04294   0.25013   0.00000  Uiso   1.00
C13    C     0.18621   0.13416   0.26899   0.00000  Uiso   1.00
C14    C     0.14702   0.20034   0.23381   0.00000  Uiso   1.00
C15    C     0.13847   0.13225   0.26404   0.00000  Uiso   1.00
C16    C     0.19645   0.20002   0.23302   0.00000  Uiso   1.00
C17    C     0.30546   0.16626   0.33580   0.00000  Uiso   1.00
C18    C     0.02794   0.16496   0.16424   0.00000  Uiso   1.00
C19    C     0.28912   0.17074   0.38445   0.00000  Uiso   1.00
C20    C     0.04404   0.16399   0.11511   0.00000  Uiso   1.00
C21    C     0.30316   0.19919   0.44970   0.00000  Uiso   1.00
C22    C     0.02583   0.16164   0.04527   0.00000  Uiso   1.00
C23    C     0.32143   0.18282   0.40734   0.00000  Uiso   1.00
C24    C     0.01046   0.15702   0.09180   0.00000  Uiso   1.00
C25    C     0.23969   0.16679   0.40774   0.00000  Uiso   1.00
C26    C     0.09342   0.16955   0.09142   0.00000  Uiso   1.00
C27    C     0.22093   0.18377   0.45051   0.00000  Uiso   1.00
C28    C     0.10759   0.17837   0.04534   0.00000  Uiso   1.00
C29    C     0.25358   0.19921   0.47157   0.00000  Uiso   1.00
C30    C     0.07327   0.17307   0.02251   0.00000  Uiso   1.00
C31    C     0.17089   0.18411   0.47393   0.00000  Uiso   1.00
C32    C     0.15583   0.18885   0.02055   0.00000  Uiso   1.00
Cu33   Cu    0.04689   0.16667   0.25000   0.00000  Uiso   1.00
Cu34   Cu    0.28645   0.16666   0.25000   0.00000  Uiso   1.00
H35    H     0.26072   0.22754   0.03036   0.00000  Uiso   1.00
H36    H     0.06108   0.17526   0.45920   0.00000  Uiso   1.00
H37    H     0.32770   0.21134   0.46607   0.00000  Uiso   1.00
H38    H     0.00148   0.15504   0.02630   0.00000  Uiso   1.00
H39    H     0.17732   0.21622   0.07400   0.00000  Uiso   1.00
H40    H     0.14368   0.18536   0.41675   0.00000  Uiso   1.00
H41    H     0.29336   0.03683   0.31951   0.00000  Uiso   1.00
H42    H     0.04355   0.29633   0.18098   0.00000  Uiso   1.00
H43    H     0.29065   0.29359   0.31867   0.00000  Uiso   1.00
H44    H     0.04407   0.03973   0.18128   0.00000  Uiso   1.00
N45    N     0.11736   0.16668   0.24999   0.00000  Uiso   1.00
N46    N     0.21597   0.16666   0.25001   0.00000  Uiso   1.00
O47    O     0.03958   0.10655   0.25000   0.00000  Uiso   1.00
O48    O     0.29375   0.22678   0.25000   0.00000  Uiso   1.00
O49    O     0.29372   0.10654   0.25001   0.00000  Uiso   1.00
O50    O     0.03961   0.22679   0.24999   0.00000  Uiso   1.00
O51    O     0.01852   0.16668   0.31491   0.00000  Uiso   1.00
O52    O     0.31481   0.16666   0.18509   0.00000  Uiso   1.00
O53    O     0.27267   0.16667   0.31492   0.00000  Uiso   1.00
O54    O     0.06067   0.16667   0.18508   0.00000  Uiso   1.00
O55    O     0.12800   0.16026   0.11222   0.00000  Uiso   1.00
C56    C     0.13798   0.11707   0.10836   0.00000  Uiso   1.00
H57    H     0.15705   0.10915   0.07334   0.00000  Uiso   1.00
H58    H     0.10468   0.09798   0.12139   0.00000  Uiso   1.00
H59    H     0.16190   0.10830   0.12853   0.00000  Uiso   1.00
O60    O     0.21080   0.14361   0.38960   0.00000  Uiso   1.00
C61    C     0.21210   0.10169   0.40375   0.00000  Uiso   1.00
H62    H     0.20132   0.09840   0.44061   0.00000  Uiso   1.00
H63    H     0.24850   0.08780   0.38874   0.00000  Uiso   1.00
H64    H     0.18576   0.08374   0.39254   0.00000  Uiso   1.00
O65    O     0.29931   0.13962   0.11508   0.00000  Uiso   1.00
C66    C     0.26201   0.15164   0.09739   0.00000  Uiso   1.00
H67    H     0.26460   0.18498   0.08694   0.00000  Uiso   1.00
H68    H     0.22729   0.14802   0.12398   0.00000  Uiso   1.00
H69    H     0.26131   0.13115   0.06981   0.00000  Uiso   1.00
O70    O     0.03761   0.17974   0.38854   0.00000  Uiso   1.00
C71    C     0.05139   0.13733   0.39008   0.00000  Uiso   1.00
H72    H     0.09139   0.13547   0.38019   0.00000  Uiso   1.00
H73    H     0.03934   0.11816   0.36672   0.00000  Uiso   1.00
H74    H     0.03713   0.12311   0.42399   0.00000  Uiso   1.00
O75    O     0.19852   0.11055   0.30151   0.00000  Uiso   1.00
C76    C     0.19800   0.06729   0.29527   0.00000  Uiso   1.00
H77    H     0.21828   0.05859   0.26087   0.00000  Uiso   1.00
H78    H     0.16093   0.05459   0.30664   0.00000  Uiso   1.00
H79    H     0.21654   0.05188   0.31725   0.00000  Uiso   1.00
O80    O     0.12859   0.23660   0.22076   0.00000  Uiso   1.00
C81    C     0.13731   0.23778   0.17427   0.00000  Uiso   1.00
H82    H     0.16326   0.21383   0.15579   0.00000  Uiso   1.00
H83    H     0.15166   0.26894   0.16120   0.00000  Uiso   1.00
H84    H     0.10276   0.23460   0.16671   0.00000  Uiso   1.00
O85    O     0.11458   0.09480   0.27151   0.00000  Uiso   1.00
C86    C     0.13035   0.07198   0.23175   0.00000  Uiso   1.00
H87    H     0.17007   0.06765   0.21963   0.00000  Uiso   1.00
H88    H     0.11927   0.08747   0.20452   0.00000  Uiso   1.00
H89    H     0.11373   0.04061   0.23802   0.00000  Uiso   1.00
O90    O     0.22197   0.23684   0.22195   0.00000  Uiso   1.00
C91    C     0.24838   0.23831   0.17640   0.00000  Uiso   1.00
H92    H     0.28619   0.24722   0.17263   0.00000  Uiso   1.00
H93    H     0.23329   0.26306   0.15933   0.00000  Uiso   1.00
H94    H     0.24930   0.20857   0.15917   0.00000  Uiso   1.00
C95    C     0.33357   0.08760   0.25012   0.00000  Uiso   1.00
C96    C     0.66658   0.24572   0.24970   0.00000  Uiso   1.00
C97    C     0.52199   0.20615   0.04005   0.00000  Uiso   1.00
C98    C     0.46864   0.18185   0.45232   0.00000  Uiso   1.00
C99    C     0.56979   0.21308   0.01506   0.00000  Uiso   1.00
C100   C     0.42059   0.17719   0.47655   0.00000  Uiso   1.00
C101   C     0.64384   0.02075   0.28902   0.00000  Uiso   1.00
C102   C     0.35817   0.31248   0.21105   0.00000  Uiso   1.00
C103   C     0.64261   0.31094   0.28862   0.00000  Uiso   1.00
C104   C     0.35856   0.02236   0.21124   0.00000  Uiso   1.00
C105   C     0.66637   0.29036   0.24961   0.00000  Uiso   1.00
C106   C     0.33428   0.04294   0.25013   0.00000  Uiso   1.00
C107   C     0.51954   0.13416   0.26899   0.00000  Uiso   1.00
C108   C     0.48035   0.20034   0.23381   0.00000  Uiso   1.00
C109   C     0.47180   0.13225   0.26404   0.00000  Uiso   1.00
C110   C     0.52979   0.20002   0.23302   0.00000  Uiso   1.00
C111   C     0.63880   0.16626   0.33580   0.00000  Uiso   1.00
C112   C     0.36128   0.16496   0.16424   0.00000  Uiso   1.00
C113   C     0.62245   0.17074   0.38445   0.00000  Uiso   1.00
C114   C     0.37737   0.16399   0.11511   0.00000  Uiso   1.00
C115   C     0.63650   0.19919   0.44970   0.00000  Uiso   1.00
C116   C     0.35916   0.16164   0.04527   0.00000  Uiso   1.00
C117   C     0.65477   0.18282   0.40734   0.00000  Uiso   1.00
C118   C     0.34380   0.15702   0.09180   0.00000  Uiso   1.00
C119   C     0.57302   0.16679   0.40774   0.00000  Uiso   1.00
C120   C     0.42675   0.16955   0.09142   0.00000  Uiso   1.00
C121   C     0.55427   0.18377   0.45051   0.00000  Uiso   1.00
C122   C     0.44093   0.17837   0.04534   0.00000  Uiso   1.00
C123   C     0.58691   0.19921   0.47157   0.00000  Uiso   1.00
C124   C     0.40660   0.17307   0.02251   0.00000  Uiso   1.00
C125   C     0.50423   0.18411   0.47393   0.00000  Uiso   1.00
C126   C     0.48916   0.18885   0.02055   0.00000  Uiso   1.00
Cu127  Cu    0.38022   0.16667   0.25000   0.00000  Uiso   1.00
Cu128  Cu    0.61978   0.16666   0.25000   0.00000  Uiso   1.00
H129   H     0.59406   0.22754   0.03036   0.00000  Uiso   1.00
H130   H     0.39441   0.17526   0.45920   0.00000  Uiso   1.00
H131   H     0.66103   0.21134   0.46607   0.00000  Uiso   1.00
H132   H     0.33481   0.15504   0.02630   0.00000  Uiso   1.00
H133   H     0.51065   0.21622   0.07400   0.00000  Uiso   1.00
H134   H     0.47701   0.18536   0.41675   0.00000  Uiso   1.00
H135   H     0.62669   0.03683   0.31951   0.00000  Uiso   1.00
H136   H     0.37688   0.29633   0.18098   0.00000  Uiso   1.00
H137   H     0.62398   0.29359   0.31867   0.00000  Uiso   1.00
H138   H     0.37741   0.03973   0.18128   0.00000  Uiso   1.00
N139   N     0.45069   0.16668   0.24999   0.00000  Uiso   1.00
N140   N     0.54931   0.16666   0.25001   0.00000  Uiso   1.00
O141   O     0.37291   0.10655   0.25000   0.00000  Uiso   1.00
O142   O     0.62709   0.22678   0.25000   0.00000  Uiso   1.00
O143   O     0.62706   0.10654   0.25001   0.00000  Uiso   1.00
O144   O     0.37294   0.22679   0.24999   0.00000  Uiso   1.00
O145   O     0.35186   0.16668   0.31491   0.00000  Uiso   1.00
O146   O     0.64814   0.16666   0.18509   0.00000  Uiso   1.00
O147   O     0.60600   0.16667   0.31492   0.00000  Uiso   1.00
O148   O     0.39400   0.16667   0.18508   0.00000  Uiso   1.00
O149   O     0.46134   0.16026   0.11222   0.00000  Uiso   1.00
C150   C     0.47131   0.11707   0.10836   0.00000  Uiso   1.00
H151   H     0.49038   0.10915   0.07334   0.00000  Uiso   1.00
H152   H     0.43801   0.09798   0.12139   0.00000  Uiso   1.00
H153   H     0.49523   0.10830   0.12853   0.00000  Uiso   1.00
O154   O     0.54414   0.14361   0.38960   0.00000  Uiso   1.00
C155   C     0.54543   0.10169   0.40375   0.00000  Uiso   1.00
H156   H     0.53466   0.09840   0.44061   0.00000  Uiso   1.00
H157   H     0.58183   0.08780   0.38874   0.00000  Uiso   1.00
H158   H     0.51909   0.08374   0.39254   0.00000  Uiso   1.00
O159   O     0.63265   0.13962   0.11508   0.00000  Uiso   1.00
C160   C     0.59534   0.15164   0.09739   0.00000  Uiso   1.00
H161   H     0.59794   0.18498   0.08694   0.00000  Uiso   1.00
H162   H     0.56062   0.14802   0.12398   0.00000  Uiso   1.00
H163   H     0.59465   0.13115   0.06981   0.00000  Uiso   1.00
O164   O     0.37094   0.17974   0.38854   0.00000  Uiso   1.00
C165   C     0.38473   0.13733   0.39008   0.00000  Uiso   1.00
H166   H     0.42473   0.13547   0.38019   0.00000  Uiso   1.00
H167   H     0.37267   0.11816   0.36672   0.00000  Uiso   1.00
H168   H     0.37046   0.12311   0.42399   0.00000  Uiso   1.00
O169   O     0.53186   0.11055   0.30151   0.00000  Uiso   1.00
C170   C     0.53133   0.06729   0.29527   0.00000  Uiso   1.00
H171   H     0.55162   0.05859   0.26087   0.00000  Uiso   1.00
H172   H     0.49426   0.05459   0.30664   0.00000  Uiso   1.00
H173   H     0.54987   0.05188   0.31725   0.00000  Uiso   1.00
O174   O     0.46193   0.23660   0.22076   0.00000  Uiso   1.00
C175   C     0.47064   0.23778   0.17427   0.00000  Uiso   1.00
H176   H     0.49659   0.21383   0.15579   0.00000  Uiso   1.00
H177   H     0.48500   0.26894   0.16120   0.00000  Uiso   1.00
H178   H     0.43609   0.23460   0.16671   0.00000  Uiso   1.00
O179   O     0.44792   0.09480   0.27151   0.00000  Uiso   1.00
C180   C     0.46369   0.07198   0.23175   0.00000  Uiso   1.00
H181   H     0.50340   0.06765   0.21963   0.00000  Uiso   1.00
H182   H     0.45260   0.08747   0.20452   0.00000  Uiso   1.00
H183   H     0.44706   0.04061   0.23802   0.00000  Uiso   1.00
O184   O     0.55530   0.23684   0.22195   0.00000  Uiso   1.00
C185   C     0.58171   0.23831   0.17640   0.00000  Uiso   1.00
H186   H     0.61952   0.24722   0.17263   0.00000  Uiso   1.00
H187   H     0.56662   0.26306   0.15933   0.00000  Uiso   1.00
H188   H     0.58264   0.20857   0.15917   0.00000  Uiso   1.00
C189   C     0.66690   0.08760   0.25012   0.00000  Uiso   1.00
C190   C     0.99992   0.24572   0.24970   0.00000  Uiso   1.00
C191   C     0.85532   0.20615   0.04005   0.00000  Uiso   1.00
C192   C     0.80197   0.18185   0.45232   0.00000  Uiso   1.00
C193   C     0.90313   0.21308   0.01506   0.00000  Uiso   1.00
C194   C     0.75392   0.17719   0.47655   0.00000  Uiso   1.00
C195   C     0.97718   0.02075   0.28902   0.00000  Uiso   1.00
C196   C     0.69151   0.31248   0.21105   0.00000  Uiso   1.00
C197   C     0.97594   0.31094   0.28862   0.00000  Uiso   1.00
C198   C     0.69190   0.02236   0.21124   0.00000  Uiso   1.00
C199   C     0.99970   0.29036   0.24961   0.00000  Uiso   1.00
C200   C     0.66762   0.04294   0.25013   0.00000  Uiso   1.00
C201   C     0.85287   0.13416   0.26899   0.00000  Uiso   1.00
C202   C     0.81368   0.20034   0.23381   0.00000  Uiso   1.00
C203   C     0.80514   0.13225   0.26404   0.00000  Uiso   1.00
C204   C     0.86312   0.20002   0.23302   0.00000  Uiso   1.00
C205   C     0.97213   0.16626   0.33580   0.00000  Uiso   1.00
C206   C     0.69461   0.16496   0.16424   0.00000  Uiso   1.00
C207   C     0.95579   0.17074   0.38445   0.00000  Uiso   1.00
C208   C     0.71071   0.16399   0.11511   0.00000  Uiso   1.00
C209   C     0.96983   0.19919   0.44970   0.00000  Uiso   1.00
C210   C     0.69249   0.16164   0.04527   0.00000  Uiso   1.00
C211   C     0.98810   0.18282   0.40734   0.00000  Uiso   1.00
C212   C     0.67713   0.15702   0.09180   0.00000  Uiso   1.00
C213   C     0.90636   0.16679   0.40774   0.00000  Uiso   1.00
C214   C     0.76009   0.16955   0.09142   0.00000  Uiso   1.00
C215   C     0.88760   0.18377   0.45051   0.00000  Uiso   1.00
C216   C     0.77426   0.17837   0.04534   0.00000  Uiso   1.00
C217   C     0.92024   0.19921   0.47157   0.00000  Uiso   1.00
C218   C     0.73994   0.17307   0.02251   0.00000  Uiso   1.00
C219   C     0.83756   0.18411   0.47393   0.00000  Uiso   1.00
C220   C     0.82249   0.18885   0.02055   0.00000  Uiso   1.00
Cu221  Cu    0.71355   0.16667   0.25000   0.00000  Uiso   1.00
Cu222  Cu    0.95311   0.16666   0.25000   0.00000  Uiso   1.00
H223   H     0.92739   0.22754   0.03036   0.00000  Uiso   1.00
H224   H     0.72775   0.17526   0.45920   0.00000  Uiso   1.00
H225   H     0.99436   0.21134   0.46607   0.00000  Uiso   1.00
H226   H     0.66815   0.15504   0.02630   0.00000  Uiso   1.00
H227   H     0.84399   0.21622   0.07400   0.00000  Uiso   1.00
H228   H     0.81034   0.18536   0.41675   0.00000  Uiso   1.00
H229   H     0.96003   0.03683   0.31951   0.00000  Uiso   1.00
H230   H     0.71022   0.29633   0.18098   0.00000  Uiso   1.00
H231   H     0.95732   0.29359   0.31867   0.00000  Uiso   1.00
H232   H     0.71074   0.03973   0.18128   0.00000  Uiso   1.00
N233   N     0.78403   0.16668   0.24999   0.00000  Uiso   1.00
N234   N     0.88264   0.16666   0.25001   0.00000  Uiso   1.00
O235   O     0.70625   0.10655   0.25000   0.00000  Uiso   1.00
O236   O     0.96042   0.22678   0.25000   0.00000  Uiso   1.00
O237   O     0.96039   0.10654   0.25001   0.00000  Uiso   1.00
O238   O     0.70628   0.22679   0.24999   0.00000  Uiso   1.00
O239   O     0.68519   0.16668   0.31491   0.00000  Uiso   1.00
O240   O     0.98148   0.16666   0.18509   0.00000  Uiso   1.00
O241   O     0.93933   0.16667   0.31492   0.00000  Uiso   1.00
O242   O     0.72733   0.16667   0.18508   0.00000  Uiso   1.00
O243   O     0.79467   0.16026   0.11222   0.00000  Uiso   1.00
C244   C     0.80464   0.11707   0.10836   0.00000  Uiso   1.00
H245   H     0.82371   0.10915   0.07334   0.00000  Uiso   1.00
H246   H     0.77134   0.09798   0.12139   0.00000  Uiso   1.00
H247   H     0.82857   0.10830   0.12853   0.00000  Uiso   1.00
O248   O     0.87747   0.14361   0.38960   0.00000  Uiso   1.00
C249   C     0.87876   0.10169   0.40375   0.00000  Uiso   1.00
H250   H     0.86799   0.09840   0.44061   0.00000  Uiso   1.00
H251   H     0.91516   0.08780   0.38874   0.00000  Uiso   1.00
H252   H     0.85242   0.08374   0.39254   0.00000  Uiso   1.00
O253   O     0.96598   0.13962   0.11508   0.00000  Uiso   1.00
C254   C     0.92868   0.15164   0.09739   0.00000  Uiso   1.00
H255   H     0.93127   0.18498   0.08694   0.00000  Uiso   1.00
H256   H     0.89395   0.14802   0.12398   0.00000  Uiso   1.00
H257   H     0.92798   0.13115   0.06981   0.00000  Uiso   1.00
O258   O     0.70427   0.17974   0.38854   0.00000  Uiso   1.00
C259   C     0.71806   0.13733   0.39008   0.00000  Uiso   1.00
H260   H     0.75806   0.13547   0.38019   0.00000  Uiso   1.00
H261   H     0.70600   0.11816   0.36672   0.00000  Uiso   1.00
H262   H     0.70379   0.12311   0.42399   0.00000  Uiso   1.00
O263   O     0.86519   0.11055   0.30151   0.00000  Uiso   1.00
C264   C     0.86467   0.06729   0.29527   0.00000  Uiso   1.00
H265   H     0.88495   0.05859   0.26087   0.00000  Uiso   1.00
H266   H     0.82760   0.05459   0.30664   0.00000  Uiso   1.00
H267   H     0.88320   0.05188   0.31725   0.00000  Uiso   1.00
O268   O     0.79526   0.23660   0.22076   0.00000  Uiso   1.00
C269   C     0.80398   0.23778   0.17427   0.00000  Uiso   1.00
H270   H     0.82993   0.21383   0.15579   0.00000  Uiso   1.00
H271   H     0.81833   0.26894   0.16120   0.00000  Uiso   1.00
H272   H     0.76942   0.23460   0.16671   0.00000  Uiso   1.00
O273   O     0.78125   0.09480   0.27151   0.00000  Uiso   1.00
C274   C     0.79702   0.07198   0.23175   0.00000  Uiso   1.00
H275   H     0.83673   0.06765   0.21963   0.00000  Uiso   1.00
H276   H     0.78594   0.08747   0.20452   0.00000  Uiso   1.00
H277   H     0.78039   0.04061   0.23802   0.00000  Uiso   1.00
O278   O     0.88864   0.23684   0.22195   0.00000  Uiso   1.00
C279   C     0.91504   0.23831   0.17640   0.00000  Uiso   1.00
H280   H     0.95286   0.24722   0.17263   0.00000  Uiso   1.00
H281   H     0.89996   0.26306   0.15933   0.00000  Uiso   1.00
H282   H     0.91597   0.20857   0.15917   0.00000  Uiso   1.00
C283   C     0.00023   0.42094   0.25012   0.00000  Uiso   1.00
C284   C     0.33325   0.57905   0.24970   0.00000  Uiso   1.00
C285   C     0.18866   0.53948   0.04005   0.00000  Uiso   1.00
C286   C     0.13531   0.51518   0.45232   0.00000  Uiso   1.00
C287   C     0.23646   0.54641   0.01506   0.00000  Uiso   1.00
C288   C     0.08726   0.51053   0.47655   0.00000  Uiso   1.00
C289   C     0.31051   0.35409   0.28902   0.00000  Uiso   1.00
C290   C     0.02484   0.64581   0.21105   0.00000  Uiso   1.00
C291   C     0.30928   0.64427   0.28862   0.00000  Uiso   1.00
C292   C     0.02523   0.35569   0.21124   0.00000  Uiso   1.00
C293   C     0.33304   0.62370   0.24961   0.00000  Uiso   1.00
C294   C     0.00095   0.37627   0.25013   0.00000  Uiso   1.00
C295   C     0.18621   0.46750   0.26899   0.00000  Uiso   1.00
C296   C     0.14702   0.53367   0.23381   0.00000  Uiso   1.00
C297   C     0.13847   0.46558   0.26404   0.00000  Uiso   1.00
C298   C     0.19645   0.53336   0.23302   0.00000  Uiso   1.00
C299   C     0.30546   0.49960   0.33580   0.00000  Uiso   1.00
C300   C     0.02794   0.49829   0.16424   0.00000  Uiso   1.00
C301   C     0.28912   0.50407   0.38445   0.00000  Uiso   1.00
C302   C     0.04404   0.49732   0.11511   0.00000  Uiso   1.00
C303   C     0.30316   0.53252   0.44970   0.00000  Uiso   1.00
C304   C     0.02583   0.49498   0.04527   0.00000  Uiso   1.00
C305   C     0.32143   0.51615   0.40734   0.00000  Uiso   1.00
C306   C     0.01046   0.49035   0.09180   0.00000  Uiso   1.00
C307   C     0.23969   0.50012   0.40774   0.00000  Uiso   1.00
C308   C     0.09342   0.50288   0.09142   0.00000  Uiso   1.00
C309   C     0.22093   0.51710   0.45051   0.00000  Uiso   1.00
C310   C     0.10759   0.51170   0.04534   0.00000  Uiso   1.00
C311   C     0.25358   0.53254   0.47157   0.00000  Uiso   1.00
C312   C     0.07327   0.50641   0.02251   0.00000  Uiso   1.00
C313   C     0.17089   0.51744   0.47393   0.00000  Uiso   1.00
C314   C     0.15583   0.52218   0.02055   0.00000  Uiso   1.00
Cu315  Cu    0.04689   0.50001   0.25000   0.00000  Uiso   1.00
Cu316  Cu    0.28645   0.49999   0.25000   0.00000  Uiso   1.00
H317   H     0.26072   0.56088   0.03036   0.00000  Uiso   1.00
H318   H     0.06108   0.50860   0.45920   0.00000  Uiso   1.00
H319   H     0.32770   0.54468   0.46607   0.00000  Uiso   1.00
H320   H     0.00148   0.48837   0.02630   0.00000  Uiso   1.00
H321   H     0.17732   0.54956   0.07400   0.00000  Uiso   1.00
H322   H     0.14368   0.51869   0.41675   0.00000  Uiso   1.00
H323   H     0.29336   0.37017   0.31951   0.00000  Uiso   1.00
H324   H     0.04355   0.62966   0.18098   0.00000  Uiso   1.00
H325   H     0.29065   0.62693   0.31867   0.00000  Uiso   1.00
H326   H     0.04407   0.37306   0.18128   0.00000  Uiso   1.00
N327   N     0.11736   0.50001   0.24999   0.00000  Uiso   1.00
N328   N     0.21597   0.49999   0.25001   0.00000  Uiso   1.00
O329   O     0.03958   0.43989   0.25000   0.00000  Uiso   1.00
O330   O     0.29375   0.56011   0.25000   0.00000  Uiso   1.00
O331   O     0.29372   0.43988   0.25001   0.00000  Uiso   1.00
O332   O     0.03961   0.56012   0.24999   0.00000  Uiso   1.00
O333   O     0.01852   0.50001   0.31491   0.00000  Uiso   1.00
O334   O     0.31481   0.49999   0.18509   0.00000  Uiso   1.00
O335   O     0.27267   0.50000   0.31492   0.00000  Uiso   1.00
O336   O     0.06067   0.50000   0.18508   0.00000  Uiso   1.00
O337   O     0.12800   0.49359   0.11222   0.00000  Uiso   1.00
C338   C     0.13798   0.45040   0.10836   0.00000  Uiso   1.00
H339   H     0.15705   0.44248   0.07334   0.00000  Uiso   1.00
H340   H     0.10468   0.43131   0.12139   0.00000  Uiso   1.00
H341   H     0.16190   0.44163   0.12853   0.00000  Uiso   1.00
O342   O     0.21080   0.47694   0.38960   0.00000  Uiso   1.00
C343   C     0.21210   0.43502   0.40375   0.00000  Uiso   1.00
H344   H     0.20132   0.43174   0.44061   0.00000  Uiso   1.00
H345   H     0.24850   0.42114   0.38874   0.00000  Uiso   1.00
H346   H     0.18576   0.41707   0.39254   0.00000  Uiso   1.00
O347   O     0.29931   0.47295   0.11508   0.00000  Uiso   1.00
C348   C     0.26201   0.48497   0.09739   0.00000  Uiso   1.00
H349   H     0.26460   0.51831   0.08694   0.00000  Uiso   1.00
H350   H     0.22729   0.48136   0.12398   0.00000  Uiso   1.00
H351   H     0.26131   0.46448   0.06981   0.00000  Uiso   1.00
O352   O     0.03761   0.51307   0.38854   0.00000  Uiso   1.00
C353   C     0.05139   0.47066   0.39008   0.00000  Uiso   1.00
H354   H     0.09139   0.46880   0.38019   0.00000  Uiso   1.00
H355   H     0.03934   0.45149   0.36672   0.00000  Uiso   1.00
H356   H     0.03713   0.45644   0.42399   0.00000  Uiso   1.00
O357   O     0.19852   0.44388   0.30151   0.00000  Uiso   1.00
C358   C     0.19800   0.40063   0.29527   0.00000  Uiso   1.00
H359   H     0.21828   0.39193   0.26087   0.00000  Uiso   1.00
H360   H     0.16093   0.38792   0.30664   0.00000  Uiso   1.00
H361   H     0.21654   0.38521   0.31725   0.00000  Uiso   1.00
O362   O     0.12859   0.56993   0.22076   0.00000  Uiso   1.00
C363   C     0.13731   0.57112   0.17427   0.00000  Uiso   1.00
H364   H     0.16326   0.54716   0.15579   0.00000  Uiso   1.00
H365   H     0.15166   0.60227   0.16120   0.00000  Uiso   1.00
H366   H     0.10276   0.56794   0.16671   0.00000  Uiso   1.00
O367   O     0.11458   0.42813   0.27151   0.00000  Uiso   1.00
C368   C     0.13035   0.40532   0.23175   0.00000  Uiso   1.00
H369   H     0.17007   0.40099   0.21963   0.00000  Uiso   1.00
H370   H     0.11927   0.42080   0.20452   0.00000  Uiso   1.00
H371   H     0.11373   0.37394   0.23802   0.00000  Uiso   1.00
O372   O     0.22197   0.57018   0.22195   0.00000  Uiso   1.00
C373   C     0.24838   0.57165   0.17640   0.00000  Uiso   1.00
H374   H     0.28619   0.58055   0.17263   0.00000  Uiso   1.00
H375   H     0.23329   0.59639   0.15933   0.00000  Uiso   1.00
H376   H     0.24930   0.54191   0.15917   0.00000  Uiso   1.00
C377   C     0.33357   0.42094   0.25012   0.00000  Uiso   1.00
C378   C     0.66658   0.57905   0.24970   0.00000  Uiso   1.00
C379   C     0.52199   0.53948   0.04005   0.00000  Uiso   1.00
C380   C     0.46864   0.51518   0.45232   0.00000  Uiso   1.00
C381   C     0.56979   0.54641   0.01506   0.00000  Uiso   1.00
C382   C     0.42059   0.51053   0.47655   0.00000  Uiso   1.00
C383   C     0.64384   0.35409   0.28902   0.00000  Uiso   1.00
C384   C     0.35817   0.64581   0.21105   0.00000  Uiso   1.00
C385   C     0.64261   0.64427   0.28862   0.00000  Uiso   1.00
C386   C     0.35856   0.35569   0.21124   0.00000  Uiso   1.00
C387   C     0.66637   0.62370   0.24961   0.00000  Uiso   1.00
C388   C     0.33428   0.37627   0.25013   0.00000  Uiso   1.00
C389   C     0.51954   0.46750   0.26899   0.00000  Uiso   1.00
C390   C     0.48035   0.53367   0.23381   0.00000  Uiso   1.00
C391   C     0.47180   0.46558   0.26404   0.00000  Uiso   1.00
C392   C     0.52979   0.53336   0.23302   0.00000  Uiso   1.00
C393   C     0.63880   0.49960   0.33580   0.00000  Uiso   1.00
C394   C     0.36128   0.49829   0.16424   0.00000  Uiso   1.00
C395   C     0.62245   0.50407   0.38445   0.00000  Uiso   1.00
C396   C     0.37737   0.49732   0.11511   0.00000  Uiso   1.00
C397   C     0.63650   0.53252   0.44970   0.00000  Uiso   1.00
C398   C     0.35916   0.49498   0.04527   0.00000  Uiso   1.00
C399   C     0.65477   0.51615   0.40734   0.00000  Uiso   1.00
C400   C     0.34380   0.49035   0.09180   0.00000  Uiso   1.00
C401   C     0.57302   0.50012   0.40774   0.00000  Uiso   1.00
C402   C     0.42675   0.50288   0.09142   0.00000  Uiso   1.00
C403   C     0.55427   0.51710   0.45051   0.00000  Uiso   1.00
C404   C     0.44093   0.51170   0.04534   0.00000  Uiso   1.00
C405   C     0.58691   0.53254   0.47157   0.00000  Uiso   1.00
C406   C     0.40660   0.50641   0.02251   0.00000  Uiso   1.00
C407   C     0.50423   0.51744   0.47393   0.00000  Uiso   1.00
C408   C     0.48916   0.52218   0.02055   0.00000  Uiso   1.00
Cu409  Cu    0.38022   0.50001   0.25000   0.00000  Uiso   1.00
Cu410  Cu    0.61978   0.49999   0.25000   0.00000  Uiso   1.00
H411   H     0.59406   0.56088   0.03036   0.00000  Uiso   1.00
H412   H     0.39441   0.50860   0.45920   0.00000  Uiso   1.00
H413   H     0.66103   0.54468   0.46607   0.00000  Uiso   1.00
H414   H     0.33481   0.48837   0.02630   0.00000  Uiso   1.00
H415   H     0.51065   0.54956   0.07400   0.00000  Uiso   1.00
H416   H     0.47701   0.51869   0.41675   0.00000  Uiso   1.00
H417   H     0.62669   0.37017   0.31951   0.00000  Uiso   1.00
H418   H     0.37688   0.62966   0.18098   0.00000  Uiso   1.00
H419   H     0.62398   0.62693   0.31867   0.00000  Uiso   1.00
H420   H     0.37741   0.37306   0.18128   0.00000  Uiso   1.00
N421   N     0.45069   0.50001   0.24999   0.00000  Uiso   1.00
N422   N     0.54931   0.49999   0.25001   0.00000  Uiso   1.00
O423   O     0.37291   0.43989   0.25000   0.00000  Uiso   1.00
O424   O     0.62709   0.56011   0.25000   0.00000  Uiso   1.00
O425   O     0.62706   0.43988   0.25001   0.00000  Uiso   1.00
O426   O     0.37294   0.56012   0.24999   0.00000  Uiso   1.00
O427   O     0.35186   0.50001   0.31491   0.00000  Uiso   1.00
O428   O     0.64814   0.49999   0.18509   0.00000  Uiso   1.00
O429   O     0.60600   0.50000   0.31492   0.00000  Uiso   1.00
O430   O     0.39400   0.50000   0.18508   0.00000  Uiso   1.00
O431   O     0.46134   0.49359   0.11222   0.00000  Uiso   1.00
C432   C     0.47131   0.45040   0.10836   0.00000  Uiso   1.00
H433   H     0.49038   0.44248   0.07334   0.00000  Uiso   1.00
H434   H     0.43801   0.43131   0.12139   0.00000  Uiso   1.00
H435   H     0.49523   0.44163   0.12853   0.00000  Uiso   1.00
O436   O     0.54414   0.47694   0.38960   0.00000  Uiso   1.00
C437   C     0.54543   0.43502   0.40375   0.00000  Uiso   1.00
H438   H     0.53466   0.43174   0.44061   0.00000  Uiso   1.00
H439   H     0.58183   0.42114   0.38874   0.00000  Uiso   1.00
H440   H     0.51909   0.41707   0.39254   0.00000  Uiso   1.00
O441   O     0.63265   0.47295   0.11508   0.00000  Uiso   1.00
C442   C     0.59534   0.48497   0.09739   0.00000  Uiso   1.00
H443   H     0.59794   0.51831   0.08694   0.00000  Uiso   1.00
H444   H     0.56062   0.48136   0.12398   0.00000  Uiso   1.00
H445   H     0.59465   0.46448   0.06981   0.00000  Uiso   1.00
O446   O     0.37094   0.51307   0.38854   0.00000  Uiso   1.00
C447   C     0.38473   0.47066   0.39008   0.00000  Uiso   1.00
H448   H     0.42473   0.46880   0.38019   0.00000  Uiso   1.00
H449   H     0.37267   0.45149   0.36672   0.00000  Uiso   1.00
H450   H     0.37046   0.45644   0.42399   0.00000  Uiso   1.00
O451   O     0.53186   0.44388   0.30151   0.00000  Uiso   1.00
C452   C     0.53133   0.40063   0.29527   0.00000  Uiso   1.00
H453   H     0.55162   0.39193   0.26087   0.00000  Uiso   1.00
H454   H     0.49426   0.38792   0.30664   0.00000  Uiso   1.00
H455   H     0.54987   0.38521   0.31725   0.00000  Uiso   1.00
O456   O     0.46193   0.56993   0.22076   0.00000  Uiso   1.00
C457   C     0.47064   0.57112   0.17427   0.00000  Uiso   1.00
H458   H     0.49659   0.54716   0.15579   0.00000  Uiso   1.00
H459   H     0.48500   0.60227   0.16120   0.00000  Uiso   1.00
H460   H     0.43609   0.56794   0.16671   0.00000  Uiso   1.00
O461   O     0.44792   0.42813   0.27151   0.00000  Uiso   1.00
C462   C     0.46369   0.40532   0.23175   0.00000  Uiso   1.00
H463   H     0.50340   0.40099   0.21963   0.00000  Uiso   1.00
H464   H     0.45260   0.42080   0.20452   0.00000  Uiso   1.00
H465   H     0.44706   0.37394   0.23802   0.00000  Uiso   1.00
O466   O     0.55530   0.57018   0.22195   0.00000  Uiso   1.00
C467   C     0.58171   0.57165   0.17640   0.00000  Uiso   1.00
H468   H     0.61952   0.58055   0.17263   0.00000  Uiso   1.00
H469   H     0.56662   0.59639   0.15933   0.00000  Uiso   1.00
H470   H     0.58264   0.54191   0.15917   0.00000  Uiso   1.00
C471   C     0.66690   0.42094   0.25012   0.00000  Uiso   1.00
C472   C     0.99992   0.57905   0.24970   0.00000  Uiso   1.00
C473   C     0.85532   0.53948   0.04005   0.00000  Uiso   1.00
C474   C     0.80197   0.51518   0.45232   0.00000  Uiso   1.00
C475   C     0.90313   0.54641   0.01506   0.00000  Uiso   1.00
C476   C     0.75392   0.51053   0.47655   0.00000  Uiso   1.00
C477   C     0.97718   0.35409   0.28902   0.00000  Uiso   1.00
C478   C     0.69151   0.64581   0.21105   0.00000  Uiso   1.00
C479   C     0.97594   0.64427   0.28862   0.00000  Uiso   1.00
C480   C     0.69190   0.35569   0.21124   0.00000  Uiso   1.00
C481   C     0.99970   0.62370   0.24961   0.00000  Uiso   1.00
C482   C     0.66762   0.37627   0.25013   0.00000  Uiso   1.00
C483   C     0.85287   0.46750   0.26899   0.00000  Uiso   1.00
C484   C     0.81368   0.53367   0.23381   0.00000  Uiso   1.00
C485   C     0.80514   0.46558   0.26404   0.00000  Uiso   1.00
C486   C     0.86312   0.53336   0.23302   0.00000  Uiso   1.00
C487   C     0.97213   0.49960   0.33580   0.00000  Uiso   1.00
C488   C     0.69461   0.49829   0.16424   0.00000  Uiso   1.00
C489   C     0.95579   0.50407   0.38445   0.00000  Uiso   1.00
C490   C     0.71071   0.49732   0.11511   0.00000  Uiso   1.00
C491   C     0.96983   0.53252   0.44970   0.00000  Uiso   1.00
C492   C     0.69249   0.49498   0.04527   0.00000  Uiso   1.00
C493   C     0.98810   0.51615   0.40734   0.00000  Uiso   1.00
C494   C     0.67713   0.49035   0.09180   0.00000  Uiso   1.00
C495   C     0.90636   0.50012   0.40774   0.00000  Uiso   1.00
C496   C     0.76009   0.50288   0.09142   0.00000  Uiso   1.00
C497   C     0.88760   0.51710   0.45051   0.00000  Uiso   1.00
C498   C     0.77426   0.51170   0.04534   0.00000  Uiso   1.00
C499   C     0.92024   0.53254   0.47157   0.00000  Uiso   1.00
C500   C     0.73994   0.50641   0.02251   0.00000  Uiso   1.00
C501   C     0.83756   0.51744   0.47393   0.00000  Uiso   1.00
C502   C     0.82249   0.52218   0.02055   0.00000  Uiso   1.00
Cu503  Cu    0.71355   0.50001   0.25000   0.00000  Uiso   1.00
Cu504  Cu    0.95311   0.49999   0.25000   0.00000  Uiso   1.00
H505   H     0.92739   0.56088   0.03036   0.00000  Uiso   1.00
H506   H     0.72775   0.50860   0.45920   0.00000  Uiso   1.00
H507   H     0.99436   0.54468   0.46607   0.00000  Uiso   1.00
H508   H     0.66815   0.48837   0.02630   0.00000  Uiso   1.00
H509   H     0.84399   0.54956   0.07400   0.00000  Uiso   1.00
H510   H     0.81034   0.51869   0.41675   0.00000  Uiso   1.00
H511   H     0.96003   0.37017   0.31951   0.00000  Uiso   1.00
H512   H     0.71022   0.62966   0.18098   0.00000  Uiso   1.00
H513   H     0.95732   0.62693   0.31867   0.00000  Uiso   1.00
H514   H     0.71074   0.37306   0.18128   0.00000  Uiso   1.00
N515   N     0.78403   0.50001   0.24999   0.00000  Uiso   1.00
N516   N     0.88264   0.49999   0.25001   0.00000  Uiso   1.00
O517   O     0.70625   0.43989   0.25000   0.00000  Uiso   1.00
O518   O     0.96042   0.56011   0.25000   0.00000  Uiso   1.00
O519   O     0.96039   0.43988   0.25001   0.00000  Uiso   1.00
O520   O     0.70628   0.56012   0.24999   0.00000  Uiso   1.00
O521   O     0.68519   0.50001   0.31491   0.00000  Uiso   1.00
O522   O     0.98148   0.49999   0.18509   0.00000  Uiso   1.00
O523   O     0.93933   0.50000   0.31492   0.00000  Uiso   1.00
O524   O     0.72733   0.50000   0.18508   0.00000  Uiso   1.00
O525   O     0.79467   0.49359   0.11222   0.00000  Uiso   1.00
C526   C     0.80464   0.45040   0.10836   0.00000  Uiso   1.00
H527   H     0.82371   0.44248   0.07334   0.00000  Uiso   1.00
H528   H     0.77134   0.43131   0.12139   0.00000  Uiso   1.00
H529   H     0.82857   0.44163   0.12853   0.00000  Uiso   1.00
O530   O     0.87747   0.47694   0.38960   0.00000  Uiso   1.00
C531   C     0.87876   0.43502   0.40375   0.00000  Uiso   1.00
H532   H     0.86799   0.43174   0.44061   0.00000  Uiso   1.00
H533   H     0.91516   0.42114   0.38874   0.00000  Uiso   1.00
H534   H     0.85242   0.41707   0.39254   0.00000  Uiso   1.00
O535   O     0.96598   0.47295   0.11508   0.00000  Uiso   1.00
C536   C     0.92868   0.48497   0.09739   0.00000  Uiso   1.00
H537   H     0.93127   0.51831   0.08694   0.00000  Uiso   1.00
H538   H     0.89395   0.48136   0.12398   0.00000  Uiso   1.00
H539   H     0.92798   0.46448   0.06981   0.00000  Uiso   1.00
O540   O     0.70427   0.51307   0.38854   0.00000  Uiso   1.00
C541   C     0.71806   0.47066   0.39008   0.00000  Uiso   1.00
H542   H     0.75806   0.46880   0.38019   0.00000  Uiso   1.00
H543   H     0.70600   0.45149   0.36672   0.00000  Uiso   1.00
H544   H     0.70379   0.45644   0.42399   0.00000  Uiso   1.00
O545   O     0.86519   0.44388   0.30151   0.00000  Uiso   1.00
C546   C     0.86467   0.40063   0.29527   0.00000  Uiso   1.00
H547   H     0.88495   0.39193   0.26087   0.00000  Uiso   1.00
H548   H     0.82760   0.38792   0.30664   0.00000  Uiso   1.00
H549   H     0.88320   0.38521   0.31725   0.00000  Uiso   1.00
O550   O     0.79526   0.56993   0.22076   0.00000  Uiso   1.00
C551   C     0.80398   0.57112   0.17427   0.00000  Uiso   1.00
H552   H     0.82993   0.54716   0.15579   0.00000  Uiso   1.00
H553   H     0.81833   0.60227   0.16120   0.00000  Uiso   1.00
H554   H     0.76942   0.56794   0.16671   0.00000  Uiso   1.00
O555   O     0.78125   0.42813   0.27151   0.00000  Uiso   1.00
C556   C     0.79702   0.40532   0.23175   0.00000  Uiso   1.00
H557   H     0.83673   0.40099   0.21963   0.00000  Uiso   1.00
H558   H     0.78594   0.42080   0.20452   0.00000  Uiso   1.00
H559   H     0.78039   0.37394   0.23802   0.00000  Uiso   1.00
O560   O     0.88864   0.57018   0.22195   0.00000  Uiso   1.00
C561   C     0.91504   0.57165   0.17640   0.00000  Uiso   1.00
H562   H     0.95286   0.58055   0.17263   0.00000  Uiso   1.00
H563   H     0.89996   0.59639   0.15933   0.00000  Uiso   1.00
H564   H     0.91597   0.54191   0.15917   0.00000  Uiso   1.00
C565   C     0.00023   0.75427   0.25012   0.00000  Uiso   1.00
C566   C     0.33325   0.91239   0.24970   0.00000  Uiso   1.00
C567   C     0.18866   0.87282   0.04005   0.00000  Uiso   1.00
C568   C     0.13531   0.84852   0.45232   0.00000  Uiso   1.00
C569   C     0.23646   0.87974   0.01506   0.00000  Uiso   1.00
C570   C     0.08726   0.84386   0.47655   0.00000  Uiso   1.00
C571   C     0.31051   0.68742   0.28902   0.00000  Uiso   1.00
C572   C     0.02484   0.97914   0.21105   0.00000  Uiso   1.00
C573   C     0.30928   0.97760   0.28862   0.00000  Uiso   1.00
C574   C     0.02523   0.68903   0.21124   0.00000  Uiso   1.00
C575   C     0.33304   0.95703   0.24961   0.00000  Uiso   1.00
C576   C     0.00095   0.70960   0.25013   0.00000  Uiso   1.00
C577   C     0.18621   0.80083   0.26899   0.00000  Uiso   1.00
C578   C     0.14702   0.86700   0.23381   0.00000  Uiso   1.00
C579   C     0.13847   0.79892   0.26404   0.00000  Uiso   1.00
C580   C     0.19645   0.86669   0.23302   0.00000  Uiso   1.00
C581   C     0.30546   0.83293   0.33580   0.00000  Uiso   1.00
C582   C     0.02794   0.83163   0.16424   0.00000  Uiso   1.00
C583   C     0.28912   0.83740   0.38445   0.00000  Uiso   1.00
C584   C     0.04404   0.83066   0.11511   0.00000  Uiso   1.00
C585   C     0.30316   0.86586   0.44970   0.00000  Uiso   1.00
C586   C     0.02583   0.82831   0.04527   0.00000  Uiso   1.00
C587   C     0.32143   0.84948   0.40734   0.00000  Uiso   1.00
C588   C     0.01046   0.82369   0.09180   0.00000  Uiso   1.00
C589   C     0.23969   0.83346   0.40774   0.00000  Uiso   1.00
C590   C     0.09342   0.83621   0.09142   0.00000  Uiso   1.00
C591   C     0.22093   0.85043   0.45051   0.00000  Uiso   1.00
C592   C     0.10759   0.84503   0.04534   0.00000  Uiso   1.00
C593   C     0.25358   0.86587   0.47157   0.00000  Uiso   1.00
C594   C     0.07327   0.83974   0.02251   0.00000  Uiso   1.00
C595   C     0.17089   0.85077   0.47393   0.00000  Uiso   1.00
C596   C     0.15583   0.85551   0.02055   0.00000  Uiso   1.00
Cu597  Cu    0.04689   0.83334   0.25000   0.00000  Uiso   1.00
Cu598  Cu    0.28645   0.83333   0.25000   0.00000  Uiso   1.00
H599   H     0.26072   0.89421   0.03036   0.00000  Uiso   1.00
H600   H     0.06108   0.84193   0.45920   0.00000  Uiso   1.00
H601   H     0.32770   0.87801   0.46607   0.00000  Uiso   1.00
H602   H     0.00148   0.82170   0.02630   0.00000  Uiso   1.00
H603   H     0.17732   0.88289   0.07400   0.00000  Uiso   1.00
H604   H     0.14368   0.85202   0.41675   0.00000  Uiso   1.00
H605   H     0.29336   0.70350   0.31951   0.00000  Uiso   1.00
H606   H     0.04355   0.96300   0.18098   0.00000  Uiso   1.00
H607   H     0.29065   0.96026   0.31867   0.00000  Uiso   1.00
H608   H     0.04407   0.70640   0.18128   0.00000  Uiso   1.00
N609   N     0.11736   0.83334   0.24999   0.00000  Uiso   1.00
N610   N     0.21597   0.83332   0.25001   0.00000  Uiso   1.00
O611   O     0.03958   0.77322   0.25000   0.00000  Uiso   1.00
O612   O     0.29375   0.89345   0.25000   0.00000  Uiso   1.00
O613   O     0.29372   0.77321   0.25001   0.00000  Uiso   1.00
O614   O     0.03961   0.89346   0.24999   0.00000  Uiso   1.00
O615   O     0.01852   0.83334   0.31491   0.00000  Uiso   1.00
O616   O     0.31481   0.83332   0.18509   0.00000  Uiso   1.00
O617   O     0.27267   0.83333   0.31492   0.00000  Uiso   1.00
O618   O     0.06067   0.83333   0.18508   0.00000  Uiso   1.00
O619   O     0.12800   0.82693   0.11222   0.00000  Uiso   1.00
C620   C     0.13798   0.78374   0.10836   0.00000  Uiso   1.00
H621   H     0.15705   0.77582   0.07334   0.00000  Uiso   1.00
H622   H     0.10468   0.76465   0.12139   0.00000  Uiso   1.00
H623   H     0.16190   0.77496   0.12853   0.00000  Uiso   1.00
O624   O     0.21080   0.81028   0.38960   0.00000  Uiso   1.00
C625   C     0.21210   0.76836   0.40375   0.00000  Uiso   1.00
H626   H     0.20132   0.76507   0.44061   0.00000  Uiso   1.00
H627   H     0.24850   0.75447   0.38874   0.00000  Uiso   1.00
H628   H     0.18576   0.75040   0.39254   0.00000  Uiso   1.00
O629   O     0.29931   0.80629   0.11508   0.00000  Uiso   1.00
C630   C     0.26201   0.81831   0.09739   0.00000  Uiso   1.00
H631   H     0.26460   0.85165   0.08694   0.00000  Uiso   1.00
H632   H     0.22729   0.81469   0.12398   0.00000  Uiso   1.00
H633   H     0.26131   0.79781   0.06981   0.00000  Uiso   1.00
O634   O     0.03761   0.84641   0.38854   0.00000  Uiso   1.00
C635   C     0.05139   0.80399   0.39008   0.00000  Uiso   1.00
H636   H     0.09139   0.80214   0.38019   0.00000  Uiso   1.00
H637   H     0.03934   0.78483   0.36672   0.00000  Uiso   1.00
H638   H     0.03713   0.78978   0.42399   0.00000  Uiso   1.00
O639   O     0.19852   0.77722   0.30151   0.00000  Uiso   1.00
C640   C     0.19800   0.73396   0.29527   0.00000  Uiso   1.00
H641   H     0.21828   0.72526   0.26087   0.00000  Uiso   1.00
H642   H     0.16093   0.72125   0.30664   0.00000  Uiso   1.00
H643   H     0.21654   0.71855   0.31725   0.00000  Uiso   1.00
O644   O     0.12859   0.90327   0.22076   0.00000  Uiso   1.00
C645   C     0.13731   0.90445   0.17427   0.00000  Uiso   1.00
H646   H     0.16326   0.88049   0.15579   0.00000  Uiso   1.00
H647   H     0.15166   0.93561   0.16120   0.00000  Uiso   1.00
H648   H     0.10276   0.90127   0.16671   0.00000  Uiso   1.00
O649   O     0.11458   0.76147   0.27151   0.00000  Uiso   1.00
C650   C     0.13035   0.73865   0.23175   0.00000  Uiso   1.00
H651   H     0.17007   0.73432   0.21963   0.00000  Uiso   1.00
H652   H     0.11927   0.75413   0.20452   0.00000  Uiso   1.00
H653   H     0.11373   0.70727   0.23802   0.00000  Uiso   1.00
O654   O     0.22197   0.90351   0.22195   0.00000  Uiso   1.00
C655   C     0.24838   0.90498   0.17640   0.00000  Uiso   1.00
H656   H     0.28619   0.91388   0.17263   0.00000  Uiso   1.00
H657   H     0.23329   0.92972   0.15933   0.00000  Uiso   1.00
H658   H     0.24930   0.87524   0.15917   0.00000  Uiso   1.00
C659   C     0.33357   0.75427   0.25012   0.00000  Uiso   1.00
C660   C     0.66658   0.91239   0.24970   0.00000  Uiso   1.00
C661   C     0.52199   0.87282   0.04005   0.00000  Uiso   1.00
C662   C     0.46864   0.84852   0.45232   0.00000  Uiso   1.00
C663   C     0.56979   0.87974   0.01506   0.00000  Uiso   1.00
C664   C     0.42059   0.84386   0.47655   0.00000  Uiso   1.00
C665   C     0.64384   0.68742   0.28902   0.00000  Uiso   1.00
C666   C     0.35817   0.97914   0.21105   0.00000  Uiso   1.00
C667   C     0.64261   0.97760   0.28862   0.00000  Uiso   1.00
C668   C     0.35856   0.68903   0.21124   0.00000  Uiso   1.00
C669   C     0.66637   0.95703   0.24961   0.00000  Uiso   1.00
C670   C     0.33428   0.70960   0.25013   0.00000  Uiso   1.00
C671   C     0.51954   0.80083   0.26899   0.00000  Uiso   1.00
C672   C     0.48035   0.86700   0.23381   0.00000  Uiso   1.00
C673   C     0.47180   0.79892   0.26404   0.00000  Uiso   1.00
C674   C     0.52979   0.86669   0.23302   0.00000  Uiso   1.00
C675   C     0.63880   0.83293   0.33580   0.00000  Uiso   1.00
C676   C     0.36128   0.83163   0.16424   0.00000  Uiso   1.00
C677   C     0.62245   0.83740   0.38445   0.00000  Uiso   1.00
C678   C     0.37737   0.83066   0.11511   0.00000  Uiso   1.00
C679   C     0.63650   0.86586   0.44970   0.00000  Uiso   1.00
C680   C     0.35916   0.82831   0.04527   0.00000  Uiso   1.00
C681   C     0.65477   0.84948   0.40734   0.00000  Uiso   1.00
C682   C     0.34380   0.82369   0.09180   0.00000  Uiso   1.00
C683   C     0.57302   0.83346   0.40774   0.00000  Uiso   1.00
C684   C     0.42675   0.83621   0.09142   0.00000  Uiso   1.00
C685   C     0.55427   0.85043   0.45051   0.00000  Uiso   1.00
C686   C     0.44093   0.84503   0.04534   0.00000  Uiso   1.00
C687   C     0.58691   0.86587   0.47157   0.00000  Uiso   1.00
C688   C     0.40660   0.83974   0.02251   0.00000  Uiso   1.00
C689   C     0.50423   0.85077   0.47393   0.00000  Uiso   1.00
C690   C     0.48916   0.85551   0.02055   0.00000  Uiso   1.00
Cu691  Cu    0.38022   0.83334   0.25000   0.00000  Uiso   1.00
Cu692  Cu    0.61978   0.83333   0.25000   0.00000  Uiso   1.00
H693   H     0.59406   0.89421   0.03036   0.00000  Uiso   1.00
H694   H     0.39441   0.84193   0.45920   0.00000  Uiso   1.00
H695   H     0.66103   0.87801   0.46607   0.00000  Uiso   1.00
H696   H     0.33481   0.82170   0.02630   0.00000  Uiso   1.00
H697   H     0.51065   0.88289   0.07400   0.00000  Uiso   1.00
H698   H     0.47701   0.85202   0.41675   0.00000  Uiso   1.00
H699   H     0.62669   0.70350   0.31951   0.00000  Uiso   1.00
H700   H     0.37688   0.96300   0.18098   0.00000  Uiso   1.00
H701   H     0.62398   0.96026   0.31867   0.00000  Uiso   1.00
H702   H     0.37741   0.70640   0.18128   0.00000  Uiso   1.00
N703   N     0.45069   0.83334   0.24999   0.00000  Uiso   1.00
N704   N     0.54931   0.83332   0.25001   0.00000  Uiso   1.00
O705   O     0.37291   0.77322   0.25000   0.00000  Uiso   1.00
O706   O     0.62709   0.89345   0.25000   0.00000  Uiso   1.00
O707   O     0.62706   0.77321   0.25001   0.00000  Uiso   1.00
O708   O     0.37294   0.89346   0.24999   0.00000  Uiso   1.00
O709   O     0.35186   0.83334   0.31491   0.00000  Uiso   1.00
O710   O     0.64814   0.83332   0.18509   0.00000  Uiso   1.00
O711   O     0.60600   0.83333   0.31492   0.00000  Uiso   1.00
O712   O     0.39400   0.83333   0.18508   0.00000  Uiso   1.00
O713   O     0.46134   0.82693   0.11222   0.00000  Uiso   1.00
C714   C     0.47131   0.78374   0.10836   0.00000  Uiso   1.00
H715   H     0.49038   0.77582   0.07334   0.00000  Uiso   1.00
H716   H     0.43801   0.76465   0.12139   0.00000  Uiso   1.00
H717   H     0.49523   0.77496   0.12853   0.00000  Uiso   1.00
O718   O     0.54414   0.81028   0.38960   0.00000  Uiso   1.00
C719   C     0.54543   0.76836   0.40375   0.00000  Uiso   1.00
H720   H     0.53466   0.76507   0.44061   0.00000  Uiso   1.00
H721   H     0.58183   0.75447   0.38874   0.00000  Uiso   1.00
H722   H     0.51909   0.75040   0.39254   0.00000  Uiso   1.00
O723   O     0.63265   0.80629   0.11508   0.00000  Uiso   1.00
C724   C     0.59534   0.81831   0.09739   0.00000  Uiso   1.00
H725   H     0.59794   0.85165   0.08694   0.00000  Uiso   1.00
H726   H     0.56062   0.81469   0.12398   0.00000  Uiso   1.00
H727   H     0.59465   0.79781   0.06981   0.00000  Uiso   1.00
O728   O     0.37094   0.84641   0.38854   0.00000  Uiso   1.00
C729   C     0.38473   0.80399   0.39008   0.00000  Uiso   1.00
H730   H     0.42473   0.80214   0.38019   0.00000  Uiso   1.00
H731   H     0.37267   0.78483   0.36672   0.00000  Uiso   1.00
H732   H     0.37046   0.78978   0.42399   0.00000  Uiso   1.00
O733   O     0.53186   0.77722   0.30151   0.00000  Uiso   1.00
C734   C     0.53133   0.73396   0.29527   0.00000  Uiso   1.00
H735   H     0.55162   0.72526   0.26087   0.00000  Uiso   1.00
H736   H     0.49426   0.72125   0.30664   0.00000  Uiso   1.00
H737   H     0.54987   0.71855   0.31725   0.00000  Uiso   1.00
O738   O     0.46193   0.90327   0.22076   0.00000  Uiso   1.00
C739   C     0.47064   0.90445   0.17427   0.00000  Uiso   1.00
H740   H     0.49659   0.88049   0.15579   0.00000  Uiso   1.00
H741   H     0.48500   0.93561   0.16120   0.00000  Uiso   1.00
H742   H     0.43609   0.90127   0.16671   0.00000  Uiso   1.00
O743   O     0.44792   0.76147   0.27151   0.00000  Uiso   1.00
C744   C     0.46369   0.73865   0.23175   0.00000  Uiso   1.00
H745   H     0.50340   0.73432   0.21963   0.00000  Uiso   1.00
H746   H     0.45260   0.75413   0.20452   0.00000  Uiso   1.00
H747   H     0.44706   0.70727   0.23802   0.00000  Uiso   1.00
O748   O     0.55530   0.90351   0.22195   0.00000  Uiso   1.00
C749   C     0.58171   0.90498   0.17640   0.00000  Uiso   1.00
H750   H     0.61952   0.91388   0.17263   0.00000  Uiso   1.00
H751   H     0.56662   0.92972   0.15933   0.00000  Uiso   1.00
H752   H     0.58264   0.87524   0.15917   0.00000  Uiso   1.00
C753   C     0.66690   0.75427   0.25012   0.00000  Uiso   1.00
C754   C     0.99992   0.91239   0.24970   0.00000  Uiso   1.00
C755   C     0.85532   0.87282   0.04005   0.00000  Uiso   1.00
C756   C     0.80197   0.84852   0.45232   0.00000  Uiso   1.00
C757   C     0.90313   0.87974   0.01506   0.00000  Uiso   1.00
C758   C     0.75392   0.84386   0.47655   0.00000  Uiso   1.00
C759   C     0.97718   0.68742   0.28902   0.00000  Uiso   1.00
C760   C     0.69151   0.97914   0.21105   0.00000  Uiso   1.00
C761   C     0.97594   0.97760   0.28862   0.00000  Uiso   1.00
C762   C     0.69190   0.68903   0.21124   0.00000  Uiso   1.00
C763   C     0.99970   0.95703   0.24961   0.00000  Uiso   1.00
C764   C     0.66762   0.70960   0.25013   0.00000  Uiso   1.00
C765   C     0.85287   0.80083   0.26899   0.00000  Uiso   1.00
C766   C     0.81368   0.86700   0.23381   0.00000  Uiso   1.00
C767   C     0.80514   0.79892   0.26404   0.00000  Uiso   1.00
C768   C     0.86312   0.86669   0.23302   0.00000  Uiso   1.00
C769   C     0.97213   0.83293   0.33580   0.00000  Uiso   1.00
C770   C     0.69461   0.83163   0.16424   0.00000  Uiso   1.00
C771   C     0.95579   0.83740   0.38445   0.00000  Uiso   1.00
C772   C     0.71071   0.83066   0.11511   0.00000  Uiso   1.00
C773   C     0.96983   0.86586   0.44970   0.00000  Uiso   1.00
C774   C     0.69249   0.82831   0.04527   0.00000  Uiso   1.00
C775   C     0.98810   0.84948   0.40734   0.00000  Uiso   1.00
C776   C     0.67713   0.82369   0.09180   0.00000  Uiso   1.00
C777   C     0.90636   0.83346   0.40774   0.00000  Uiso   1.00
C778   C     0.76009   0.83621   0.09142   0.00000  Uiso   1.00
C779   C     0.88760   0.85043   0.45051   0.00000  Uiso   1.00
C780   C     0.77426   0.84503   0.04534   0.00000  Uiso   1.00
C781   C     0.92024   0.86587   0.47157   0.00000  Uiso   1.00
C782   C     0.73994   0.83974   0.02251   0.00000  Uiso   1.00
C783   C     0.83756   0.85077   0.47393   0.00000  Uiso   1.00
C784   C     0.82249   0.85551   0.02055   0.00000  Uiso   1.00
Cu785  Cu    0.71355   0.83334   0.25000   0.00000  Uiso   1.00
Cu786  Cu    0.95311   0.83333   0.25000   0.00000  Uiso   1.00
H787   H     0.92739   0.89421   0.03036   0.00000  Uiso   1.00
H788   H     0.72775   0.84193   0.45920   0.00000  Uiso   1.00
H789   H     0.99436   0.87801   0.46607   0.00000  Uiso   1.00
H790   H     0.66815   0.82170   0.02630   0.00000  Uiso   1.00
H791   H     0.84399   0.88289   0.07400   0.00000  Uiso   1.00
H792   H     0.81034   0.85202   0.41675   0.00000  Uiso   1.00
H793   H     0.96003   0.70350   0.31951   0.00000  Uiso   1.00
H794   H     0.71022   0.96300   0.18098   0.00000  Uiso   1.00
H795   H     0.95732   0.96026   0.31867   0.00000  Uiso   1.00
H796   H     0.71074   0.70640   0.18128   0.00000  Uiso   1.00
N797   N     0.78403   0.83334   0.24999   0.00000  Uiso   1.00
N798   N     0.88264   0.83332   0.25001   0.00000  Uiso   1.00
O799   O     0.70625   0.77322   0.25000   0.00000  Uiso   1.00
O800   O     0.96042   0.89345   0.25000   0.00000  Uiso   1.00
O801   O     0.96039   0.77321   0.25001   0.00000  Uiso   1.00
O802   O     0.70628   0.89346   0.24999   0.00000  Uiso   1.00
O803   O     0.68519   0.83334   0.31491   0.00000  Uiso   1.00
O804   O     0.98148   0.83332   0.18509   0.00000  Uiso   1.00
O805   O     0.93933   0.83333   0.31492   0.00000  Uiso   1.00
O806   O     0.72733   0.83333   0.18508   0.00000  Uiso   1.00
O807   O     0.79467   0.82693   0.11222   0.00000  Uiso   1.00
C808   C     0.80464   0.78374   0.10836   0.00000  Uiso   1.00
H809   H     0.82371   0.77582   0.07334   0.00000  Uiso   1.00
H810   H     0.77134   0.76465   0.12139   0.00000  Uiso   1.00
H811   H     0.82857   0.77496   0.12853   0.00000  Uiso   1.00
O812   O     0.87747   0.81028   0.38960   0.00000  Uiso   1.00
C813   C     0.87876   0.76836   0.40375   0.00000  Uiso   1.00
H814   H     0.86799   0.76507   0.44061   0.00000  Uiso   1.00
H815   H     0.91516   0.75447   0.38874   0.00000  Uiso   1.00
H816   H     0.85242   0.75040   0.39254   0.00000  Uiso   1.00
O817   O     0.96598   0.80629   0.11508   0.00000  Uiso   1.00
C818   C     0.92868   0.81831   0.09739   0.00000  Uiso   1.00
H819   H     0.93127   0.85165   0.08694   0.00000  Uiso   1.00
H820   H     0.89395   0.81469   0.12398   0.00000  Uiso   1.00
H821   H     0.92798   0.79781   0.06981   0.00000  Uiso   1.00
O822   O     0.70427   0.84641   0.38854   0.00000  Uiso   1.00
C823   C     0.71806   0.80399   0.39008   0.00000  Uiso   1.00
H824   H     0.75806   0.80214   0.38019   0.00000  Uiso   1.00
H825   H     0.70600   0.78483   0.36672   0.00000  Uiso   1.00
H826   H     0.70379   0.78978   0.42399   0.00000  Uiso   1.00
O827   O     0.86519   0.77722   0.30151   0.00000  Uiso   1.00
C828   C     0.86467   0.73396   0.29527   0.00000  Uiso   1.00
H829   H     0.88495   0.72526   0.26087   0.00000  Uiso   1.00
H830   H     0.82760   0.72125   0.30664   0.00000  Uiso   1.00
H831   H     0.88320   0.71855   0.31725   0.00000  Uiso   1.00
O832   O     0.79526   0.90327   0.22076   0.00000  Uiso   1.00
C833   C     0.80398   0.90445   0.17427   0.00000  Uiso   1.00
H834   H     0.82993   0.88049   0.15579   0.00000  Uiso   1.00
H835   H     0.81833   0.93561   0.16120   0.00000  Uiso   1.00
H836   H     0.76942   0.90127   0.16671   0.00000  Uiso   1.00
O837   O     0.78125   0.76147   0.27151   0.00000  Uiso   1.00
C838   C     0.79702   0.73865   0.23175   0.00000  Uiso   1.00
H839   H     0.83673   0.73432   0.21963   0.00000  Uiso   1.00
H840   H     0.78594   0.75413   0.20452   0.00000  Uiso   1.00
H841   H     0.78039   0.70727   0.23802   0.00000  Uiso   1.00
O842   O     0.88864   0.90351   0.22195   0.00000  Uiso   1.00
C843   C     0.91504   0.90498   0.17640   0.00000  Uiso   1.00
H844   H     0.95286   0.91388   0.17263   0.00000  Uiso   1.00
H845   H     0.89996   0.92972   0.15933   0.00000  Uiso   1.00
H846   H     0.91597   0.87524   0.15917   0.00000  Uiso   1.00
C847   C     0.00023   0.08760   0.75012   0.00000  Uiso   1.00
C848   C     0.33325   0.24572   0.74970   0.00000  Uiso   1.00
C849   C     0.18866   0.20615   0.54005   0.00000  Uiso   1.00
C850   C     0.13531   0.18185   0.95232   0.00000  Uiso   1.00
C851   C     0.23646   0.21308   0.51506   0.00000  Uiso   1.00
C852   C     0.08726   0.17719   0.97655   0.00000  Uiso   1.00
C853   C     0.31051   0.02075   0.78902   0.00000  Uiso   1.00
C854   C     0.02484   0.31248   0.71105   0.00000  Uiso   1.00
C855   C     0.30928   0.31094   0.78862   0.00000  Uiso   1.00
C856   C     0.02523   0.02236   0.71124   0.00000  Uiso   1.00
C857   C     0.33304   0.29036   0.74961   0.00000  Uiso   1.00
C858   C     0.00095   0.04294   0.75013   0.00000  Uiso   1.00
C859   C     0.18621   0.13416   0.76899   0.00000  Uiso   1.00
C860   C     0.14702   0.20034   0.73381   0.00000  Uiso   1.00
C861   C     0.13847   0.13225   0.76404   0.00000  Uiso   1.00
C862   C     0.19645   0.20002   0.73302   0.00000  Uiso   1.00
C863   C     0.30546   0.16626   0.83580   0.00000  Uiso   1.00
C864   C     0.02794   0.16496   0.66424   0.00000  Uiso   1.00
C865   C     0.28912   0.17074   0.88445   0.00000  Uiso   1.00
C866   C     0.04404   0.16399   0.61511   0.00000  Uiso   1.00
C867   C     0.30316   0.19919   0.94970   0.00000  Uiso   1.00
C868   C     0.02583   0.16164   0.54527   0.00000  Uiso   1.00
C869   C     0.32143   0.18282   0.90734   0.00000  Uiso   1.00
C870   C     0.01046   0.15702   0.59180   0.00000  Uiso   1.00
C871   C     0.23969   0.16679   0.90774   0.00000  Uiso   1.00
C872   C     0.09342   0.16955   0.59142   0.00000  Uiso   1.00
C873   C     0.22093   0.18377   0.95051   0.00000  Uiso   1.00
C874   C     0.10759   0.17837   0.54534   0.00000  Uiso   1.00
C875   C     0.25358   0.19921   0.97157   0.00000  Uiso   1.00
C876   C     0.07327   0.17307   0.52251   0.00000  Uiso   1.00
C877   C     0.17089   0.18411   0.97393   0.00000  Uiso   1.00
C878   C     0.15583   0.18885   0.52055   0.00000  Uiso   1.00
Cu879  Cu    0.04689   0.16667   0.75000   0.00000  Uiso   1.00
Cu880  Cu    0.28645   0.16666   0.75000   0.00000  Uiso   1.00
H881   H     0.26072   0.22754   0.53036   0.00000  Uiso   1.00
H882   H     0.06108   0.17526   0.95920   0.00000  Uiso   1.00
H883   H     0.32770   0.21134   0.96607   0.00000  Uiso   1.00
H884   H     0.00148   0.15504   0.52630   0.00000  Uiso   1.00
H885   H     0.17732   0.21622   0.57400   0.00000  Uiso   1.00
H886   H     0.14368   0.18536   0.91675   0.00000  Uiso   1.00
H887   H     0.29336   0.03683   0.81951   0.00000  Uiso   1.00
H888   H     0.04355   0.29633   0.68098   0.00000  Uiso   1.00
H889   H     0.29065   0.29359   0.81867   0.00000  Uiso   1.00
H890   H     0.04407   0.03973   0.68128   0.00000  Uiso   1.00
N891   N     0.11736   0.16668   0.74999   0.00000  Uiso   1.00
N892   N     0.21597   0.16666   0.75001   0.00000  Uiso   1.00
O893   O     0.03958   0.10655   0.75000   0.00000  Uiso   1.00
O894   O     0.29375   0.22678   0.75000   0.00000  Uiso   1.00
O895   O     0.29372   0.10654   0.75001   0.00000  Uiso   1.00
O896   O     0.03961   0.22679   0.74999   0.00000  Uiso   1.00
O897   O     0.01852   0.16668   0.81491   0.00000  Uiso   1.00
O898   O     0.31481   0.16666   0.68509   0.00000  Uiso   1.00
O899   O     0.27267   0.16667   0.81492   0.00000  Uiso   1.00
O900   O     0.06067   0.16667   0.68508   0.00000  Uiso   1.00
O901   O     0.12800   0.16026   0.61222   0.00000  Uiso   1.00
C902   C     0.13798   0.11707   0.60836   0.00000  Uiso   1.00
H903   H     0.15705   0.10915   0.57334   0.00000  Uiso   1.00
H904   H     0.10468   0.09798   0.62139   0.00000  Uiso   1.00
H905   H     0.16190   0.10830   0.62853   0.00000  Uiso   1.00
O906   O     0.21080   0.14361   0.88960   0.00000  Uiso   1.00
C907   C     0.21210   0.10169   0.90375   0.00000  Uiso   1.00
H908   H     0.20132   0.09840   0.94061   0.00000  Uiso   1.00
H909   H     0.24850   0.08780   0.88874   0.00000  Uiso   1.00
H910   H     0.18576   0.08374   0.89254   0.00000  Uiso   1.00
O911   O     0.29931   0.13962   0.61508   0.00000  Uiso   1.00
C912   C     0.26201   0.15164   0.59739   0.00000  Uiso   1.00
H913   H     0.26460   0.18498   0.58694   0.00000  Uiso   1.00
H914   H     0.22729   0.14802   0.62398   0.00000  Uiso   1.00
H915   H     0.26131   0.13115   0.56981   0.00000  Uiso   1.00
O916   O     0.03761   0.17974   0.88854   0.00000  Uiso   1.00
C917   C     0.05139   0.13733   0.89008   0.00000  Uiso   1.00
H918   H     0.09139   0.13547   0.88019   0.00000  Uiso   1.00
H919   H     0.03934   0.11816   0.86672   0.00000  Uiso   1.00
H920   H     0.03713   0.12311   0.92399   0.00000  Uiso   1.00
O921   O     0.19852   0.11055   0.80151   0.00000  Uiso   1.00
C922   C     0.19800   0.06729   0.79527   0.00000  Uiso   1.00
H923   H     0.21828   0.05859   0.76087   0.00000  Uiso   1.00
H924   H     0.16093   0.05459   0.80664   0.00000  Uiso   1.00
H925   H     0.21654   0.05188   0.81725   0.00000  Uiso   1.00
O926   O     0.12859   0.23660   0.72076   0.00000  Uiso   1.00
C927   C     0.13731   0.23778   0.67427   0.00000  Uiso   1.00
H928   H     0.16326   0.21383   0.65579   0.00000  Uiso   1.00
H929   H     0.15166   0.26894   0.66120   0.00000  Uiso   1.00
H930   H     0.10276   0.23460   0.66671   0.00000  Uiso   1.00
O931   O     0.11458   0.09480   0.77151   0.00000  Uiso   1.00
C932   C     0.13035   0.07198   0.73175   0.00000  Uiso   1.00
H933   H     0.17007   0.06765   0.71963   0.00000  Uiso   1.00
H934   H     0.11927   0.08747   0.70452   0.00000  Uiso   1.00
H935   H     0.11373   0.04061   0.73802   0.00000  Uiso   1.00
O936   O     0.22197   0.23684   0.72195   0.00000  Uiso   1.00
C937   C     0.24838   0.23831   0.67640   0.00000  Uiso   1.00
H938   H     0.28619   0.24722   0.67263   0.00000  Uiso   1.00
H939   H     0.23329   0.26306   0.65933   0.00000  Uiso   1.00
H940   H     0.24930   0.20857   0.65917   0.00000  Uiso   1.00
C941   C     0.33357   0.08760   0.75012   0.00000  Uiso   1.00
C942   C     0.66658   0.24572   0.74970   0.00000  Uiso   1.00
C943   C     0.52199   0.20615   0.54005   0.00000  Uiso   1.00
C944   C     0.46864   0.18185   0.95232   0.00000  Uiso   1.00
C945   C     0.56979   0.21308   0.51506   0.00000  Uiso   1.00
C946   C     0.42059   0.17719   0.97655   0.00000  Uiso   1.00
C947   C     0.64384   0.02075   0.78902   0.00000  Uiso   1.00
C948   C     0.35817   0.31248   0.71105   0.00000  Uiso   1.00
C949   C     0.64261   0.31094   0.78862   0.00000  Uiso   1.00
C950   C     0.35856   0.02236   0.71124   0.00000  Uiso   1.00
C951   C     0.66637   0.29036   0.74961   0.00000  Uiso   1.00
C952   C     0.33428   0.04294   0.75013   0.00000  Uiso   1.00
C953   C     0.51954   0.13416   0.76899   0.00000  Uiso   1.00
C954   C     0.48035   0.20034   0.73381   0.00000  Uiso   1.00
C955   C     0.47180   0.13225   0.76404   0.00000  Uiso   1.00
C956   C     0.52979   0.20002   0.73302   0.00000  Uiso   1.00
C957   C     0.63880   0.16626   0.83580   0.00000  Uiso   1.00
C958   C     0.36128   0.16496   0.66424   0.00000  Uiso   1.00
C959   C     0.62245   0.17074   0.88445   0.00000  Uiso   1.00
C960   C     0.37737   0.16399   0.61511   0.00000  Uiso   1.00
C961   C     0.63650   0.19919   0.94970   0.00000  Uiso   1.00
C962   C     0.35916   0.16164   0.54527   0.00000  Uiso   1.00
C963   C     0.65477   0.18282   0.90734   0.00000  Uiso   1.00
C964   C     0.34380   0.15702   0.59180   0.00000  Uiso   1.00
C965   C     0.57302   0.16679   0.90774   0.00000  Uiso   1.00
C966   C     0.42675   0.16955   0.59142   0.00000  Uiso   1.00
C967   C     0.55427   0.18377   0.95051   0.00000  Uiso   1.00
C968   C     0.44093   0.17837   0.54534   0.00000  Uiso   1.00
C969   C     0.58691   0.19921   0.97157   0.00000  Uiso   1.00
C970   C     0.40660   0.17307   0.52251   0.00000  Uiso   1.00
C971   C     0.50423   0.18411   0.97393   0.00000  Uiso   1.00
C972   C     0.48916   0.18885   0.52055   0.00000  Uiso   1.00
Cu973  Cu    0.38022   0.16667   0.75000   0.00000  Uiso   1.00
Cu974  Cu    0.61978   0.16666   0.75000   0.00000  Uiso   1.00
H975   H     0.59406   0.22754   0.53036   0.00000  Uiso   1.00
H976   H     0.39441   0.17526   0.95920   0.00000  Uiso   1.00
H977   H     0.66103   0.21134   0.96607   0.00000  Uiso   1.00
H978   H     0.33481   0.15504   0.52630   0.00000  Uiso   1.00
H979   H     0.51065   0.21622   0.57400   0.00000  Uiso   1.00
H980   H     0.47701   0.18536   0.91675   0.00000  Uiso   1.00
H981   H     0.62669   0.03683   0.81951   0.00000  Uiso   1.00
H982   H     0.37688   0.29633   0.68098   0.00000  Uiso   1.00
H983   H     0.62398   0.29359   0.81867   0.00000  Uiso   1.00
H984   H     0.37741   0.03973   0.68128   0.00000  Uiso   1.00
N985   N     0.45069   0.16668   0.74999   0.00000  Uiso   1.00
N986   N     0.54931   0.16666   0.75001   0.00000  Uiso   1.00
O987   O     0.37291   0.10655   0.75000   0.00000  Uiso   1.00
O988   O     0.62709   0.22678   0.75000   0.00000  Uiso   1.00
O989   O     0.62706   0.10654   0.75001   0.00000  Uiso   1.00
O990   O     0.37294   0.22679   0.74999   0.00000  Uiso   1.00
O991   O     0.35186   0.16668   0.81491   0.00000  Uiso   1.00
O992   O     0.64814   0.16666   0.68509   0.00000  Uiso   1.00
O993   O     0.60600   0.16667   0.81492   0.00000  Uiso   1.00
O994   O     0.39400   0.16667   0.68508   0.00000  Uiso   1.00
O995   O     0.46134   0.16026   0.61222   0.00000  Uiso   1.00
C996   C     0.47131   0.11707   0.60836   0.00000  Uiso   1.00
H997   H     0.49038   0.10915   0.57334   0.00000  Uiso   1.00
H998   H     0.43801   0.09798   0.62139   0.00000  Uiso   1.00
H999   H     0.49523   0.10830   0.62853   0.00000  Uiso   1.00
O1000  O     0.54414   0.14361   0.88960   0.00000  Uiso   1.00
C1001  C     0.54543   0.10169   0.90375   0.00000  Uiso   1.00
H1002  H     0.53466   0.09840   0.94061   0.00000  Uiso   1.00
H1003  H     0.58183   0.08780   0.88874   0.00000  Uiso   1.00
H1004  H     0.51909   0.08374   0.89254   0.00000  Uiso   1.00
O1005  O     0.63265   0.13962   0.61508   0.00000  Uiso   1.00
C1006  C     0.59534   0.15164   0.59739   0.00000  Uiso   1.00
H1007  H     0.59794   0.18498   0.58694   0.00000  Uiso   1.00
H1008  H     0.56062   0.14802   0.62398   0.00000  Uiso   1.00
H1009  H     0.59465   0.13115   0.56981   0.00000  Uiso   1.00
O1010  O     0.37094   0.17974   0.88854   0.00000  Uiso   1.00
C1011  C     0.38473   0.13733   0.89008   0.00000  Uiso   1.00
H1012  H     0.42473   0.13547   0.88019   0.00000  Uiso   1.00
H1013  H     0.37267   0.11816   0.86672   0.00000  Uiso   1.00
H1014  H     0.37046   0.12311   0.92399   0.00000  Uiso   1.00
O1015  O     0.53186   0.11055   0.80151   0.00000  Uiso   1.00
C1016  C     0.53133   0.06729   0.79527   0.00000  Uiso   1.00
H1017  H     0.55162   0.05859   0.76087   0.00000  Uiso   1.00
H1018  H     0.49426   0.05459   0.80664   0.00000  Uiso   1.00
H1019  H     0.54987   0.05188   0.81725   0.00000  Uiso   1.00
O1020  O     0.46193   0.23660   0.72076   0.00000  Uiso   1.00
C1021  C     0.47064   0.23778   0.67427   0.00000  Uiso   1.00
H1022  H     0.49659   0.21383   0.65579   0.00000  Uiso   1.00
H1023  H     0.48500   0.26894   0.66120   0.00000  Uiso   1.00
H1024  H     0.43609   0.23460   0.66671   0.00000  Uiso   1.00
O1025  O     0.44792   0.09480   0.77151   0.00000  Uiso   1.00
C1026  C     0.46369   0.07198   0.73175   0.00000  Uiso   1.00
H1027  H     0.50340   0.06765   0.71963   0.00000  Uiso   1.00
H1028  H     0.45260   0.08747   0.70452   0.00000  Uiso   1.00
H1029  H     0.44706   0.04061   0.73802   0.00000  Uiso   1.00
O1030  O     0.55530   0.23684   0.72195   0.00000  Uiso   1.00
C1031  C     0.58171   0.23831   0.67640   0.00000  Uiso   1.00
H1032  H     0.61952   0.24722   0.67263   0.00000  Uiso   1.00
H1033  H     0.56662   0.26306   0.65933   0.00000  Uiso   1.00
H1034  H     0.58264   0.20857   0.65917   0.00000  Uiso   1.00
C1035  C     0.66690   0.08760   0.75012   0.00000  Uiso   1.00
C1036  C     0.99992   0.24572   0.74970   0.00000  Uiso   1.00
C1037  C     0.85532   0.20615   0.54005   0.00000  Uiso   1.00
C1038  C     0.80197   0.18185   0.95232   0.00000  Uiso   1.00
C1039  C     0.90313   0.21308   0.51506   0.00000  Uiso   1.00
C1040  C     0.75392   0.17719   0.97655   0.00000  Uiso   1.00
C1041  C     0.97718   0.02075   0.78902   0.00000  Uiso   1.00
C1042  C     0.69151   0.31248   0.71105   0.00000  Uiso   1.00
C1043  C     0.97594   0.31094   0.78862   0.00000  Uiso   1.00
C1044  C     0.69190   0.02236   0.71124   0.00000  Uiso   1.00
C1045  C     0.99970   0.29036   0.74961   0.00000  Uiso   1.00
C1046  C     0.66762   0.04294   0.75013   0.00000  Uiso   1.00
C1047  C     0.85287   0.13416   0.76899   0.00000  Uiso   1.00
C1048  C     0.81368   0.20034   0.73381   0.00000  Uiso   1.00
C1049  C     0.80514   0.13225   0.76404   0.00000  Uiso   1.00
C1050  C     0.86312   0.20002   0.73302   0.00000  Uiso   1.00
C1051  C     0.97213   0.16626   0.83580   0.00000  Uiso   1.00
C1052  C     0.69461   0.16496   0.66424   0.00000  Uiso   1.00
C1053  C     0.95579   0.17074   0.88445   0.00000  Uiso   1.00
C1054  C     0.71071   0.16399   0.61511   0.00000  Uiso   1.00
C1055  C     0.96983   0.19919   0.94970   0.00000  Uiso   1.00
C1056  C     0.69249   0.16164   0.54527   0.00000  Uiso   1.00
C1057  C     0.98810   0.18282   0.90734   0.00000  Uiso   1.00
C1058  C     0.67713   0.15702   0.59180   0.00000  Uiso   1.00
C1059  C     0.90636   0.16679   0.90774   0.00000  Uiso   1.00
C1060  C     0.76009   0.16955   0.59142   0.00000  Uiso   1.00
C1061  C     0.88760   0.18377   0.95051   0.00000  Uiso   1.00
C1062  C     0.77426   0.17837   0.54534   0.00000  Uiso   1.00
C1063  C     0.92024   0.19921   0.97157   0.00000  Uiso   1.00
C1064  C     0.73994   0.17307   0.52251   0.00000  Uiso   1.00
C1065  C     0.83756   0.18411   0.97393   0.00000  Uiso   1.00
C1066  C     0.82249   0.18885   0.52055   0.00000  Uiso   1.00
Cu1067 Cu    0.71355   0.16667   0.75000   0.00000  Uiso   1.00
Cu1068 Cu    0.95311   0.16666   0.75000   0.00000  Uiso   1.00
H1069  H     0.92739   0.22754   0.53036   0.00000  Uiso   1.00
H1070  H     0.72775   0.17526   0.95920   0.00000  Uiso   1.00
H1071  H     0.99436   0.21134   0.96607   0.00000  Uiso   1.00
H1072  H     0.66815   0.15504   0.52630   0.00000  Uiso   1.00
H1073  H     0.84399   0.21622   0.57400   0.00000  Uiso   1.00
H1074  H     0.81034   0.18536   0.91675   0.00000  Uiso   1.00
H1075  H     0.96003   0.03683   0.81951   0.00000  Uiso   1.00
H1076  H     0.71022   0.29633   0.68098   0.00000  Uiso   1.00
H1077  H     0.95732   0.29359   0.81867   0.00000  Uiso   1.00
H1078  H     0.71074   0.03973   0.68128   0.00000  Uiso   1.00
N1079  N     0.78403   0.16668   0.74999   0.00000  Uiso   1.00
N1080  N     0.88264   0.16666   0.75001   0.00000  Uiso   1.00
O1081  O     0.70625   0.10655   0.75000   0.00000  Uiso   1.00
O1082  O     0.96042   0.22678   0.75000   0.00000  Uiso   1.00
O1083  O     0.96039   0.10654   0.75001   0.00000  Uiso   1.00
O1084  O     0.70628   0.22679   0.74999   0.00000  Uiso   1.00
O1085  O     0.68519   0.16668   0.81491   0.00000  Uiso   1.00
O1086  O     0.98148   0.16666   0.68509   0.00000  Uiso   1.00
O1087  O     0.93933   0.16667   0.81492   0.00000  Uiso   1.00
O1088  O     0.72733   0.16667   0.68508   0.00000  Uiso   1.00
O1089  O     0.79467   0.16026   0.61222   0.00000  Uiso   1.00
C1090  C     0.80464   0.11707   0.60836   0.00000  Uiso   1.00
H1091  H     0.82371   0.10915   0.57334   0.00000  Uiso   1.00
H1092  H     0.77134   0.09798   0.62139   0.00000  Uiso   1.00
H1093  H     0.82857   0.10830   0.62853   0.00000  Uiso   1.00
O1094  O     0.87747   0.14361   0.88960   0.00000  Uiso   1.00
C1095  C     0.87876   0.10169   0.90375   0.00000  Uiso   1.00
H1096  H     0.86799   0.09840   0.94061   0.00000  Uiso   1.00
H1097  H     0.91516   0.08780   0.88874   0.00000  Uiso   1.00
H1098  H     0.85242   0.08374   0.89254   0.00000  Uiso   1.00
O1099  O     0.96598   0.13962   0.61508   0.00000  Uiso   1.00
C1100  C     0.92868   0.15164   0.59739   0.00000  Uiso   1.00
H1101  H     0.93127   0.18498   0.58694   0.00000  Uiso   1.00
H1102  H     0.89395   0.14802   0.62398   0.00000  Uiso   1.00
H1103  H     0.92798   0.13115   0.56981   0.00000  Uiso   1.00
O1104  O     0.70427   0.17974   0.88854   0.00000  Uiso   1.00
C1105  C     0.71806   0.13733   0.89008   0.00000  Uiso   1.00
H1106  H     0.75806   0.13547   0.88019   0.00000  Uiso   1.00
H1107  H     0.70600   0.11816   0.86672   0.00000  Uiso   1.00
H1108  H     0.70379   0.12311   0.92399   0.00000  Uiso   1.00
O1109  O     0.86519   0.11055   0.80151   0.00000  Uiso   1.00
C1110  C     0.86467   0.06729   0.79527   0.00000  Uiso   1.00
H1111  H     0.88495   0.05859   0.76087   0.00000  Uiso   1.00
H1112  H     0.82760   0.05459   0.80664   0.00000  Uiso   1.00
H1113  H     0.88320   0.05188   0.81725   0.00000  Uiso   1.00
O1114  O     0.79526   0.23660   0.72076   0.00000  Uiso   1.00
C1115  C     0.80398   0.23778   0.67427   0.00000  Uiso   1.00
H1116  H     0.82993   0.21383   0.65579   0.00000  Uiso   1.00
H1117  H     0.81833   0.26894   0.66120   0.00000  Uiso   1.00
H1118  H     0.76942   0.23460   0.66671   0.00000  Uiso   1.00
O1119  O     0.78125   0.09480   0.77151   0.00000  Uiso   1.00
C1120  C     0.79702   0.07198   0.73175   0.00000  Uiso   1.00
H1121  H     0.83673   0.06765   0.71963   0.00000  Uiso   1.00
H1122  H     0.78594   0.08747   0.70452   0.00000  Uiso   1.00
H1123  H     0.78039   0.04061   0.73802   0.00000  Uiso   1.00
O1124  O     0.88864   0.23684   0.72195   0.00000  Uiso   1.00
C1125  C     0.91504   0.23831   0.67640   0.00000  Uiso   1.00
H1126  H     0.95286   0.24722   0.67263   0.00000  Uiso   1.00
H1127  H     0.89996   0.26306   0.65933   0.00000  Uiso   1.00
H1128  H     0.91597   0.20857   0.65917   0.00000  Uiso   1.00
C1129  C     0.00023   0.42094   0.75012   0.00000  Uiso   1.00
C1130  C     0.33325   0.57905   0.74970   0.00000  Uiso   1.00
C1131  C     0.18866   0.53948   0.54005   0.00000  Uiso   1.00
C1132  C     0.13531   0.51518   0.95232   0.00000  Uiso   1.00
C1133  C     0.23646   0.54641   0.51506   0.00000  Uiso   1.00
C1134  C     0.08726   0.51053   0.97655   0.00000  Uiso   1.00
C1135  C     0.31051   0.35409   0.78902   0.00000  Uiso   1.00
C1136  C     0.02484   0.64581   0.71105   0.00000  Uiso   1.00
C1137  C     0.30928   0.64427   0.78862   0.00000  Uiso   1.00
C1138  C     0.02523   0.35569   0.71124   0.00000  Uiso   1.00
C1139  C     0.33304   0.62370   0.74961   0.00000  Uiso   1.00
C1140  C     0.00095   0.37627   0.75013   0.00000  Uiso   1.00
C1141  C     0.18621   0.46750   0.76899   0.00000  Uiso   1.00
C1142  C     0.14702   0.53367   0.73381   0.00000  Uiso   1.00
C1143  C     0.13847   0.46558   0.76404   0.00000  Uiso   1.00
C1144  C     0.19645   0.53336   0.73302   0.00000  Uiso   1.00
C1145  C     0.30546   0.49960   0.83580   0.00000  Uiso   1.00
C1146  C     0.02794   0.49829   0.66424   0.00000  Uiso   1.00
C1147  C     0.28912   0.50407   0.88445   0.00000  Uiso   1.00
C1148  C     0.04404   0.49732   0.61511   0.00000  Uiso   1.00
C1149  C     0.30316   0.53252   0.94970   0.00000  Uiso   1.00
C1150  C     0.02583   0.49498   0.54527   0.00000  Uiso   1.00
C1151  C     0.32143   0.51615   0.90734   0.00000  Uiso   1.00
C1152  C     0.01046   0.49035   0.59180   0.00000  Uiso   1.00
C1153  C     0.23969   0.50012   0.90774   0.00000  Uiso   1.00
C1154  C     0.09342   0.50288   0.59142   0.00000  Uiso   1.00
C1155  C     0.22093   0.51710   0.95051   0.00000  Uiso   1.00
C1156  C     0.10759   0.51170   0.54534   0.00000  Uiso   1.00
C1157  C     0.25358   0.53254   0.97157   0.00000  Uiso   1.00
C1158  C     0.07327   0.50641   0.52251   0.00000  Uiso   1.00
C1159  C     0.17089   0.51744   0.97393   0.00000  Uiso   1.00
C1160  C     0.15583   0.52218   0.52055   0.00000  Uiso   1.00
Cu1161 Cu    0.04689   0.50001   0.75000   0.00000  Uiso   1.00
Cu1162 Cu    0.28645   0.49999   0.75000   0.00000  Uiso   1.00
H1163  H     0.26072   0.56088   0.53036   0.00000  Uiso   1.00
H1164  H     0.06108   0.50860   0.95920   0.00000  Uiso   1.00
H1165  H     0.32770   0.54468   0.96607   0.00000  Uiso   1.00
H1166  H     0.00148   0.48837   0.52630   0.00000  Uiso   1.00
H1167  H     0.17732   0.54956   0.57400   0.00000  Uiso   1.00
H1168  H     0.14368   0.51869   0.91675   0.00000  Uiso   1.00
H1169  H     0.29336   0.37017   0.81951   0.00000  Uiso   1.00
H1170  H     0.04355   0.62966   0.68098   0.00000  Uiso   1.00
H1171  H     0.29065   0.62693   0.81867   0.00000  Uiso   1.00
H1172  H     0.04407   0.37306   0.68128   0.00000  Uiso   1.00
N1173  N     0.11736   0.50001   0.74999   0.00000  Uiso   1.00
N1174  N     0.21597   0.49999   0.75001   0.00000  Uiso   1.00
O1175  O     0.03958   0.43989   0.75000   0.00000  Uiso   1.00
O1176  O     0.29375   0.56011   0.75000   0.00000  Uiso   1.00
O1177  O     0.29372   0.43988   0.75001   0.00000  Uiso   1.00
O1178  O     0.03961   0.56012   0.74999   0.00000  Uiso   1.00
O1179  O     0.01852   0.50001   0.81491   0.00000  Uiso   1.00
O1180  O     0.31481   0.49999   0.68509   0.00000  Uiso   1.00
O1181  O     0.27267   0.50000   0.81492   0.00000  Uiso   1.00
O1182  O     0.06067   0.50000   0.68508   0.00000  Uiso   1.00
O1183  O     0.12800   0.49359   0.61222   0.00000  Uiso   1.00
C1184  C     0.13798   0.45040   0.60836   0.00000  Uiso   1.00
H1185  H     0.15705   0.44248   0.57334   0.00000  Uiso   1.00
H1186  H     0.10468   0.43131   0.62139   0.00000  Uiso   1.00
H1187  H     0.16190   0.44163   0.62853   0.00000  Uiso   1.00
O1188  O     0.21080   0.47694   0.88960   0.00000  Uiso   1.00
C1189  C     0.21210   0.43502   0.90375   0.00000  Uiso   1.00
H1190  H     0.20132   0.43174   0.94061   0.00000  Uiso   1.00
H1191  H     0.24850   0.42114   0.88874   0.00000  Uiso   1.00
H1192  H     0.18576   0.41707   0.89254   0.00000  Uiso   1.00
O1193  O     0.29931   0.47295   0.61508   0.00000  Uiso   1.00
C1194  C     0.26201   0.48497   0.59739   0.00000  Uiso   1.00
H1195  H     0.26460   0.51831   0.58694   0.00000  Uiso   1.00
H1196  H     0.22729   0.48136   0.62398   0.00000  Uiso   1.00
H1197  H     0.26131   0.46448   0.56981   0.00000  Uiso   1.00
O1198  O     0.03761   0.51307   0.88854   0.00000  Uiso   1.00
C1199  C     0.05139   0.47066   0.89008   0.00000  Uiso   1.00
H1200  H     0.09139   0.46880   0.88019   0.00000  Uiso   1.00
H1201  H     0.03934   0.45149   0.86672   0.00000  Uiso   1.00
H1202  H     0.03713   0.45644   0.92399   0.00000  Uiso   1.00
O1203  O     0.19852   0.44388   0.80151   0.00000  Uiso   1.00
C1204  C     0.19800   0.40063   0.79527   0.00000  Uiso   1.00
H1205  H     0.21828   0.39193   0.76087   0.00000  Uiso   1.00
H1206  H     0.16093   0.38792   0.80664   0.00000  Uiso   1.00
H1207  H     0.21654   0.38521   0.81725   0.00000  Uiso   1.00
O1208  O     0.12859   0.56993   0.72076   0.00000  Uiso   1.00
C1209  C     0.13731   0.57112   0.67427   0.00000  Uiso   1.00
H1210  H     0.16326   0.54716   0.65579   0.00000  Uiso   1.00
H1211  H     0.15166   0.60227   0.66120   0.00000  Uiso   1.00
H1212  H     0.10276   0.56794   0.66671   0.00000  Uiso   1.00
O1213  O     0.11458   0.42813   0.77151   0.00000  Uiso   1.00
C1214  C     0.13035   0.40532   0.73175   0.00000  Uiso   1.00
H1215  H     0.17007   0.40099   0.71963   0.00000  Uiso   1.00
H1216  H     0.11927   0.42080   0.70452   0.00000  Uiso   1.00
H1217  H     0.11373   0.37394   0.73802   0.00000  Uiso   1.00
O1218  O     0.22197   0.57018   0.72195   0.00000  Uiso   1.00
C1219  C     0.24838   0.57165   0.67640   0.00000  Uiso   1.00
H1220  H     0.28619   0.58055   0.67263   0.00000  Uiso   1.00
H1221  H     0.23329   0.59639   0.65933   0.00000  Uiso   1.00
H1222  H     0.24930   0.54191   0.65917   0.00000  Uiso   1.00
C1223  C     0.33357   0.42094   0.75012   0.00000  Uiso   1.00
C1224  C     0.66658   0.57905   0.74970   0.00000  Uiso   1.00
C1225  C     0.52199   0.53948   0.54005   0.00000  Uiso   1.00
C1226  C     0.46864   0.51518   0.95232   0.00000  Uiso   1.00
C1227  C     0.56979   0.54641   0.51506   0.00000  Uiso   1.00
C1228  C     0.42059   0.51053   0.97655   0.00000  Uiso   1.00
C1229  C     0.64384   0.35409   0.78902   0.00000  Uiso   1.00
C1230  C     0.35817   0.64581   0.71105   0.00000  Uiso   1.00
C1231  C     0.64261   0.64427   0.78862   0.00000  Uiso   1.00
C1232  C     0.35856   0.35569   0.71124   0.00000  Uiso   1.00
C1233  C     0.66637   0.62370   0.74961   0.00000  Uiso   1.00
C1234  C     0.33428   0.37627   0.75013   0.00000  Uiso   1.00
C1235  C     0.51954   0.46750   0.76899   0.00000  Uiso   1.00
C1236  C     0.48035   0.53367   0.73381   0.00000  Uiso   1.00
C1237  C     0.47180   0.46558   0.76404   0.00000  Uiso   1.00
C1238  C     0.52979   0.53336   0.73302   0.00000  Uiso   1.00
C1239  C     0.63880   0.49960   0.83580   0.00000  Uiso   1.00
C1240  C     0.36128   0.49829   0.66424   0.00000  Uiso   1.00
C1241  C     0.62245   0.50407   0.88445   0.00000  Uiso   1.00
C1242  C     0.37737   0.49732   0.61511   0.00000  Uiso   1.00
C1243  C     0.63650   0.53252   0.94970   0.00000  Uiso   1.00
C1244  C     0.35916   0.49498   0.54527   0.00000  Uiso   1.00
C1245  C     0.65477   0.51615   0.90734   0.00000  Uiso   1.00
C1246  C     0.34380   0.49035   0.59180   0.00000  Uiso   1.00
C1247  C     0.57302   0.50012   0.90774   0.00000  Uiso   1.00
C1248  C     0.42675   0.50288   0.59142   0.00000  Uiso   1.00
C1249  C     0.55427   0.51710   0.95051   0.00000  Uiso   1.00
C1250  C     0.44093   0.51170   0.54534   0.00000  Uiso   1.00
C1251  C     0.58691   0.53254   0.97157   0.00000  Uiso   1.00
C1252  C     0.40660   0.50641   0.52251   0.00000  Uiso   1.00
C1253  C     0.50423   0.51744   0.97393   0.00000  Uiso   1.00
C1254  C     0.48916   0.52218   0.52055   0.00000  Uiso   1.00
Cu1255 Cu    0.38022   0.50001   0.75000   0.00000  Uiso   1.00
Cu1256 Cu    0.61978   0.49999   0.75000   0.00000  Uiso   1.00
H1257  H     0.59406   0.56088   0.53036   0.00000  Uiso   1.00
H1258  H     0.39441   0.50860   0.95920   0.00000  Uiso   1.00
H1259  H     0.66103   0.54468   0.96607   0.00000  Uiso   1.00
H1260  H     0.33481   0.48837   0.52630   0.00000  Uiso   1.00
H1261  H     0.51065   0.54956   0.57400   0.00000  Uiso   1.00
H1262  H     0.47701   0.51869   0.91675   0.00000  Uiso   1.00
H1263  H     0.62669   0.37017   0.81951   0.00000  Uiso   1.00
H1264  H     0.37688   0.62966   0.68098   0.00000  Uiso   1.00
H1265  H     0.62398   0.62693   0.81867   0.00000  Uiso   1.00
H1266  H     0.37741   0.37306   0.68128   0.00000  Uiso   1.00
N1267  N     0.45069   0.50001   0.74999   0.00000  Uiso   1.00
N1268  N     0.54931   0.49999   0.75001   0.00000  Uiso   1.00
O1269  O     0.37291   0.43989   0.75000   0.00000  Uiso   1.00
O1270  O     0.62709   0.56011   0.75000   0.00000  Uiso   1.00
O1271  O     0.62706   0.43988   0.75001   0.00000  Uiso   1.00
O1272  O     0.37294   0.56012   0.74999   0.00000  Uiso   1.00
O1273  O     0.35186   0.50001   0.81491   0.00000  Uiso   1.00
O1274  O     0.64814   0.49999   0.68509   0.00000  Uiso   1.00
O1275  O     0.60600   0.50000   0.81492   0.00000  Uiso   1.00
O1276  O     0.39400   0.50000   0.68508   0.00000  Uiso   1.00
O1277  O     0.46134   0.49359   0.61222   0.00000  Uiso   1.00
C1278  C     0.47131   0.45040   0.60836   0.00000  Uiso   1.00
H1279  H     0.49038   0.44248   0.57334   0.00000  Uiso   1.00
H1280  H     0.43801   0.43131   0.62139   0.00000  Uiso   1.00
H1281  H     0.49523   0.44163   0.62853   0.00000  Uiso   1.00
O1282  O     0.54414   0.47694   0.88960   0.00000  Uiso   1.00
C1283  C     0.54543   0.43502   0.90375   0.00000  Uiso   1.00
H1284  H     0.53466   0.43174   0.94061   0.00000  Uiso   1.00
H1285  H     0.58183   0.42114   0.88874   0.00000  Uiso   1.00
H1286  H     0.51909   0.41707   0.89254   0.00000  Uiso   1.00
O1287  O     0.63265   0.47295   0.61508   0.00000  Uiso   1.00
C1288  C     0.59534   0.48497   0.59739   0.00000  Uiso   1.00
H1289  H     0.59794   0.51831   0.58694   0.00000  Uiso   1.00
H1290  H     0.56062   0.48136   0.62398   0.00000  Uiso   1.00
H1291  H     0.59465   0.46448   0.56981   0.00000  Uiso   1.00
O1292  O     0.37094   0.51307   0.88854   0.00000  Uiso   1.00
C1293  C     0.38473   0.47066   0.89008   0.00000  Uiso   1.00
H1294  H     0.42473   0.46880   0.88019   0.00000  Uiso   1.00
H1295  H     0.37267   0.45149   0.86672   0.00000  Uiso   1.00
H1296  H     0.37046   0.45644   0.92399   0.00000  Uiso   1.00
O1297  O     0.53186   0.44388   0.80151   0.00000  Uiso   1.00
C1298  C     0.53133   0.40063   0.79527   0.00000  Uiso   1.00
H1299  H     0.55162   0.39193   0.76087   0.00000  Uiso   1.00
H1300  H     0.49426   0.38792   0.80664   0.00000  Uiso   1.00
H1301  H     0.54987   0.38521   0.81725   0.00000  Uiso   1.00
O1302  O     0.46193   0.56993   0.72076   0.00000  Uiso   1.00
C1303  C     0.47064   0.57112   0.67427   0.00000  Uiso   1.00
H1304  H     0.49659   0.54716   0.65579   0.00000  Uiso   1.00
H1305  H     0.48500   0.60227   0.66120   0.00000  Uiso   1.00
H1306  H     0.43609   0.56794   0.66671   0.00000  Uiso   1.00
O1307  O     0.44792   0.42813   0.77151   0.00000  Uiso   1.00
C1308  C     0.46369   0.40532   0.73175   0.00000  Uiso   1.00
H1309  H     0.50340   0.40099   0.71963   0.00000  Uiso   1.00
H1310  H     0.45260   0.42080   0.70452   0.00000  Uiso   1.00
H1311  H     0.44706   0.37394   0.73802   0.00000  Uiso   1.00
O1312  O     0.55530   0.57018   0.72195   0.00000  Uiso   1.00
C1313  C     0.58171   0.57165   0.67640   0.00000  Uiso   1.00
H1314  H     0.61952   0.58055   0.67263   0.00000  Uiso   1.00
H1315  H     0.56662   0.59639   0.65933   0.00000  Uiso   1.00
H1316  H     0.58264   0.54191   0.65917   0.00000  Uiso   1.00
C1317  C     0.66690   0.42094   0.75012   0.00000  Uiso   1.00
C1318  C     0.99992   0.57905   0.74970   0.00000  Uiso   1.00
C1319  C     0.85532   0.53948   0.54005   0.00000  Uiso   1.00
C1320  C     0.80197   0.51518   0.95232   0.00000  Uiso   1.00
C1321  C     0.90313   0.54641   0.51506   0.00000  Uiso   1.00
C1322  C     0.75392   0.51053   0.97655   0.00000  Uiso   1.00
C1323  C     0.97718   0.35409   0.78902   0.00000  Uiso   1.00
C1324  C     0.69151   0.64581   0.71105   0.00000  Uiso   1.00
C1325  C     0.97594   0.64427   0.78862   0.00000  Uiso   1.00
C1326  C     0.69190   0.35569   0.71124   0.00000  Uiso   1.00
C1327  C     0.99970   0.62370   0.74961   0.00000  Uiso   1.00
C1328  C     0.66762   0.37627   0.75013   0.00000  Uiso   1.00
C1329  C     0.85287   0.46750   0.76899   0.00000  Uiso   1.00
C1330  C     0.81368   0.53367   0.73381   0.00000  Uiso   1.00
C1331  C     0.80514   0.46558   0.76404   0.00000  Uiso   1.00
C1332  C     0.86312   0.53336   0.73302   0.00000  Uiso   1.00
C1333  C     0.97213   0.49960   0.83580   0.00000  Uiso   1.00
C1334  C     0.69461   0.49829   0.66424   0.00000  Uiso   1.00
C1335  C     0.95579   0.50407   0.88445   0.00000  Uiso   1.00
C1336  C     0.71071   0.49732   0.61511   0.00000  Uiso   1.00
C1337  C     0.96983   0.53252   0.94970   0.00000  Uiso   1.00
C1338  C     0.69249   0.49498   0.54527   0.00000  Uiso   1.00
C1339  C     0.98810   0.51615   0.90734   0.00000  Uiso   1.00
C1340  C     0.67713   0.49035   0.59180   0.00000  Uiso   1.00
C1341  C     0.90636   0.50012   0.90774   0.00000  Uiso   1.00
C1342  C     0.76009   0.50288   0.59142   0.00000  Uiso   1.00
C1343  C     0.88760   0.51710   0.95051   0.00000  Uiso   1.00
C1344  C     0.77426   0.51170   0.54534   0.00000  Uiso   1.00
C1345  C     0.92024   0.53254   0.97157   0.00000  Uiso   1.00
C1346  C     0.73994   0.50641   0.52251   0.00000  Uiso   1.00
C1347  C     0.83756   0.51744   0.97393   0.00000  Uiso   1.00
C1348  C     0.82249   0.52218   0.52055   0.00000  Uiso   1.00
Cu1349 Cu    0.71355   0.50001   0.75000   0.00000  Uiso   1.00
Cu1350 Cu    0.95311   0.49999   0.75000   0.00000  Uiso   1.00
H1351  H     0.92739   0.56088   0.53036   0.00000  Uiso   1.00
H1352  H     0.72775   0.50860   0.95920   0.00000  Uiso   1.00
H1353  H     0.99436   0.54468   0.96607   0.00000  Uiso   1.00
H1354  H     0.66815   0.48837   0.52630   0.00000  Uiso   1.00
H1355  H     0.84399   0.54956   0.57400   0.00000  Uiso   1.00
H1356  H     0.81034   0.51869   0.91675   0.00000  Uiso   1.00
H1357  H     0.96003   0.37017   0.81951   0.00000  Uiso   1.00
H1358  H     0.71022   0.62966   0.68098   0.00000  Uiso   1.00
H1359  H     0.95732   0.62693   0.81867   0.00000  Uiso   1.00
H1360  H     0.71074   0.37306   0.68128   0.00000  Uiso   1.00
N1361  N     0.78403   0.50001   0.74999   0.00000  Uiso   1.00
N1362  N     0.88264   0.49999   0.75001   0.00000  Uiso   1.00
O1363  O     0.70625   0.43989   0.75000   0.00000  Uiso   1.00
O1364  O     0.96042   0.56011   0.75000   0.00000  Uiso   1.00
O1365  O     0.96039   0.43988   0.75001   0.00000  Uiso   1.00
O1366  O     0.70628   0.56012   0.74999   0.00000  Uiso   1.00
O1367  O     0.68519   0.50001   0.81491   0.00000  Uiso   1.00
O1368  O     0.98148   0.49999   0.68509   0.00000  Uiso   1.00
O1369  O     0.93933   0.50000   0.81492   0.00000  Uiso   1.00
O1370  O     0.72733   0.50000   0.68508   0.00000  Uiso   1.00
O1371  O     0.79467   0.49359   0.61222   0.00000  Uiso   1.00
C1372  C     0.80464   0.45040   0.60836   0.00000  Uiso   1.00
H1373  H     0.82371   0.44248   0.57334   0.00000  Uiso   1.00
H1374  H     0.77134   0.43131   0.62139   0.00000  Uiso   1.00
H1375  H     0.82857   0.44163   0.62853   0.00000  Uiso   1.00
O1376  O     0.87747   0.47694   0.88960   0.00000  Uiso   1.00
C1377  C     0.87876   0.43502   0.90375   0.00000  Uiso   1.00
H1378  H     0.86799   0.43174   0.94061   0.00000  Uiso   1.00
H1379  H     0.91516   0.42114   0.88874   0.00000  Uiso   1.00
H1380  H     0.85242   0.41707   0.89254   0.00000  Uiso   1.00
O1381  O     0.96598   0.47295   0.61508   0.00000  Uiso   1.00
C1382  C     0.92868   0.48497   0.59739   0.00000  Uiso   1.00
H1383  H     0.93127   0.51831   0.58694   0.00000  Uiso   1.00
H1384  H     0.89395   0.48136   0.62398   0.00000  Uiso   1.00
H1385  H     0.92798   0.46448   0.56981   0.00000  Uiso   1.00
O1386  O     0.70427   0.51307   0.88854   0.00000  Uiso   1.00
C1387  C     0.71806   0.47066   0.89008   0.00000  Uiso   1.00
H1388  H     0.75806   0.46880   0.88019   0.00000  Uiso   1.00
H1389  H     0.70600   0.45149   0.86672   0.00000  Uiso   1.00
H1390  H     0.70379   0.45644   0.92399   0.00000  Uiso   1.00
O1391  O     0.86519   0.44388   0.80151   0.00000  Uiso   1.00
C1392  C     0.86467   0.40063   0.79527   0.00000  Uiso   1.00
H1393  H     0.88495   0.39193   0.76087   0.00000  Uiso   1.00
H1394  H     0.82760   0.38792   0.80664   0.00000  Uiso   1.00
H1395  H     0.88320   0.38521   0.81725   0.00000  Uiso   1.00
O1396  O     0.79526   0.56993   0.72076   0.00000  Uiso   1.00
C1397  C     0.80398   0.57112   0.67427   0.00000  Uiso   1.00
H1398  H     0.82993   0.54716   0.65579   0.00000  Uiso   1.00
H1399  H     0.81833   0.60227   0.66120   0.00000  Uiso   1.00
H1400  H     0.76942   0.56794   0.66671   0.00000  Uiso   1.00
O1401  O     0.78125   0.42813   0.77151   0.00000  Uiso   1.00
C1402  C     0.79702   0.40532   0.73175   0.00000  Uiso   1.00
H1403  H     0.83673   0.40099   0.71963   0.00000  Uiso   1.00
H1404  H     0.78594   0.42080   0.70452   0.00000  Uiso   1.00
H1405  H     0.78039   0.37394   0.73802   0.00000  Uiso   1.00
O1406  O     0.88864   0.57018   0.72195   0.00000  Uiso   1.00
C1407  C     0.91504   0.57165   0.67640   0.00000  Uiso   1.00
H1408  H     0.95286   0.58055   0.67263   0.00000  Uiso   1.00
H1409  H     0.89996   0.59639   0.65933   0.00000  Uiso   1.00
H1410  H     0.91597   0.54191   0.65917   0.00000  Uiso   1.00
C1411  C     0.00023   0.75427   0.75012   0.00000  Uiso   1.00
C1412  C     0.33325   0.91239   0.74970   0.00000  Uiso   1.00
C1413  C     0.18866   0.87282   0.54005   0.00000  Uiso   1.00
C1414  C     0.13531   0.84852   0.95232   0.00000  Uiso   1.00
C1415  C     0.23646   0.87974   0.51506   0.00000  Uiso   1.00
C1416  C     0.08726   0.84386   0.97655   0.00000  Uiso   1.00
C1417  C     0.31051   0.68742   0.78902   0.00000  Uiso   1.00
C1418  C     0.02484   0.97914   0.71105   0.00000  Uiso   1.00
C1419  C     0.30928   0.97760   0.78862   0.00000  Uiso   1.00
C1420  C     0.02523   0.68903   0.71124   0.00000  Uiso   1.00
C1421  C     0.33304   0.95703   0.74961   0.00000  Uiso   1.00
C1422  C     0.00095   0.70960   0.75013   0.00000  Uiso   1.00
C1423  C     0.18621   0.80083   0.76899   0.00000  Uiso   1.00
C1424  C     0.14702   0.86700   0.73381   0.00000  Uiso   1.00
C1425  C     0.13847   0.79892   0.76404   0.00000  Uiso   1.00
C1426  C     0.19645   0.86669   0.73302   0.00000  Uiso   1.00
C1427  C     0.30546   0.83293   0.83580   0.00000  Uiso   1.00
C1428  C     0.02794   0.83163   0.66424   0.00000  Uiso   1.00
C1429  C     0.28912   0.83740   0.88445   0.00000  Uiso   1.00
C1430  C     0.04404   0.83066   0.61511   0.00000  Uiso   1.00
C1431  C     0.30316   0.86586   0.94970   0.00000  Uiso   1.00
C1432  C     0.02583   0.82831   0.54527   0.00000  Uiso   1.00
C1433  C     0.32143   0.84948   0.90734   0.00000  Uiso   1.00
C1434  C     0.01046   0.82369   0.59180   0.00000  Uiso   1.00
C1435  C     0.23969   0.83346   0.90774   0.00000  Uiso   1.00
C1436  C     0.09342   0.83621   0.59142   0.00000  Uiso   1.00
C1437  C     0.22093   0.85043   0.95051   0.00000  Uiso   1.00
C1438  C     0.10759   0.84503   0.54534   0.00000  Uiso   1.00
C1439  C     0.25358   0.86587   0.97157   0.00000  Uiso   1.00
C1440  C     0.07327   0.83974   0.52251   0.00000  Uiso   1.00
C1441  C     0.17089   0.85077   0.97393   0.00000  Uiso   1.00
C1442  C     0.15583   0.85551   0.52055   0.00000  Uiso   1.00
Cu1443 Cu    0.04689   0.83334   0.75000   0.00000  Uiso   1.00
Cu1444 Cu    0.28645   0.83333   0.75000   0.00000  Uiso   1.00
H1445  H     0.26072   0.89421   0.53036   0.00000  Uiso   1.00
H1446  H     0.06108   0.84193   0.95920   0.00000  Uiso   1.00
H1447  H     0.32770   0.87801   0.96607   0.00000  Uiso   1.00
H1448  H     0.00148   0.82170   0.52630   0.00000  Uiso   1.00
H1449  H     0.17732   0.88289   0.57400   0.00000  Uiso   1.00
H1450  H     0.14368   0.85202   0.91675   0.00000  Uiso   1.00
H1451  H     0.29336   0.70350   0.81951   0.00000  Uiso   1.00
H1452  H     0.04355   0.96300   0.68098   0.00000  Uiso   1.00
H1453  H     0.29065   0.96026   0.81867   0.00000  Uiso   1.00
H1454  H     0.04407   0.70640   0.68128   0.00000  Uiso   1.00
N1455  N     0.11736   0.83334   0.74999   0.00000  Uiso   1.00
N1456  N     0.21597   0.83332   0.75001   0.00000  Uiso   1.00
O1457  O     0.03958   0.77322   0.75000   0.00000  Uiso   1.00
O1458  O     0.29375   0.89345   0.75000   0.00000  Uiso   1.00
O1459  O     0.29372   0.77321   0.75001   0.00000  Uiso   1.00
O1460  O     0.03961   0.89346   0.74999   0.00000  Uiso   1.00
O1461  O     0.01852   0.83334   0.81491   0.00000  Uiso   1.00
O1462  O     0.31481   0.83332   0.68509   0.00000  Uiso   1.00
O1463  O     0.27267   0.83333   0.81492   0.00000  Uiso   1.00
O1464  O     0.06067   0.83333   0.68508   0.00000  Uiso   1.00
O1465  O     0.12800   0.82693   0.61222   0.00000  Uiso   1.00
C1466  C     0.13798   0.78374   0.60836   0.00000  Uiso   1.00
H1467  H     0.15705   0.77582   0.57334   0.00000  Uiso   1.00
H1468  H     0.10468   0.76465   0.62139   0.00000  Uiso   1.00
H1469  H     0.16190   0.77496   0.62853   0.00000  Uiso   1.00
O1470  O     0.21080   0.81028   0.88960   0.00000  Uiso   1.00
C1471  C     0.21210   0.76836   0.90375   0.00000  Uiso   1.00
H1472  H     0.20132   0.76507   0.94061   0.00000  Uiso   1.00
H1473  H     0.24850   0.75447   0.88874   0.00000  Uiso   1.00
H1474  H     0.18576   0.75040   0.89254   0.00000  Uiso   1.00
O1475  O     0.29931   0.80629   0.61508   0.00000  Uiso   1.00
C1476  C     0.26201   0.81831   0.59739   0.00000  Uiso   1.00
H1477  H     0.26460   0.85165   0.58694   0.00000  Uiso   1.00
H1478  H     0.22729   0.81469   0.62398   0.00000  Uiso   1.00
H1479  H     0.26131   0.79781   0.56981   0.00000  Uiso   1.00
O1480  O     0.03761   0.84641   0.88854   0.00000  Uiso   1.00
C1481  C     0.05139   0.80399   0.89008   0.00000  Uiso   1.00
H1482  H     0.09139   0.80214   0.88019   0.00000  Uiso   1.00
H1483  H     0.03934   0.78483   0.86672   0.00000  Uiso   1.00
H1484  H     0.03713   0.78978   0.92399   0.00000  Uiso   1.00
O1485  O     0.19852   0.77722   0.80151   0.00000  Uiso   1.00
C1486  C     0.19800   0.73396   0.79527   0.00000  Uiso   1.00
H1487  H     0.21828   0.72526   0.76087   0.00000  Uiso   1.00
H1488  H     0.16093   0.72125   0.80664   0.00000  Uiso   1.00
H1489  H     0.21654   0.71855   0.81725   0.00000  Uiso   1.00
O1490  O     0.12859   0.90327   0.72076   0.00000  Uiso   1.00
C1491  C     0.13731   0.90445   0.67427   0.00000  Uiso   1.00
H1492  H     0.16326   0.88049   0.65579   0.00000  Uiso   1.00
H1493  H     0.15166   0.93561   0.66120   0.00000  Uiso   1.00
H1494  H     0.10276   0.90127   0.66671   0.00000  Uiso   1.00
O1495  O     0.11458   0.76147   0.77151   0.00000  Uiso   1.00
C1496  C     0.13035   0.73865   0.73175   0.00000  Uiso   1.00
H1497  H     0.17007   0.73432   0.71963   0.00000  Uiso   1.00
H1498  H     0.11927   0.75413   0.70452   0.00000  Uiso   1.00
H1499  H     0.11373   0.70727   0.73802   0.00000  Uiso   1.00
O1500  O     0.22197   0.90351   0.72195   0.00000  Uiso   1.00
C1501  C     0.24838   0.90498   0.67640   0.00000  Uiso   1.00
H1502  H     0.28619   0.91388   0.67263   0.00000  Uiso   1.00
H1503  H     0.23329   0.92972   0.65933   0.00000  Uiso   1.00
H1504  H     0.24930   0.87524   0.65917   0.00000  Uiso   1.00
C1505  C     0.33357   0.75427   0.75012   0.00000  Uiso   1.00
C1506  C     0.66658   0.91239   0.74970   0.00000  Uiso   1.00
C1507  C     0.52199   0.87282   0.54005   0.00000  Uiso   1.00
C1508  C     0.46864   0.84852   0.95232   0.00000  Uiso   1.00
C1509  C     0.56979   0.87974   0.51506   0.00000  Uiso   1.00
C1510  C     0.42059   0.84386   0.97655   0.00000  Uiso   1.00
C1511  C     0.64384   0.68742   0.78902   0.00000  Uiso   1.00
C1512  C     0.35817   0.97914   0.71105   0.00000  Uiso   1.00
C1513  C     0.64261   0.97760   0.78862   0.00000  Uiso   1.00
C1514  C     0.35856   0.68903   0.71124   0.00000  Uiso   1.00
C1515  C     0.66637   0.95703   0.74961   0.00000  Uiso   1.00
C1516  C     0.33428   0.70960   0.75013   0.00000  Uiso   1.00
C1517  C     0.51954   0.80083   0.76899   0.00000  Uiso   1.00
C1518  C     0.48035   0.86700   0.73381   0.00000  Uiso   1.00
C1519  C     0.47180   0.79892   0.76404   0.00000  Uiso   1.00
C1520  C     0.52979   0.86669   0.73302   0.00000  Uiso   1.00
C1521  C     0.63880   0.83293   0.83580   0.00000  Uiso   1.00
C1522  C     0.36128   0.83163   0.66424   0.00000  Uiso   1.00
C1523  C     0.62245   0.83740   0.88445   0.00000  Uiso   1.00
C1524  C     0.37737   0.83066   0.61511   0.00000  Uiso   1.00
C1525  C     0.63650   0.86586   0.94970   0.00000  Uiso   1.00
C1526  C     0.35916   0.82831   0.54527   0.00000  Uiso   1.00
C1527  C     0.65477   0.84948   0.90734   0.00000  Uiso   1.00
C1528  C     0.34380   0.82369   0.59180   0.00000  Uiso   1.00
C1529  C     0.57302   0.83346   0.90774   0.00000  Uiso   1.00
C1530  C     0.42675   0.83621   0.59142   0.00000  Uiso   1.00
C1531  C     0.55427   0.85043   0.95051   0.00000  Uiso   1.00
C1532  C     0.44093   0.84503   0.54534   0.00000  Uiso   1.00
C1533  C     0.58691   0.86587   0.97157   0.00000  Uiso   1.00
C1534  C     0.40660   0.83974   0.52251   0.00000  Uiso   1.00
C1535  C     0.50423   0.85077   0.97393   0.00000  Uiso   1.00
C1536  C     0.48916   0.85551   0.52055   0.00000  Uiso   1.00
Cu1537 Cu    0.38022   0.83334   0.75000   0.00000  Uiso   1.00
Cu1538 Cu    0.61978   0.83333   0.75000   0.00000  Uiso   1.00
H1539  H     0.59406   0.89421   0.53036   0.00000  Uiso   1.00
H1540  H     0.39441   0.84193   0.95920   0.00000  Uiso   1.00
H1541  H     0.66103   0.87801   0.96607   0.00000  Uiso   1.00
H1542  H     0.33481   0.82170   0.52630   0.00000  Uiso   1.00
H1543  H     0.51065   0.88289   0.57400   0.00000  Uiso   1.00
H1544  H     0.47701   0.85202   0.91675   0.00000  Uiso   1.00
H1545  H     0.62669   0.70350   0.81951   0.00000  Uiso   1.00
H1546  H     0.37688   0.96300   0.68098   0.00000  Uiso   1.00
H1547  H     0.62398   0.96026   0.81867   0.00000  Uiso   1.00
H1548  H     0.37741   0.70640   0.68128   0.00000  Uiso   1.00
N1549  N     0.45069   0.83334   0.74999   0.00000  Uiso   1.00
N1550  N     0.54931   0.83332   0.75001   0.00000  Uiso   1.00
O1551  O     0.37291   0.77322   0.75000   0.00000  Uiso   1.00
O1552  O     0.62709   0.89345   0.75000   0.00000  Uiso   1.00
O1553  O     0.62706   0.77321   0.75001   0.00000  Uiso   1.00
O1554  O     0.37294   0.89346   0.74999   0.00000  Uiso   1.00
O1555  O     0.35186   0.83334   0.81491   0.00000  Uiso   1.00
O1556  O     0.64814   0.83332   0.68509   0.00000  Uiso   1.00
O1557  O     0.60600   0.83333   0.81492   0.00000  Uiso   1.00
O1558  O     0.39400   0.83333   0.68508   0.00000  Uiso   1.00
O1559  O     0.46134   0.82693   0.61222   0.00000  Uiso   1.00
C1560  C     0.47131   0.78374   0.60836   0.00000  Uiso   1.00
H1561  H     0.49038   0.77582   0.57334   0.00000  Uiso   1.00
H1562  H     0.43801   0.76465   0.62139   0.00000  Uiso   1.00
H1563  H     0.49523   0.77496   0.62853   0.00000  Uiso   1.00
O1564  O     0.54414   0.81028   0.88960   0.00000  Uiso   1.00
C1565  C     0.54543   0.76836   0.90375   0.00000  Uiso   1.00
H1566  H     0.53466   0.76507   0.94061   0.00000  Uiso   1.00
H1567  H     0.58183   0.75447   0.88874   0.00000  Uiso   1.00
H1568  H     0.51909   0.75040   0.89254   0.00000  Uiso   1.00
O1569  O     0.63265   0.80629   0.61508   0.00000  Uiso   1.00
C1570  C     0.59534   0.81831   0.59739   0.00000  Uiso   1.00
H1571  H     0.59794   0.85165   0.58694   0.00000  Uiso   1.00
H1572  H     0.56062   0.81469   0.62398   0.00000  Uiso   1.00
H1573  H     0.59465   0.79781   0.56981   0.00000  Uiso   1.00
O1574  O     0.37094   0.84641   0.88854   0.00000  Uiso   1.00
C1575  C     0.38473   0.80399   0.89008   0.00000  Uiso   1.00
H1576  H     0.42473   0.80214   0.88019   0.00000  Uiso   1.00
H1577  H     0.37267   0.78483   0.86672   0.00000  Uiso   1.00
H1578  H     0.37046   0.78978   0.92399   0.00000  Uiso   1.00
O1579  O     0.53186   0.77722   0.80151   0.00000  Uiso   1.00
C1580  C     0.53133   0.73396   0.79527   0.00000  Uiso   1.00
H1581  H     0.55162   0.72526   0.76087   0.00000  Uiso   1.00
H1582  H     0.49426   0.72125   0.80664   0.00000  Uiso   1.00
H1583  H     0.54987   0.71855   0.81725   0.00000  Uiso   1.00
O1584  O     0.46193   0.90327   0.72076   0.00000  Uiso   1.00
C1585  C     0.47064   0.90445   0.67427   0.00000  Uiso   1.00
H1586  H     0.49659   0.88049   0.65579   0.00000  Uiso   1.00
H1587  H     0.48500   0.93561   0.66120   0.00000  Uiso   1.00
H1588  H     0.43609   0.90127   0.66671   0.00000  Uiso   1.00
O1589  O     0.44792   0.76147   0.77151   0.00000  Uiso   1.00
C1590  C     0.46369   0.73865   0.73175   0.00000  Uiso   1.00
H1591  H     0.50340   0.73432   0.71963   0.00000  Uiso   1.00
H1592  H     0.45260   0.75413   0.70452   0.00000  Uiso   1.00
H1593  H     0.44706   0.70727   0.73802   0.00000  Uiso   1.00
O1594  O     0.55530   0.90351   0.72195   0.00000  Uiso   1.00
C1595  C     0.58171   0.90498   0.67640   0.00000  Uiso   1.00
H1596  H     0.61952   0.91388   0.67263   0.00000  Uiso   1.00
H1597  H     0.56662   0.92972   0.65933   0.00000  Uiso   1.00
H1598  H     0.58264   0.87524   0.65917   0.00000  Uiso   1.00
C1599  C     0.66690   0.75427   0.75012   0.00000  Uiso   1.00
C1600  C     0.99992   0.91239   0.74970   0.00000  Uiso   1.00
C1601  C     0.85532   0.87282   0.54005   0.00000  Uiso   1.00
C1602  C     0.80197   0.84852   0.95232   0.00000  Uiso   1.00
C1603  C     0.90313   0.87974   0.51506   0.00000  Uiso   1.00
C1604  C     0.75392   0.84386   0.97655   0.00000  Uiso   1.00
C1605  C     0.97718   0.68742   0.78902   0.00000  Uiso   1.00
C1606  C     0.69151   0.97914   0.71105   0.00000  Uiso   1.00
C1607  C     0.97594   0.97760   0.78862   0.00000  Uiso   1.00
C1608  C     0.69190   0.68903   0.71124   0.00000  Uiso   1.00
C1609  C     0.99970   0.95703   0.74961   0.00000  Uiso   1.00
C1610  C     0.66762   0.70960   0.75013   0.00000  Uiso   1.00
C1611  C     0.85287   0.80083   0.76899   0.00000  Uiso   1.00
C1612  C     0.81368   0.86700   0.73381   0.00000  Uiso   1.00
C1613  C     0.80514   0.79892   0.76404   0.00000  Uiso   1.00
C1614  C     0.86312   0.86669   0.73302   0.00000  Uiso   1.00
C1615  C     0.97213   0.83293   0.83580   0.00000  Uiso   1.00
C1616  C     0.69461   0.83163   0.66424   0.00000  Uiso   1.00
C1617  C     0.95579   0.83740   0.88445   0.00000  Uiso   1.00
C1618  C     0.71071   0.83066   0.61511   0.00000  Uiso   1.00
C1619  C     0.96983   0.86586   0.94970   0.00000  Uiso   1.00
C1620  C     0.69249   0.82831   0.54527   0.00000  Uiso   1.00
C1621  C     0.98810   0.84948   0.90734   0.00000  Uiso   1.00
C1622  C     0.67713   0.82369   0.59180   0.00000  Uiso   1.00
C1623  C     0.90636   0.83346   0.90774   0.00000  Uiso   1.00
C1624  C     0.76009   0.83621   0.59142   0.00000  Uiso   1.00
C1625  C     0.88760   0.85043   0.95051   0.00000  Uiso   1.00
C1626  C     0.77426   0.84503   0.54534   0.00000  Uiso   1.00
C1627  C     0.92024   0.86587   0.97157   0.00000  Uiso   1.00
C1628  C     0.73994   0.83974   0.52251   0.00000  Uiso   1.00
C1629  C     0.83756   0.85077   0.97393   0.00000  Uiso   1.00
C1630  C     0.82249   0.85551   0.52055   0.00000  Uiso   1.00
Cu1631 Cu    0.71355   0.83334   0.75000   0.00000  Uiso   1.00
Cu1632 Cu    0.95311   0.83333   0.75000   0.00000  Uiso   1.00
H1633  H     0.92739   0.89421   0.53036   0.00000  Uiso   1.00
H1634  H     0.72775   0.84193   0.95920   0.00000  Uiso   1.00
H1635  H     0.99436   0.87801   0.96607   0.00000  Uiso   1.00
H1636  H     0.66815   0.82170   0.52630   0.00000  Uiso   1.00
H1637  H     0.84399   0.88289   0.57400   0.00000  Uiso   1.00
H1638  H     0.81034   0.85202   0.91675   0.00000  Uiso   1.00
H1639  H     0.96003   0.70350   0.81951   0.00000  Uiso   1.00
H1640  H     0.71022   0.96300   0.68098   0.00000  Uiso   1.00
H1641  H     0.95732   0.96026   0.81867   0.00000  Uiso   1.00
H1642  H     0.71074   0.70640   0.68128   0.00000  Uiso   1.00
N1643  N     0.78403   0.83334   0.74999   0.00000  Uiso   1.00
N1644  N     0.88264   0.83332   0.75001   0.00000  Uiso   1.00
O1645  O     0.70625   0.77322   0.75000   0.00000  Uiso   1.00
O1646  O     0.96042   0.89345   0.75000   0.00000  Uiso   1.00
O1647  O     0.96039   0.77321   0.75001   0.00000  Uiso   1.00
O1648  O     0.70628   0.89346   0.74999   0.00000  Uiso   1.00
O1649  O     0.68519   0.83334   0.81491   0.00000  Uiso   1.00
O1650  O     0.98148   0.83332   0.68509   0.00000  Uiso   1.00
O1651  O     0.93933   0.83333   0.81492   0.00000  Uiso   1.00
O1652  O     0.72733   0.83333   0.68508   0.00000  Uiso   1.00
O1653  O     0.79467   0.82693   0.61222   0.00000  Uiso   1.00
C1654  C     0.80464   0.78374   0.60836   0.00000  Uiso   1.00
H1655  H     0.82371   0.77582   0.57334   0.00000  Uiso   1.00
H1656  H     0.77134   0.76465   0.62139   0.00000  Uiso   1.00
H1657  H     0.82857   0.77496   0.62853   0.00000  Uiso   1.00
O1658  O     0.87747   0.81028   0.88960   0.00000  Uiso   1.00
C1659  C     0.87876   0.76836   0.90375   0.00000  Uiso   1.00
H1660  H     0.86799   0.76507   0.94061   0.00000  Uiso   1.00
H1661  H     0.91516   0.75447   0.88874   0.00000  Uiso   1.00
H1662  H     0.85242   0.75040   0.89254   0.00000  Uiso   1.00
O1663  O     0.96598   0.80629   0.61508   0.00000  Uiso   1.00
C1664  C     0.92868   0.81831   0.59739   0.00000  Uiso   1.00
H1665  H     0.93127   0.85165   0.58694   0.00000  Uiso   1.00
H1666  H     0.89395   0.81469   0.62398   0.00000  Uiso   1.00
H1667  H     0.92798   0.79781   0.56981   0.00000  Uiso   1.00
O1668  O     0.70427   0.84641   0.88854   0.00000  Uiso   1.00
C1669  C     0.71806   0.80399   0.89008   0.00000  Uiso   1.00
H1670  H     0.75806   0.80214   0.88019   0.00000  Uiso   1.00
H1671  H     0.70600   0.78483   0.86672   0.00000  Uiso   1.00
H1672  H     0.70379   0.78978   0.92399   0.00000  Uiso   1.00
O1673  O     0.86519   0.77722   0.80151   0.00000  Uiso   1.00
C1674  C     0.86467   0.73396   0.79527   0.00000  Uiso   1.00
H1675  H     0.88495   0.72526   0.76087   0.00000  Uiso   1.00
H1676  H     0.82760   0.72125   0.80664   0.00000  Uiso   1.00
H1677  H     0.88320   0.71855   0.81725   0.00000  Uiso   1.00
O1678  O     0.79526   0.90327   0.72076   0.00000  Uiso   1.00
C1679  C     0.80398   0.90445   0.67427   0.00000  Uiso   1.00
H1680  H     0.82993   0.88049   0.65579   0.00000  Uiso   1.00
H1681  H     0.81833   0.93561   0.66120   0.00000  Uiso   1.00
H1682  H     0.76942   0.90127   0.66671   0.00000  Uiso   1.00
O1683  O     0.78125   0.76147   0.77151   0.00000  Uiso   1.00
C1684  C     0.79702   0.73865   0.73175   0.00000  Uiso   1.00
H1685  H     0.83673   0.73432   0.71963   0.00000  Uiso   1.00
H1686  H     0.78594   0.75413   0.70452   0.00000  Uiso   1.00
H1687  H     0.78039   0.70727   0.73802   0.00000  Uiso   1.00
O1688  O     0.88864   0.90351   0.72195   0.00000  Uiso   1.00
C1689  C     0.91504   0.90498   0.67640   0.00000  Uiso   1.00
H1690  H     0.95286   0.91388   0.67263   0.00000  Uiso   1.00
H1691  H     0.89996   0.92972   0.65933   0.00000  Uiso   1.00
H1692  H     0.91597   0.87524   0.65917   0.00000  Uiso   1.00
loop_
_geom_bond_atom_site_label_1
_geom_bond_atom_site_label_2
_geom_bond_distance
_geom_bond_site_symmetry_2
_ccdc_geom_bond_type
C1     C12     1.433   .     S
C1     O47     1.300   .     A
C1     O237    1.302   1_455 S
C2     C11     1.433   .     S
C2     O48     1.302   .     A
C2     O144    1.300   .     S
C3     H39     1.080   .     S
C3     C32     1.409   .     A
C3     C5      1.392   .     A
C4     H40     1.080   .     S
C4     C6      1.382   .     A
C4     C31     1.405   .     A
C5     H35     1.083   .     S
C5     C875    1.396   1_554 S
C6     H36     1.067   .     S
C6     C876    1.389   .     S
C7     H41     1.083   .     S
C7     C573    1.386   1_545 S
C7     C106    1.396   .     S
C8     H42     1.083   .     S
C8     C292    1.387   .     S
C8     C199    1.398   1_455 S
C9     H43     1.084   .     S
C9     C11     1.396   .     A
C9     C289    1.386   .     S
C10    H44     1.084   .     S
C10    C12     1.397   .     A
C10    C572    1.387   1_545 S
C11    C102    1.398   .     S
C12    C195    1.396   1_455 S
C13    N46     1.368   .     A
C13    O75     1.391   .     S
C13    C15     1.444   .     A
C14    O80     1.380   .     S
C14    N45     1.378   .     A
C14    C16     1.429   .     A
C15    O85     1.374   .     S
C15    N45     1.385   .     A
C16    O90     1.383   .     S
C16    N46     1.377   .     A
C17    O53     1.313   .     A
C17    C19     1.477   .     S
C17    O145    1.310   .     S
C18    C20     1.482   .     S
C18    O54     1.313   .     A
C18    O240    1.312   1_455 S
C19    C23     1.411   .     A
C19    C25     1.407   .     A
C20    C24     1.412   .     A
C20    C26     1.414   .     A
C21    C29     1.397   .     A
C21    C23     1.397   .     A
C21    H37     1.081   .     S
C22    C24     1.407   .     A
C22    H38     1.082   .     S
C22    C30     1.397   .     A
C23    O164    1.384   .     S
C24    O253    1.395   1_455 S
C25    O60     1.384   .     S
C25    C27     1.417   .     A
C26    O55     1.383   .     S
C26    C28     1.411   .     A
C27    C29     1.414   .     A
C27    C31     1.418   .     A
C28    C32     1.423   .     A
C28    C30     1.411   .     A
C29    C851    1.396   .     S
C30    C852    1.389   1_554 S
C31    C878    1.417   .     S
C32    C877    1.417   1_554 S
Cu33   N45     2.048   .     S
Cu33   O50     1.938   .     S
Cu33   O47     1.944   .     S
Cu33   O54     1.969   .     S
Cu33   O51     1.967   .     S
Cu33   Cu222   2.725   1_455 S
Cu34   N46     2.048   .     S
Cu34   O48     1.944   .     S
Cu34   O49     1.938   .     S
Cu34   O52     1.967   .     S
Cu34   O53     1.969   .     S
Cu34   Cu127   2.725   .     S
O49    C95     1.302   .     S
O50    C190    1.300   1_455 S
O51    C205    1.310   1_455 S
O52    C112    1.312   .     S
O55    C56     1.413   .     S
C56    H57     1.113   .     S
C56    H58     1.114   .     S
C56    H59     1.106   .     S
O60    C61     1.411   .     S
C61    H63     1.113   .     S
C61    H64     1.109   .     S
C61    H62     1.114   .     S
O65    C66     1.408   .     S
O65    C118    1.395   .     S
C66    H68     1.106   .     S
C66    H69     1.111   .     S
C66    H67     1.108   .     S
O70    C71     1.418   .     S
O70    C211    1.384   1_455 S
C71    H73     1.110   .     S
C71    H74     1.114   .     S
C71    H72     1.110   .     S
O75    C76     1.408   .     S
C76    H79     1.105   .     S
C76    H77     1.110   .     S
C76    H78     1.107   .     S
O80    C81     1.414   .     S
C81    H82     1.115   .     S
C81    H83     1.109   .     S
C81    H84     1.107   .     S
O85    C86     1.420   .     S
C86    H88     1.111   .     S
C86    H87     1.109   .     S
C86    H89     1.109   .     S
O90    C91     1.412   .     S
C91    H92     1.109   .     S
C91    H93     1.108   .     S
C91    H94     1.107   .     S
C95    C106    1.433   .     S
C95    O141    1.300   .     A
C96    C105    1.433   .     S
C96    O142    1.302   .     A
C96    O238    1.300   .     S
C97    H133    1.080   .     S
C97    C126    1.409   .     A
C97    C99     1.392   .     A
C98    H134    1.080   .     S
C98    C100    1.382   .     A
C98    C125    1.405   .     A
C99    H129    1.083   .     S
C99    C969    1.396   1_554 S
C100   H130    1.067   .     S
C100   C970    1.389   .     S
C101   H135    1.083   .     S
C101   C667    1.386   1_545 S
C101   C200    1.396   .     S
C102   H136    1.083   .     S
C102   C386    1.387   .     S
C103   H137    1.084   .     S
C103   C105    1.396   .     A
C103   C383    1.386   .     S
C104   H138    1.084   .     S
C104   C106    1.397   .     A
C104   C666    1.387   1_545 S
C105   C196    1.398   .     S
C107   N140    1.368   .     A
C107   O169    1.391   .     S
C107   C109    1.444   .     A
C108   O174    1.380   .     S
C108   N139    1.378   .     A
C108   C110    1.429   .     A
C109   O179    1.374   .     S
C109   N139    1.385   .     A
C110   O184    1.383   .     S
C110   N140    1.377   .     A
C111   O147    1.313   .     A
C111   C113    1.477   .     S
C111   O239    1.310   .     S
C112   C114    1.482   .     S
C112   O148    1.313   .     A
C113   C117    1.411   .     A
C113   C119    1.407   .     A
C114   C118    1.412   .     A
C114   C120    1.414   .     A
C115   C123    1.397   .     A
C115   C117    1.397   .     A
C115   H131    1.081   .     S
C116   C118    1.407   .     A
C116   H132    1.082   .     S
C116   C124    1.397   .     A
C117   O258    1.384   .     S
C119   O154    1.384   .     S
C119   C121    1.417   .     A
C120   O149    1.383   .     S
C120   C122    1.411   .     A
C121   C123    1.414   .     A
C121   C125    1.418   .     A
C122   C126    1.423   .     A
C122   C124    1.411   .     A
C123   C945    1.396   .     S
C124   C946    1.389   1_554 S
C125   C972    1.417   .     S
C126   C971    1.417   1_554 S
Cu127  N139    2.048   .     S
Cu127  O144    1.938   .     S
Cu127  O141    1.944   .     S
Cu127  O148    1.969   .     S
Cu127  O145    1.967   .     S
Cu128  N140    2.048   .     S
Cu128  O142    1.944   .     S
Cu128  O143    1.938   .     S
Cu128  O146    1.967   .     S
Cu128  O147    1.969   .     S
Cu128  Cu221   2.725   .     S
O143   C189    1.302   .     S
O146   C206    1.312   .     S
O149   C150    1.413   .     S
C150   H151    1.113   .     S
C150   H152    1.114   .     S
C150   H153    1.106   .     S
O154   C155    1.411   .     S
C155   H157    1.113   .     S
C155   H158    1.109   .     S
C155   H156    1.114   .     S
O159   C160    1.408   .     S
O159   C212    1.395   .     S
C160   H162    1.106   .     S
C160   H163    1.111   .     S
C160   H161    1.108   .     S
O164   C165    1.418   .     S
C165   H167    1.110   .     S
C165   H168    1.114   .     S
C165   H166    1.110   .     S
O169   C170    1.408   .     S
C170   H173    1.105   .     S
C170   H171    1.110   .     S
C170   H172    1.107   .     S
O174   C175    1.414   .     S
C175   H176    1.115   .     S
C175   H177    1.109   .     S
C175   H178    1.107   .     S
O179   C180    1.420   .     S
C180   H182    1.111   .     S
C180   H181    1.109   .     S
C180   H183    1.109   .     S
O184   C185    1.412   .     S
C185   H186    1.109   .     S
C185   H187    1.108   .     S
C185   H188    1.107   .     S
C189   C200    1.433   .     S
C189   O235    1.300   .     A
C190   C199    1.433   .     S
C190   O236    1.302   .     A
C190   O50     1.300   1_655 S
C191   H227    1.080   .     S
C191   C220    1.409   .     A
C191   C193    1.392   .     A
C192   H228    1.080   .     S
C192   C194    1.382   .     A
C192   C219    1.405   .     A
C193   H223    1.083   .     S
C193   C1063   1.396   1_554 S
C194   H224    1.067   .     S
C194   C1064   1.389   .     S
C195   H229    1.083   .     S
C195   C761    1.386   1_545 S
C195   C12     1.396   1_655 S
C196   H230    1.083   .     S
C196   C480    1.387   .     S
C197   H231    1.084   .     S
C197   C199    1.396   .     A
C197   C477    1.386   .     S
C198   H232    1.084   .     S
C198   C200    1.397   .     A
C198   C760    1.387   1_545 S
C199   C8      1.398   1_655 S
C201   N234    1.368   .     A
C201   O263    1.391   .     S
C201   C203    1.444   .     A
C202   O268    1.380   .     S
C202   N233    1.378   .     A
C202   C204    1.429   .     A
C203   O273    1.374   .     S
C203   N233    1.385   .     A
C204   O278    1.383   .     S
C204   N234    1.377   .     A
C205   O241    1.313   .     A
C205   C207    1.477   .     S
C205   O51     1.310   1_655 S
C206   C208    1.482   .     S
C206   O242    1.313   .     A
C207   C211    1.411   .     A
C207   C213    1.407   .     A
C208   C212    1.412   .     A
C208   C214    1.414   .     A
C209   C217    1.397   .     A
C209   C211    1.397   .     A
C209   H225    1.081   .     S
C210   C212    1.407   .     A
C210   H226    1.082   .     S
C210   C218    1.397   .     A
C211   O70     1.384   1_655 S
C213   O248    1.384   .     S
C213   C215    1.417   .     A
C214   O243    1.383   .     S
C214   C216    1.411   .     A
C215   C217    1.414   .     A
C215   C219    1.418   .     A
C216   C220    1.423   .     A
C216   C218    1.411   .     A
C217   C1039   1.396   .     S
C218   C1040   1.389   1_554 S
C219   C1066   1.417   .     S
C220   C1065   1.417   1_554 S
Cu221  N233    2.048   .     S
Cu221  O238    1.938   .     S
Cu221  O235    1.944   .     S
Cu221  O242    1.969   .     S
Cu221  O239    1.967   .     S
Cu222  N234    2.048   .     S
Cu222  O236    1.944   .     S
Cu222  O237    1.938   .     S
Cu222  O240    1.967   .     S
Cu222  O241    1.969   .     S
Cu222  Cu33    2.725   1_655 S
O237   C1      1.302   1_655 S
O240   C18     1.312   1_655 S
O243   C244    1.413   .     S
C244   H245    1.113   .     S
C244   H246    1.114   .     S
C244   H247    1.106   .     S
O248   C249    1.411   .     S
C249   H251    1.113   .     S
C249   H252    1.109   .     S
C249   H250    1.114   .     S
O253   C254    1.408   .     S
O253   C24     1.395   1_655 S
C254   H256    1.106   .     S
C254   H257    1.111   .     S
C254   H255    1.108   .     S
O258   C259    1.418   .     S
C259   H261    1.110   .     S
C259   H262    1.114   .     S
C259   H260    1.110   .     S
O263   C264    1.408   .     S
C264   H267    1.105   .     S
C264   H265    1.110   .     S
C264   H266    1.107   .     S
O268   C269    1.414   .     S
C269   H270    1.115   .     S
C269   H271    1.109   .     S
C269   H272    1.107   .     S
O273   C274    1.420   .     S
C274   H276    1.111   .     S
C274   H275    1.109   .     S
C274   H277    1.109   .     S
O278   C279    1.412   .     S
C279   H280    1.109   .     S
C279   H281    1.108   .     S
C279   H282    1.107   .     S
C283   C294    1.433   .     S
C283   O329    1.300   .     A
C283   O519    1.302   1_455 S
C284   C293    1.433   .     S
C284   O330    1.302   .     A
C284   O426    1.300   .     S
C285   H321    1.080   .     S
C285   C314    1.409   .     A
C285   C287    1.392   .     A
C286   H322    1.080   .     S
C286   C288    1.382   .     A
C286   C313    1.405   .     A
C287   H317    1.083   .     S
C287   C1157   1.396   1_554 S
C288   H318    1.067   .     S
C288   C1158   1.389   .     S
C289   H323    1.083   .     S
C289   C388    1.396   .     S
C290   H324    1.083   .     S
C290   C574    1.387   .     S
C290   C481    1.398   1_455 S
C291   H325    1.084   .     S
C291   C293    1.396   .     A
C291   C571    1.386   .     S
C292   H326    1.084   .     S
C292   C294    1.397   .     A
C293   C384    1.398   .     S
C294   C477    1.396   1_455 S
C295   N328    1.368   .     A
C295   O357    1.391   .     S
C295   C297    1.444   .     A
C296   O362    1.380   .     S
C296   N327    1.378   .     A
C296   C298    1.429   .     A
C297   O367    1.374   .     S
C297   N327    1.385   .     A
C298   O372    1.383   .     S
C298   N328    1.377   .     A
C299   O335    1.313   .     A
C299   C301    1.477   .     S
C299   O427    1.310   .     S
C300   C302    1.482   .     S
C300   O336    1.313   .     A
C300   O522    1.312   1_455 S
C301   C305    1.411   .     A
C301   C307    1.407   .     A
C302   C306    1.412   .     A
C302   C308    1.414   .     A
C303   C311    1.397   .     A
C303   C305    1.397   .     A
C303   H319    1.081   .     S
C304   C306    1.407   .     A
C304   H320    1.082   .     S
C304   C312    1.397   .     A
C305   O446    1.384   .     S
C306   O535    1.395   1_455 S
C307   O342    1.384   .     S
C307   C309    1.417   .     A
C308   O337    1.383   .     S
C308   C310    1.411   .     A
C309   C311    1.414   .     A
C309   C313    1.418   .     A
C310   C314    1.423   .     A
C310   C312    1.411   .     A
C311   C1133   1.396   .     S
C312   C1134   1.389   1_554 S
C313   C1160   1.417   .     S
C314   C1159   1.417   1_554 S
Cu315  N327    2.048   .     S
Cu315  O332    1.938   .     S
Cu315  O329    1.944   .     S
Cu315  O336    1.969   .     S
Cu315  O333    1.967   .     S
Cu315  Cu504   2.725   1_455 S
Cu316  N328    2.048   .     S
Cu316  O330    1.944   .     S
Cu316  O331    1.938   .     S
Cu316  O334    1.967   .     S
Cu316  O335    1.969   .     S
Cu316  Cu409   2.725   .     S
O331   C377    1.302   .     S
O332   C472    1.300   1_455 S
O333   C487    1.310   1_455 S
O334   C394    1.312   .     S
O337   C338    1.413   .     S
C338   H339    1.113   .     S
C338   H340    1.114   .     S
C338   H341    1.106   .     S
O342   C343    1.411   .     S
C343   H345    1.113   .     S
C343   H346    1.109   .     S
C343   H344    1.114   .     S
O347   C348    1.408   .     S
O347   C400    1.395   .     S
C348   H350    1.106   .     S
C348   H351    1.111   .     S
C348   H349    1.108   .     S
O352   C353    1.418   .     S
O352   C493    1.384   1_455 S
C353   H355    1.110   .     S
C353   H356    1.114   .     S
C353   H354    1.110   .     S
O357   C358    1.408   .     S
C358   H361    1.105   .     S
C358   H359    1.110   .     S
C358   H360    1.107   .     S
O362   C363    1.414   .     S
C363   H364    1.115   .     S
C363   H365    1.109   .     S
C363   H366    1.107   .     S
O367   C368    1.420   .     S
C368   H370    1.111   .     S
C368   H369    1.109   .     S
C368   H371    1.109   .     S
O372   C373    1.412   .     S
C373   H374    1.109   .     S
C373   H375    1.108   .     S
C373   H376    1.107   .     S
C377   C388    1.433   .     S
C377   O423    1.300   .     A
C378   C387    1.433   .     S
C378   O424    1.302   .     A
C378   O520    1.300   .     S
C379   H415    1.080   .     S
C379   C408    1.409   .     A
C379   C381    1.392   .     A
C380   H416    1.080   .     S
C380   C382    1.382   .     A
C380   C407    1.405   .     A
C381   H411    1.083   .     S
C381   C1251   1.396   1_554 S
C382   H412    1.067   .     S
C382   C1252   1.389   .     S
C383   H417    1.083   .     S
C383   C482    1.396   .     S
C384   H418    1.083   .     S
C384   C668    1.387   .     S
C385   H419    1.084   .     S
C385   C387    1.396   .     A
C385   C665    1.386   .     S
C386   H420    1.084   .     S
C386   C388    1.397   .     A
C387   C478    1.398   .     S
C389   N422    1.368   .     A
C389   O451    1.391   .     S
C389   C391    1.444   .     A
C390   O456    1.380   .     S
C390   N421    1.378   .     A
C390   C392    1.429   .     A
C391   O461    1.374   .     S
C391   N421    1.385   .     A
C392   O466    1.383   .     S
C392   N422    1.377   .     A
C393   O429    1.313   .     A
C393   C395    1.477   .     S
C393   O521    1.310   .     S
C394   C396    1.482   .     S
C394   O430    1.313   .     A
C395   C399    1.411   .     A
C395   C401    1.407   .     A
C396   C400    1.412   .     A
C396   C402    1.414   .     A
C397   C405    1.397   .     A
C397   C399    1.397   .     A
C397   H413    1.081   .     S
C398   C400    1.407   .     A
C398   H414    1.082   .     S
C398   C406    1.397   .     A
C399   O540    1.384   .     S
C401   O436    1.384   .     S
C401   C403    1.417   .     A
C402   O431    1.383   .     S
C402   C404    1.411   .     A
C403   C405    1.414   .     A
C403   C407    1.418   .     A
C404   C408    1.423   .     A
C404   C406    1.411   .     A
C405   C1227   1.396   .     S
C406   C1228   1.389   1_554 S
C407   C1254   1.417   .     S
C408   C1253   1.417   1_554 S
Cu409  N421    2.048   .     S
Cu409  O426    1.938   .     S
Cu409  O423    1.944   .     S
Cu409  O430    1.969   .     S
Cu409  O427    1.967   .     S
Cu410  N422    2.048   .     S
Cu410  O424    1.944   .     S
Cu410  O425    1.938   .     S
Cu410  O428    1.967   .     S
Cu410  O429    1.969   .     S
Cu410  Cu503   2.725   .     S
O425   C471    1.302   .     S
O428   C488    1.312   .     S
O431   C432    1.413   .     S
C432   H433    1.113   .     S
C432   H434    1.114   .     S
C432   H435    1.106   .     S
O436   C437    1.411   .     S
C437   H439    1.113   .     S
C437   H440    1.109   .     S
C437   H438    1.114   .     S
O441   C442    1.408   .     S
O441   C494    1.395   .     S
C442   H444    1.106   .     S
C442   H445    1.111   .     S
C442   H443    1.108   .     S
O446   C447    1.418   .     S
C447   H449    1.110   .     S
C447   H450    1.114   .     S
C447   H448    1.110   .     S
O451   C452    1.408   .     S
C452   H455    1.105   .     S
C452   H453    1.110   .     S
C452   H454    1.107   .     S
O456   C457    1.414   .     S
C457   H458    1.115   .     S
C457   H459    1.109   .     S
C457   H460    1.107   .     S
O461   C462    1.420   .     S
C462   H464    1.111   .     S
C462   H463    1.109   .     S
C462   H465    1.109   .     S
O466   C467    1.412   .     S
C467   H468    1.109   .     S
C467   H469    1.108   .     S
C467   H470    1.107   .     S
C471   C482    1.433   .     S
C471   O517    1.300   .     A
C472   C481    1.433   .     S
C472   O518    1.302   .     A
C472   O332    1.300   1_655 S
C473   H509    1.080   .     S
C473   C502    1.409   .     A
C473   C475    1.392   .     A
C474   H510    1.080   .     S
C474   C476    1.382   .     A
C474   C501    1.405   .     A
C475   H505    1.083   .     S
C475   C1345   1.396   1_554 S
C476   H506    1.067   .     S
C476   C1346   1.389   .     S
C477   H511    1.083   .     S
C477   C294    1.396   1_655 S
C478   H512    1.083   .     S
C478   C762    1.387   .     S
C479   H513    1.084   .     S
C479   C481    1.396   .     A
C479   C759    1.386   .     S
C480   H514    1.084   .     S
C480   C482    1.397   .     A
C481   C290    1.398   1_655 S
C483   N516    1.368   .     A
C483   O545    1.391   .     S
C483   C485    1.444   .     A
C484   O550    1.380   .     S
C484   N515    1.378   .     A
C484   C486    1.429   .     A
C485   O555    1.374   .     S
C485   N515    1.385   .     A
C486   O560    1.383   .     S
C486   N516    1.377   .     A
C487   O523    1.313   .     A
C487   C489    1.477   .     S
C487   O333    1.310   1_655 S
C488   C490    1.482   .     S
C488   O524    1.313   .     A
C489   C493    1.411   .     A
C489   C495    1.407   .     A
C490   C494    1.412   .     A
C490   C496    1.414   .     A
C491   C499    1.397   .     A
C491   C493    1.397   .     A
C491   H507    1.081   .     S
C492   C494    1.407   .     A
C492   H508    1.082   .     S
C492   C500    1.397   .     A
C493   O352    1.384   1_655 S
C495   O530    1.384   .     S
C495   C497    1.417   .     A
C496   O525    1.383   .     S
C496   C498    1.411   .     A
C497   C499    1.414   .     A
C497   C501    1.418   .     A
C498   C502    1.423   .     A
C498   C500    1.411   .     A
C499   C1321   1.396   .     S
C500   C1322   1.389   1_554 S
C501   C1348   1.417   .     S
C502   C1347   1.417   1_554 S
Cu503  N515    2.048   .     S
Cu503  O520    1.938   .     S
Cu503  O517    1.944   .     S
Cu503  O524    1.969   .     S
Cu503  O521    1.967   .     S
Cu504  N516    2.048   .     S
Cu504  O518    1.944   .     S
Cu504  O519    1.938   .     S
Cu504  O522    1.967   .     S
Cu504  O523    1.969   .     S
Cu504  Cu315   2.725   1_655 S
O519   C283    1.302   1_655 S
O522   C300    1.312   1_655 S
O525   C526    1.413   .     S
C526   H527    1.113   .     S
C526   H528    1.114   .     S
C526   H529    1.106   .     S
O530   C531    1.411   .     S
C531   H533    1.113   .     S
C531   H534    1.109   .     S
C531   H532    1.114   .     S
O535   C536    1.408   .     S
O535   C306    1.395   1_655 S
C536   H538    1.106   .     S
C536   H539    1.111   .     S
C536   H537    1.108   .     S
O540   C541    1.418   .     S
C541   H543    1.110   .     S
C541   H544    1.114   .     S
C541   H542    1.110   .     S
O545   C546    1.408   .     S
C546   H549    1.105   .     S
C546   H547    1.110   .     S
C546   H548    1.107   .     S
O550   C551    1.414   .     S
C551   H552    1.115   .     S
C551   H553    1.109   .     S
C551   H554    1.107   .     S
O555   C556    1.420   .     S
C556   H558    1.111   .     S
C556   H557    1.109   .     S
C556   H559    1.109   .     S
O560   C561    1.412   .     S
C561   H562    1.109   .     S
C561   H563    1.108   .     S
C561   H564    1.107   .     S
C565   C576    1.433   .     S
C565   O611    1.300   .     A
C565   O801    1.302   1_455 S
C566   C575    1.433   .     S
C566   O612    1.302   .     A
C566   O708    1.300   .     S
C567   H603    1.080   .     S
C567   C596    1.409   .     A
C567   C569    1.392   .     A
C568   H604    1.080   .     S
C568   C570    1.382   .     A
C568   C595    1.405   .     A
C569   H599    1.083   .     S
C569   C1439   1.396   1_554 S
C570   H600    1.067   .     S
C570   C1440   1.389   .     S
C571   H605    1.083   .     S
C571   C670    1.396   .     S
C572   H606    1.083   .     S
C572   C10     1.387   1_565 S
C572   C763    1.398   1_455 S
C573   H607    1.084   .     S
C573   C575    1.396   .     A
C573   C7      1.386   1_565 S
C574   H608    1.084   .     S
C574   C576    1.397   .     A
C575   C666    1.398   .     S
C576   C759    1.396   1_455 S
C577   N610    1.368   .     A
C577   O639    1.391   .     S
C577   C579    1.444   .     A
C578   O644    1.380   .     S
C578   N609    1.378   .     A
C578   C580    1.429   .     A
C579   O649    1.374   .     S
C579   N609    1.385   .     A
C580   O654    1.383   .     S
C580   N610    1.377   .     A
C581   O617    1.313   .     A
C581   C583    1.477   .     S
C581   O709    1.310   .     S
C582   C584    1.482   .     S
C582   O618    1.313   .     A
C582   O804    1.312   1_455 S
C583   C587    1.411   .     A
C583   C589    1.407   .     A
C584   C588    1.412   .     A
C584   C590    1.414   .     A
C585   C593    1.397   .     A
C585   C587    1.397   .     A
C585   H601    1.081   .     S
C586   C588    1.407   .     A
C586   H602    1.082   .     S
C586   C594    1.397   .     A
C587   O728    1.384   .     S
C588   O817    1.395   1_455 S
C589   O624    1.384   .     S
C589   C591    1.417   .     A
C590   O619    1.383   .     S
C590   C592    1.411   .     A
C591   C593    1.414   .     A
C591   C595    1.418   .     A
C592   C596    1.423   .     A
C592   C594    1.411   .     A
C593   C1415   1.396   .     S
C594   C1416   1.389   1_554 S
C595   C1442   1.417   .     S
C596   C1441   1.417   1_554 S
Cu597  N609    2.048   .     S
Cu597  O614    1.938   .     S
Cu597  O611    1.944   .     S
Cu597  O618    1.969   .     S
Cu597  O615    1.967   .     S
Cu597  Cu786   2.725   1_455 S
Cu598  N610    2.048   .     S
Cu598  O612    1.944   .     S
Cu598  O613    1.938   .     S
Cu598  O616    1.967   .     S
Cu598  O617    1.969   .     S
Cu598  Cu691   2.725   .     S
O613   C659    1.302   .     S
O614   C754    1.300   1_455 S
O615   C769    1.310   1_455 S
O616   C676    1.312   .     S
O619   C620    1.413   .     S
C620   H621    1.113   .     S
C620   H622    1.114   .     S
C620   H623    1.106   .     S
O624   C625    1.411   .     S
C625   H627    1.113   .     S
C625   H628    1.109   .     S
C625   H626    1.114   .     S
O629   C630    1.408   .     S
O629   C682    1.395   .     S
C630   H632    1.106   .     S
C630   H633    1.111   .     S
C630   H631    1.108   .     S
O634   C635    1.418   .     S
O634   C775    1.384   1_455 S
C635   H637    1.110   .     S
C635   H638    1.114   .     S
C635   H636    1.110   .     S
O639   C640    1.408   .     S
C640   H643    1.105   .     S
C640   H641    1.110   .     S
C640   H642    1.107   .     S
O644   C645    1.414   .     S
C645   H646    1.115   .     S
C645   H647    1.109   .     S
C645   H648    1.107   .     S
O649   C650    1.420   .     S
C650   H652    1.111   .     S
C650   H651    1.109   .     S
C650   H653    1.109   .     S
O654   C655    1.412   .     S
C655   H656    1.109   .     S
C655   H657    1.108   .     S
C655   H658    1.107   .     S
C659   C670    1.433   .     S
C659   O705    1.300   .     A
C660   C669    1.433   .     S
C660   O706    1.302   .     A
C660   O802    1.300   .     S
C661   H697    1.080   .     S
C661   C690    1.409   .     A
C661   C663    1.392   .     A
C662   H698    1.080   .     S
C662   C664    1.382   .     A
C662   C689    1.405   .     A
C663   H693    1.083   .     S
C663   C1533   1.396   1_554 S
C664   H694    1.067   .     S
C664   C1534   1.389   .     S
C665   H699    1.083   .     S
C665   C764    1.396   .     S
C666   H700    1.083   .     S
C666   C104    1.387   1_565 S
C667   H701    1.084   .     S
C667   C669    1.396   .     A
C667   C101    1.386   1_565 S
C668   H702    1.084   .     S
C668   C670    1.397   .     A
C669   C760    1.398   .     S
C671   N704    1.368   .     A
C671   O733    1.391   .     S
C671   C673    1.444   .     A
C672   O738    1.380   .     S
C672   N703    1.378   .     A
C672   C674    1.429   .     A
C673   O743    1.374   .     S
C673   N703    1.385   .     A
C674   O748    1.383   .     S
C674   N704    1.377   .     A
C675   O711    1.313   .     A
C675   C677    1.477   .     S
C675   O803    1.310   .     S
C676   C678    1.482   .     S
C676   O712    1.313   .     A
C677   C681    1.411   .     A
C677   C683    1.407   .     A
C678   C682    1.412   .     A
C678   C684    1.414   .     A
C679   C687    1.397   .     A
C679   C681    1.397   .     A
C679   H695    1.081   .     S
C680   C682    1.407   .     A
C680   H696    1.082   .     S
C680   C688    1.397   .     A
C681   O822    1.384   .     S
C683   O718    1.384   .     S
C683   C685    1.417   .     A
C684   O713    1.383   .     S
C684   C686    1.411   .     A
C685   C687    1.414   .     A
C685   C689    1.418   .     A
C686   C690    1.423   .     A
C686   C688    1.411   .     A
C687   C1509   1.396   .     S
C688   C1510   1.389   1_554 S
C689   C1536   1.417   .     S
C690   C1535   1.417   1_554 S
Cu691  N703    2.048   .     S
Cu691  O708    1.938   .     S
Cu691  O705    1.944   .     S
Cu691  O712    1.969   .     S
Cu691  O709    1.967   .     S
Cu692  N704    2.048   .     S
Cu692  O706    1.944   .     S
Cu692  O707    1.938   .     S
Cu692  O710    1.967   .     S
Cu692  O711    1.969   .     S
Cu692  Cu785   2.725   .     S
O707   C753    1.302   .     S
O710   C770    1.312   .     S
O713   C714    1.413   .     S
C714   H715    1.113   .     S
C714   H716    1.114   .     S
C714   H717    1.106   .     S
O718   C719    1.411   .     S
C719   H721    1.113   .     S
C719   H722    1.109   .     S
C719   H720    1.114   .     S
O723   C724    1.408   .     S
O723   C776    1.395   .     S
C724   H726    1.106   .     S
C724   H727    1.111   .     S
C724   H725    1.108   .     S
O728   C729    1.418   .     S
C729   H731    1.110   .     S
C729   H732    1.114   .     S
C729   H730    1.110   .     S
O733   C734    1.408   .     S
C734   H737    1.105   .     S
C734   H735    1.110   .     S
C734   H736    1.107   .     S
O738   C739    1.414   .     S
C739   H740    1.115   .     S
C739   H741    1.109   .     S
C739   H742    1.107   .     S
O743   C744    1.420   .     S
C744   H746    1.111   .     S
C744   H745    1.109   .     S
C744   H747    1.109   .     S
O748   C749    1.412   .     S
C749   H750    1.109   .     S
C749   H751    1.108   .     S
C749   H752    1.107   .     S
C753   C764    1.433   .     S
C753   O799    1.300   .     A
C754   C763    1.433   .     S
C754   O800    1.302   .     A
C754   O614    1.300   1_655 S
C755   H791    1.080   .     S
C755   C784    1.409   .     A
C755   C757    1.392   .     A
C756   H792    1.080   .     S
C756   C758    1.382   .     A
C756   C783    1.405   .     A
C757   H787    1.083   .     S
C757   C1627   1.396   1_554 S
C758   H788    1.067   .     S
C758   C1628   1.389   .     S
C759   H793    1.083   .     S
C759   C576    1.396   1_655 S
C760   H794    1.083   .     S
C760   C198    1.387   1_565 S
C761   H795    1.084   .     S
C761   C763    1.396   .     A
C761   C195    1.386   1_565 S
C762   H796    1.084   .     S
C762   C764    1.397   .     A
C763   C572    1.398   1_655 S
C765   N798    1.368   .     A
C765   O827    1.391   .     S
C765   C767    1.444   .     A
C766   O832    1.380   .     S
C766   N797    1.378   .     A
C766   C768    1.429   .     A
C767   O837    1.374   .     S
C767   N797    1.385   .     A
C768   O842    1.383   .     S
C768   N798    1.377   .     A
C769   O805    1.313   .     A
C769   C771    1.477   .     S
C769   O615    1.310   1_655 S
C770   C772    1.482   .     S
C770   O806    1.313   .     A
C771   C775    1.411   .     A
C771   C777    1.407   .     A
C772   C776    1.412   .     A
C772   C778    1.414   .     A
C773   C781    1.397   .     A
C773   C775    1.397   .     A
C773   H789    1.081   .     S
C774   C776    1.407   .     A
C774   H790    1.082   .     S
C774   C782    1.397   .     A
C775   O634    1.384   1_655 S
C777   O812    1.384   .     S
C777   C779    1.417   .     A
C778   O807    1.383   .     S
C778   C780    1.411   .     A
C779   C781    1.414   .     A
C779   C783    1.418   .     A
C780   C784    1.423   .     A
C780   C782    1.411   .     A
C781   C1603   1.396   .     S
C782   C1604   1.389   1_554 S
C783   C1630   1.417   .     S
C784   C1629   1.417   1_554 S
Cu785  N797    2.048   .     S
Cu785  O802    1.938   .     S
Cu785  O799    1.944   .     S
Cu785  O806    1.969   .     S
Cu785  O803    1.967   .     S
Cu786  N798    2.048   .     S
Cu786  O800    1.944   .     S
Cu786  O801    1.938   .     S
Cu786  O804    1.967   .     S
Cu786  O805    1.969   .     S
Cu786  Cu597   2.725   1_655 S
O801   C565    1.302   1_655 S
O804   C582    1.312   1_655 S
O807   C808    1.413   .     S
C808   H809    1.113   .     S
C808   H810    1.114   .     S
C808   H811    1.106   .     S
O812   C813    1.411   .     S
C813   H815    1.113   .     S
C813   H816    1.109   .     S
C813   H814    1.114   .     S
O817   C818    1.408   .     S
O817   C588    1.395   1_655 S
C818   H820    1.106   .     S
C818   H821    1.111   .     S
C818   H819    1.108   .     S
O822   C823    1.418   .     S
C823   H825    1.110   .     S
C823   H826    1.114   .     S
C823   H824    1.110   .     S
O827   C828    1.408   .     S
C828   H831    1.105   .     S
C828   H829    1.110   .     S
C828   H830    1.107   .     S
O832   C833    1.414   .     S
C833   H834    1.115   .     S
C833   H835    1.109   .     S
C833   H836    1.107   .     S
O837   C838    1.420   .     S
C838   H840    1.111   .     S
C838   H839    1.109   .     S
C838   H841    1.109   .     S
O842   C843    1.412   .     S
C843   H844    1.109   .     S
C843   H845    1.108   .     S
C843   H846    1.107   .     S
C847   C858    1.433   .     S
C847   O893    1.300   .     A
C847   O1083   1.302   1_455 S
C848   C857    1.433   .     S
C848   O894    1.302   .     A
C848   O990    1.300   .     S
C849   H885    1.080   .     S
C849   C878    1.409   .     A
C849   C851    1.392   .     A
C850   H886    1.080   .     S
C850   C852    1.382   .     A
C850   C877    1.405   .     A
C851   H881    1.083   .     S
C852   H882    1.067   .     S
C852   C30     1.389   1_556 S
C853   H887    1.083   .     S
C853   C1419   1.386   1_545 S
C853   C952    1.396   .     S
C854   H888    1.083   .     S
C854   C1138   1.387   .     S
C854   C1045   1.398   1_455 S
C855   H889    1.084   .     S
C855   C857    1.396   .     A
C855   C1135   1.386   .     S
C856   H890    1.084   .     S
C856   C858    1.397   .     A
C856   C1418   1.387   1_545 S
C857   C948    1.398   .     S
C858   C1041   1.396   1_455 S
C859   N892    1.368   .     A
C859   O921    1.391   .     S
C859   C861    1.444   .     A
C860   O926    1.380   .     S
C860   N891    1.378   .     A
C860   C862    1.429   .     A
C861   O931    1.374   .     S
C861   N891    1.385   .     A
C862   O936    1.383   .     S
C862   N892    1.377   .     A
C863   O899    1.313   .     A
C863   C865    1.477   .     S
C863   O991    1.310   .     S
C864   C866    1.482   .     S
C864   O900    1.313   .     A
C864   O1086   1.312   1_455 S
C865   C869    1.411   .     A
C865   C871    1.407   .     A
C866   C870    1.412   .     A
C866   C872    1.414   .     A
C867   C875    1.397   .     A
C867   C869    1.397   .     A
C867   H883    1.081   .     S
C868   C870    1.407   .     A
C868   H884    1.082   .     S
C868   C876    1.397   .     A
C869   O1010   1.384   .     S
C870   O1099   1.395   1_455 S
C871   O906    1.384   .     S
C871   C873    1.417   .     A
C872   O901    1.383   .     S
C872   C874    1.411   .     A
C873   C875    1.414   .     A
C873   C877    1.418   .     A
C874   C878    1.423   .     A
C874   C876    1.411   .     A
C875   C5      1.396   1_556 S
C877   C32     1.417   1_556 S
Cu879  N891    2.048   .     S
Cu879  O896    1.938   .     S
Cu879  O893    1.944   .     S
Cu879  O900    1.969   .     S
Cu879  O897    1.967   .     S
Cu879  Cu1068  2.725   1_455 S
Cu880  N892    2.048   .     S
Cu880  O894    1.944   .     S
Cu880  O895    1.938   .     S
Cu880  O898    1.967   .     S
Cu880  O899    1.969   .     S
Cu880  Cu973   2.725   .     S
O895   C941    1.302   .     S
O896   C1036   1.300   1_455 S
O897   C1051   1.310   1_455 S
O898   C958    1.312   .     S
O901   C902    1.413   .     S
C902   H903    1.113   .     S
C902   H904    1.114   .     S
C902   H905    1.106   .     S
O906   C907    1.411   .     S
C907   H909    1.113   .     S
C907   H910    1.109   .     S
C907   H908    1.114   .     S
O911   C912    1.408   .     S
O911   C964    1.395   .     S
C912   H914    1.106   .     S
C912   H915    1.111   .     S
C912   H913    1.108   .     S
O916   C917    1.418   .     S
O916   C1057   1.384   1_455 S
C917   H919    1.110   .     S
C917   H920    1.114   .     S
C917   H918    1.110   .     S
O921   C922    1.408   .     S
C922   H925    1.105   .     S
C922   H923    1.110   .     S
C922   H924    1.107   .     S
O926   C927    1.414   .     S
C927   H928    1.115   .     S
C927   H929    1.109   .     S
C927   H930    1.107   .     S
O931   C932    1.420   .     S
C932   H934    1.111   .     S
C932   H933    1.109   .     S
C932   H935    1.109   .     S
O936   C937    1.412   .     S
C937   H938    1.109   .     S
C937   H939    1.108   .     S
C937   H940    1.107   .     S
C941   C952    1.433   .     S
C941   O987    1.300   .     A
C942   C951    1.433   .     S
C942   O988    1.302   .     A
C942   O1084   1.300   .     S
C943   H979    1.080   .     S
C943   C972    1.409   .     A
C943   C945    1.392   .     A
C944   H980    1.080   .     S
C944   C946    1.382   .     A
C944   C971    1.405   .     A
C945   H975    1.083   .     S
C946   H976    1.067   .     S
C946   C124    1.389   1_556 S
C947   H981    1.083   .     S
C947   C1513   1.386   1_545 S
C947   C1046   1.396   .     S
C948   H982    1.083   .     S
C948   C1232   1.387   .     S
C949   H983    1.084   .     S
C949   C951    1.396   .     A
C949   C1229   1.386   .     S
C950   H984    1.084   .     S
C950   C952    1.397   .     A
C950   C1512   1.387   1_545 S
C951   C1042   1.398   .     S
C953   N986    1.368   .     A
C953   O1015   1.391   .     S
C953   C955    1.444   .     A
C954   O1020   1.380   .     S
C954   N985    1.378   .     A
C954   C956    1.429   .     A
C955   O1025   1.374   .     S
C955   N985    1.385   .     A
C956   O1030   1.383   .     S
C956   N986    1.377   .     A
C957   O993    1.313   .     A
C957   C959    1.477   .     S
C957   O1085   1.310   .     S
C958   C960    1.482   .     S
C958   O994    1.313   .     A
C959   C963    1.411   .     A
C959   C965    1.407   .     A
C960   C964    1.412   .     A
C960   C966    1.414   .     A
C961   C969    1.397   .     A
C961   C963    1.397   .     A
C961   H977    1.081   .     S
C962   C964    1.407   .     A
C962   H978    1.082   .     S
C962   C970    1.397   .     A
C963   O1104   1.384   .     S
C965   O1000   1.384   .     S
C965   C967    1.417   .     A
C966   O995    1.383   .     S
C966   C968    1.411   .     A
C967   C969    1.414   .     A
C967   C971    1.418   .     A
C968   C972    1.423   .     A
C968   C970    1.411   .     A
C969   C99     1.396   1_556 S
C971   C126    1.417   1_556 S
Cu973  N985    2.048   .     S
Cu973  O990    1.938   .     S
Cu973  O987    1.944   .     S
Cu973  O994    1.969   .     S
Cu973  O991    1.967   .     S
Cu974  N986    2.048   .     S
Cu974  O988    1.944   .     S
Cu974  O989    1.938   .     S
Cu974  O992    1.967   .     S
Cu974  O993    1.969   .     S
Cu974  Cu1067  2.725   .     S
O989   C1035   1.302   .     S
O992   C1052   1.312   .     S
O995   C996    1.413   .     S
C996   H997    1.113   .     S
C996   H998    1.114   .     S
C996   H999    1.106   .     S
O1000  C1001   1.411   .     S
C1001  H1003   1.113   .     S
C1001  H1004   1.109   .     S
C1001  H1002   1.114   .     S
O1005  C1006   1.408   .     S
O1005  C1058   1.395   .     S
C1006  H1008   1.106   .     S
C1006  H1009   1.111   .     S
C1006  H1007   1.108   .     S
O1010  C1011   1.418   .     S
C1011  H1013   1.110   .     S
C1011  H1014   1.114   .     S
C1011  H1012   1.110   .     S
O1015  C1016   1.408   .     S
C1016  H1019   1.105   .     S
C1016  H1017   1.110   .     S
C1016  H1018   1.107   .     S
O1020  C1021   1.414   .     S
C1021  H1022   1.115   .     S
C1021  H1023   1.109   .     S
C1021  H1024   1.107   .     S
O1025  C1026   1.420   .     S
C1026  H1028   1.111   .     S
C1026  H1027   1.109   .     S
C1026  H1029   1.109   .     S
O1030  C1031   1.412   .     S
C1031  H1032   1.109   .     S
C1031  H1033   1.108   .     S
C1031  H1034   1.107   .     S
C1035  C1046   1.433   .     S
C1035  O1081   1.300   .     A
C1036  C1045   1.433   .     S
C1036  O1082   1.302   .     A
C1036  O896    1.300   1_655 S
C1037  H1073   1.080   .     S
C1037  C1066   1.409   .     A
C1037  C1039   1.392   .     A
C1038  H1074   1.080   .     S
C1038  C1040   1.382   .     A
C1038  C1065   1.405   .     A
C1039  H1069   1.083   .     S
C1040  H1070   1.067   .     S
C1040  C218    1.389   1_556 S
C1041  H1075   1.083   .     S
C1041  C1607   1.386   1_545 S
C1041  C858    1.396   1_655 S
C1042  H1076   1.083   .     S
C1042  C1326   1.387   .     S
C1043  H1077   1.084   .     S
C1043  C1045   1.396   .     A
C1043  C1323   1.386   .     S
C1044  H1078   1.084   .     S
C1044  C1046   1.397   .     A
C1044  C1606   1.387   1_545 S
C1045  C854    1.398   1_655 S
C1047  N1080   1.368   .     A
C1047  O1109   1.391   .     S
C1047  C1049   1.444   .     A
C1048  O1114   1.380   .     S
C1048  N1079   1.378   .     A
C1048  C1050   1.429   .     A
C1049  O1119   1.374   .     S
C1049  N1079   1.385   .     A
C1050  O1124   1.383   .     S
C1050  N1080   1.377   .     A
C1051  O1087   1.313   .     A
C1051  C1053   1.477   .     S
C1051  O897    1.310   1_655 S
C1052  C1054   1.482   .     S
C1052  O1088   1.313   .     A
C1053  C1057   1.411   .     A
C1053  C1059   1.407   .     A
C1054  C1058   1.412   .     A
C1054  C1060   1.414   .     A
C1055  C1063   1.397   .     A
C1055  C1057   1.397   .     A
C1055  H1071   1.081   .     S
C1056  C1058   1.407   .     A
C1056  H1072   1.082   .     S
C1056  C1064   1.397   .     A
C1057  O916    1.384   1_655 S
C1059  O1094   1.384   .     S
C1059  C1061   1.417   .     A
C1060  O1089   1.383   .     S
C1060  C1062   1.411   .     A
C1061  C1063   1.414   .     A
C1061  C1065   1.418   .     A
C1062  C1066   1.423   .     A
C1062  C1064   1.411   .     A
C1063  C193    1.396   1_556 S
C1065  C220    1.417   1_556 S
Cu1067 N1079   2.048   .     S
Cu1067 O1084   1.938   .     S
Cu1067 O1081   1.944   .     S
Cu1067 O1088   1.969   .     S
Cu1067 O1085   1.967   .     S
Cu1068 N1080   2.048   .     S
Cu1068 O1082   1.944   .     S
Cu1068 O1083   1.938   .     S
Cu1068 O1086   1.967   .     S
Cu1068 O1087   1.969   .     S
Cu1068 Cu879   2.725   1_655 S
O1083  C847    1.302   1_655 S
O1086  C864    1.312   1_655 S
O1089  C1090   1.413   .     S
C1090  H1091   1.113   .     S
C1090  H1092   1.114   .     S
C1090  H1093   1.106   .     S
O1094  C1095   1.411   .     S
C1095  H1097   1.113   .     S
C1095  H1098   1.109   .     S
C1095  H1096   1.114   .     S
O1099  C1100   1.408   .     S
O1099  C870    1.395   1_655 S
C1100  H1102   1.106   .     S
C1100  H1103   1.111   .     S
C1100  H1101   1.108   .     S
O1104  C1105   1.418   .     S
C1105  H1107   1.110   .     S
C1105  H1108   1.114   .     S
C1105  H1106   1.110   .     S
O1109  C1110   1.408   .     S
C1110  H1113   1.105   .     S
C1110  H1111   1.110   .     S
C1110  H1112   1.107   .     S
O1114  C1115   1.414   .     S
C1115  H1116   1.115   .     S
C1115  H1117   1.109   .     S
C1115  H1118   1.107   .     S
O1119  C1120   1.420   .     S
C1120  H1122   1.111   .     S
C1120  H1121   1.109   .     S
C1120  H1123   1.109   .     S
O1124  C1125   1.412   .     S
C1125  H1126   1.109   .     S
C1125  H1127   1.108   .     S
C1125  H1128   1.107   .     S
C1129  C1140   1.433   .     S
C1129  O1175   1.300   .     A
C1129  O1365   1.302   1_455 S
C1130  C1139   1.433   .     S
C1130  O1176   1.302   .     A
C1130  O1272   1.300   .     S
C1131  H1167   1.080   .     S
C1131  C1160   1.409   .     A
C1131  C1133   1.392   .     A
C1132  H1168   1.080   .     S
C1132  C1134   1.382   .     A
C1132  C1159   1.405   .     A
C1133  H1163   1.083   .     S
C1134  H1164   1.067   .     S
C1134  C312    1.389   1_556 S
C1135  H1169   1.083   .     S
C1135  C1234   1.396   .     S
C1136  H1170   1.083   .     S
C1136  C1420   1.387   .     S
C1136  C1327   1.398   1_455 S
C1137  H1171   1.084   .     S
C1137  C1139   1.396   .     A
C1137  C1417   1.386   .     S
C1138  H1172   1.084   .     S
C1138  C1140   1.397   .     A
C1139  C1230   1.398   .     S
C1140  C1323   1.396   1_455 S
C1141  N1174   1.368   .     A
C1141  O1203   1.391   .     S
C1141  C1143   1.444   .     A
C1142  O1208   1.380   .     S
C1142  N1173   1.378   .     A
C1142  C1144   1.429   .     A
C1143  O1213   1.374   .     S
C1143  N1173   1.385   .     A
C1144  O1218   1.383   .     S
C1144  N1174   1.377   .     A
C1145  O1181   1.313   .     A
C1145  C1147   1.477   .     S
C1145  O1273   1.310   .     S
C1146  C1148   1.482   .     S
C1146  O1182   1.313   .     A
C1146  O1368   1.312   1_455 S
C1147  C1151   1.411   .     A
C1147  C1153   1.407   .     A
C1148  C1152   1.412   .     A
C1148  C1154   1.414   .     A
C1149  C1157   1.397   .     A
C1149  C1151   1.397   .     A
C1149  H1165   1.081   .     S
C1150  C1152   1.407   .     A
C1150  H1166   1.082   .     S
C1150  C1158   1.397   .     A
C1151  O1292   1.384   .     S
C1152  O1381   1.395   1_455 S
C1153  O1188   1.384   .     S
C1153  C1155   1.417   .     A
C1154  O1183   1.383   .     S
C1154  C1156   1.411   .     A
C1155  C1157   1.414   .     A
C1155  C1159   1.418   .     A
C1156  C1160   1.423   .     A
C1156  C1158   1.411   .     A
C1157  C287    1.396   1_556 S
C1159  C314    1.417   1_556 S
Cu1161 N1173   2.048   .     S
Cu1161 O1178   1.938   .     S
Cu1161 O1175   1.944   .     S
Cu1161 O1182   1.969   .     S
Cu1161 O1179   1.967   .     S
Cu1161 Cu1350  2.725   1_455 S
Cu1162 N1174   2.048   .     S
Cu1162 O1176   1.944   .     S
Cu1162 O1177   1.938   .     S
Cu1162 O1180   1.967   .     S
Cu1162 O1181   1.969   .     S
Cu1162 Cu1255  2.725   .     S
O1177  C1223   1.302   .     S
O1178  C1318   1.300   1_455 S
O1179  C1333   1.310   1_455 S
O1180  C1240   1.312   .     S
O1183  C1184   1.413   .     S
C1184  H1185   1.113   .     S
C1184  H1186   1.114   .     S
C1184  H1187   1.106   .     S
O1188  C1189   1.411   .     S
C1189  H1191   1.113   .     S
C1189  H1192   1.109   .     S
C1189  H1190   1.114   .     S
O1193  C1194   1.408   .     S
O1193  C1246   1.395   .     S
C1194  H1196   1.106   .     S
C1194  H1197   1.111   .     S
C1194  H1195   1.108   .     S
O1198  C1199   1.418   .     S
O1198  C1339   1.384   1_455 S
C1199  H1201   1.110   .     S
C1199  H1202   1.114   .     S
C1199  H1200   1.110   .     S
O1203  C1204   1.408   .     S
C1204  H1207   1.105   .     S
C1204  H1205   1.110   .     S
C1204  H1206   1.107   .     S
O1208  C1209   1.414   .     S
C1209  H1210   1.115   .     S
C1209  H1211   1.109   .     S
C1209  H1212   1.107   .     S
O1213  C1214   1.420   .     S
C1214  H1216   1.111   .     S
C1214  H1215   1.109   .     S
C1214  H1217   1.109   .     S
O1218  C1219   1.412   .     S
C1219  H1220   1.109   .     S
C1219  H1221   1.108   .     S
C1219  H1222   1.107   .     S
C1223  C1234   1.433   .     S
C1223  O1269   1.300   .     A
C1224  C1233   1.433   .     S
C1224  O1270   1.302   .     A
C1224  O1366   1.300   .     S
C1225  H1261   1.080   .     S
C1225  C1254   1.409   .     A
C1225  C1227   1.392   .     A
C1226  H1262   1.080   .     S
C1226  C1228   1.382   .     A
C1226  C1253   1.405   .     A
C1227  H1257   1.083   .     S
C1228  H1258   1.067   .     S
C1228  C406    1.389   1_556 S
C1229  H1263   1.083   .     S
C1229  C1328   1.396   .     S
C1230  H1264   1.083   .     S
C1230  C1514   1.387   .     S
C1231  H1265   1.084   .     S
C1231  C1233   1.396   .     A
C1231  C1511   1.386   .     S
C1232  H1266   1.084   .     S
C1232  C1234   1.397   .     A
C1233  C1324   1.398   .     S
C1235  N1268   1.368   .     A
C1235  O1297   1.391   .     S
C1235  C1237   1.444   .     A
C1236  O1302   1.380   .     S
C1236  N1267   1.378   .     A
C1236  C1238   1.429   .     A
C1237  O1307   1.374   .     S
C1237  N1267   1.385   .     A
C1238  O1312   1.383   .     S
C1238  N1268   1.377   .     A
C1239  O1275   1.313   .     A
C1239  C1241   1.477   .     S
C1239  O1367   1.310   .     S
C1240  C1242   1.482   .     S
C1240  O1276   1.313   .     A
C1241  C1245   1.411   .     A
C1241  C1247   1.407   .     A
C1242  C1246   1.412   .     A
C1242  C1248   1.414   .     A
C1243  C1251   1.397   .     A
C1243  C1245   1.397   .     A
C1243  H1259   1.081   .     S
C1244  C1246   1.407   .     A
C1244  H1260   1.082   .     S
C1244  C1252   1.397   .     A
C1245  O1386   1.384   .     S
C1247  O1282   1.384   .     S
C1247  C1249   1.417   .     A
C1248  O1277   1.383   .     S
C1248  C1250   1.411   .     A
C1249  C1251   1.414   .     A
C1249  C1253   1.418   .     A
C1250  C1254   1.423   .     A
C1250  C1252   1.411   .     A
C1251  C381    1.396   1_556 S
C1253  C408    1.417   1_556 S
Cu1255 N1267   2.048   .     S
Cu1255 O1272   1.938   .     S
Cu1255 O1269   1.944   .     S
Cu1255 O1276   1.969   .     S
Cu1255 O1273   1.967   .     S
Cu1256 N1268   2.048   .     S
Cu1256 O1270   1.944   .     S
Cu1256 O1271   1.938   .     S
Cu1256 O1274   1.967   .     S
Cu1256 O1275   1.969   .     S
Cu1256 Cu1349  2.725   .     S
O1271  C1317   1.302   .     S
O1274  C1334   1.312   .     S
O1277  C1278   1.413   .     S
C1278  H1279   1.113   .     S
C1278  H1280   1.114   .     S
C1278  H1281   1.106   .     S
O1282  C1283   1.411   .     S
C1283  H1285   1.113   .     S
C1283  H1286   1.109   .     S
C1283  H1284   1.114   .     S
O1287  C1288   1.408   .     S
O1287  C1340   1.395   .     S
C1288  H1290   1.106   .     S
C1288  H1291   1.111   .     S
C1288  H1289   1.108   .     S
O1292  C1293   1.418   .     S
C1293  H1295   1.110   .     S
C1293  H1296   1.114   .     S
C1293  H1294   1.110   .     S
O1297  C1298   1.408   .     S
C1298  H1301   1.105   .     S
C1298  H1299   1.110   .     S
C1298  H1300   1.107   .     S
O1302  C1303   1.414   .     S
C1303  H1304   1.115   .     S
C1303  H1305   1.109   .     S
C1303  H1306   1.107   .     S
O1307  C1308   1.420   .     S
C1308  H1310   1.111   .     S
C1308  H1309   1.109   .     S
C1308  H1311   1.109   .     S
O1312  C1313   1.412   .     S
C1313  H1314   1.109   .     S
C1313  H1315   1.108   .     S
C1313  H1316   1.107   .     S
C1317  C1328   1.433   .     S
C1317  O1363   1.300   .     A
C1318  C1327   1.433   .     S
C1318  O1364   1.302   .     A
C1318  O1178   1.300   1_655 S
C1319  H1355   1.080   .     S
C1319  C1348   1.409   .     A
C1319  C1321   1.392   .     A
C1320  H1356   1.080   .     S
C1320  C1322   1.382   .     A
C1320  C1347   1.405   .     A
C1321  H1351   1.083   .     S
C1322  H1352   1.067   .     S
C1322  C500    1.389   1_556 S
C1323  H1357   1.083   .     S
C1323  C1140   1.396   1_655 S
C1324  H1358   1.083   .     S
C1324  C1608   1.387   .     S
C1325  H1359   1.084   .     S
C1325  C1327   1.396   .     A
C1325  C1605   1.386   .     S
C1326  H1360   1.084   .     S
C1326  C1328   1.397   .     A
C1327  C1136   1.398   1_655 S
C1329  N1362   1.368   .     A
C1329  O1391   1.391   .     S
C1329  C1331   1.444   .     A
C1330  O1396   1.380   .     S
C1330  N1361   1.378   .     A
C1330  C1332   1.429   .     A
C1331  O1401   1.374   .     S
C1331  N1361   1.385   .     A
C1332  O1406   1.383   .     S
C1332  N1362   1.377   .     A
C1333  O1369   1.313   .     A
C1333  C1335   1.477   .     S
C1333  O1179   1.310   1_655 S
C1334  C1336   1.482   .     S
C1334  O1370   1.313   .     A
C1335  C1339   1.411   .     A
C1335  C1341   1.407   .     A
C1336  C1340   1.412   .     A
C1336  C1342   1.414   .     A
C1337  C1345   1.397   .     A
C1337  C1339   1.397   .     A
C1337  H1353   1.081   .     S
C1338  C1340   1.407   .     A
C1338  H1354   1.082   .     S
C1338  C1346   1.397   .     A
C1339  O1198   1.384   1_655 S
C1341  O1376   1.384   .     S
C1341  C1343   1.417   .     A
C1342  O1371   1.383   .     S
C1342  C1344   1.411   .     A
C1343  C1345   1.414   .     A
C1343  C1347   1.418   .     A
C1344  C1348   1.423   .     A
C1344  C1346   1.411   .     A
C1345  C475    1.396   1_556 S
C1347  C502    1.417   1_556 S
Cu1349 N1361   2.048   .     S
Cu1349 O1366   1.938   .     S
Cu1349 O1363   1.944   .     S
Cu1349 O1370   1.969   .     S
Cu1349 O1367   1.967   .     S
Cu1350 N1362   2.048   .     S
Cu1350 O1364   1.944   .     S
Cu1350 O1365   1.938   .     S
Cu1350 O1368   1.967   .     S
Cu1350 O1369   1.969   .     S
Cu1350 Cu1161  2.725   1_655 S
O1365  C1129   1.302   1_655 S
O1368  C1146   1.312   1_655 S
O1371  C1372   1.413   .     S
C1372  H1373   1.113   .     S
C1372  H1374   1.114   .     S
C1372  H1375   1.106   .     S
O1376  C1377   1.411   .     S
C1377  H1379   1.113   .     S
C1377  H1380   1.109   .     S
C1377  H1378   1.114   .     S
O1381  C1382   1.408   .     S
O1381  C1152   1.395   1_655 S
C1382  H1384   1.106   .     S
C1382  H1385   1.111   .     S
C1382  H1383   1.108   .     S
O1386  C1387   1.418   .     S
C1387  H1389   1.110   .     S
C1387  H1390   1.114   .     S
C1387  H1388   1.110   .     S
O1391  C1392   1.408   .     S
C1392  H1395   1.105   .     S
C1392  H1393   1.110   .     S
C1392  H1394   1.107   .     S
O1396  C1397   1.414   .     S
C1397  H1398   1.115   .     S
C1397  H1399   1.109   .     S
C1397  H1400   1.107   .     S
O1401  C1402   1.420   .     S
C1402  H1404   1.111   .     S
C1402  H1403   1.109   .     S
C1402  H1405   1.109   .     S
O1406  C1407   1.412   .     S
C1407  H1408   1.109   .     S
C1407  H1409   1.108   .     S
C1407  H1410   1.107   .     S
C1411  C1422   1.433   .     S
C1411  O1457   1.300   .     A
C1411  O1647   1.302   1_455 S
C1412  C1421   1.433   .     S
C1412  O1458   1.302   .     A
C1412  O1554   1.300   .     S
C1413  H1449   1.080   .     S
C1413  C1442   1.409   .     A
C1413  C1415   1.392   .     A
C1414  H1450   1.080   .     S
C1414  C1416   1.382   .     A
C1414  C1441   1.405   .     A
C1415  H1445   1.083   .     S
C1416  H1446   1.067   .     S
C1416  C594    1.389   1_556 S
C1417  H1451   1.083   .     S
C1417  C1516   1.396   .     S
C1418  H1452   1.083   .     S
C1418  C856    1.387   1_565 S
C1418  C1609   1.398   1_455 S
C1419  H1453   1.084   .     S
C1419  C1421   1.396   .     A
C1419  C853    1.386   1_565 S
C1420  H1454   1.084   .     S
C1420  C1422   1.397   .     A
C1421  C1512   1.398   .     S
C1422  C1605   1.396   1_455 S
C1423  N1456   1.368   .     A
C1423  O1485   1.391   .     S
C1423  C1425   1.444   .     A
C1424  O1490   1.380   .     S
C1424  N1455   1.378   .     A
C1424  C1426   1.429   .     A
C1425  O1495   1.374   .     S
C1425  N1455   1.385   .     A
C1426  O1500   1.383   .     S
C1426  N1456   1.377   .     A
C1427  O1463   1.313   .     A
C1427  C1429   1.477   .     S
C1427  O1555   1.310   .     S
C1428  C1430   1.482   .     S
C1428  O1464   1.313   .     A
C1428  O1650   1.312   1_455 S
C1429  C1433   1.411   .     A
C1429  C1435   1.407   .     A
C1430  C1434   1.412   .     A
C1430  C1436   1.414   .     A
C1431  C1439   1.397   .     A
C1431  C1433   1.397   .     A
C1431  H1447   1.081   .     S
C1432  C1434   1.407   .     A
C1432  H1448   1.082   .     S
C1432  C1440   1.397   .     A
C1433  O1574   1.384   .     S
C1434  O1663   1.395   1_455 S
C1435  O1470   1.384   .     S
C1435  C1437   1.417   .     A
C1436  O1465   1.383   .     S
C1436  C1438   1.411   .     A
C1437  C1439   1.414   .     A
C1437  C1441   1.418   .     A
C1438  C1442   1.423   .     A
C1438  C1440   1.411   .     A
C1439  C569    1.396   1_556 S
C1441  C596    1.417   1_556 S
Cu1443 N1455   2.048   .     S
Cu1443 O1460   1.938   .     S
Cu1443 O1457   1.944   .     S
Cu1443 O1464   1.969   .     S
Cu1443 O1461   1.967   .     S
Cu1443 Cu1632  2.725   1_455 S
Cu1444 N1456   2.048   .     S
Cu1444 O1458   1.944   .     S
Cu1444 O1459   1.938   .     S
Cu1444 O1462   1.967   .     S
Cu1444 O1463   1.969   .     S
Cu1444 Cu1537  2.725   .     S
O1459  C1505   1.302   .     S
O1460  C1600   1.300   1_455 S
O1461  C1615   1.310   1_455 S
O1462  C1522   1.312   .     S
O1465  C1466   1.413   .     S
C1466  H1467   1.113   .     S
C1466  H1468   1.114   .     S
C1466  H1469   1.106   .     S
O1470  C1471   1.411   .     S
C1471  H1473   1.113   .     S
C1471  H1474   1.109   .     S
C1471  H1472   1.114   .     S
O1475  C1476   1.408   .     S
O1475  C1528   1.395   .     S
C1476  H1478   1.106   .     S
C1476  H1479   1.111   .     S
C1476  H1477   1.108   .     S
O1480  C1481   1.418   .     S
O1480  C1621   1.384   1_455 S
C1481  H1483   1.110   .     S
C1481  H1484   1.114   .     S
C1481  H1482   1.110   .     S
O1485  C1486   1.408   .     S
C1486  H1489   1.105   .     S
C1486  H1487   1.110   .     S
C1486  H1488   1.107   .     S
O1490  C1491   1.414   .     S
C1491  H1492   1.115   .     S
C1491  H1493   1.109   .     S
C1491  H1494   1.107   .     S
O1495  C1496   1.420   .     S
C1496  H1498   1.111   .     S
C1496  H1497   1.109   .     S
C1496  H1499   1.109   .     S
O1500  C1501   1.412   .     S
C1501  H1502   1.109   .     S
C1501  H1503   1.108   .     S
C1501  H1504   1.107   .     S
C1505  C1516   1.433   .     S
C1505  O1551   1.300   .     A
C1506  C1515   1.433   .     S
C1506  O1552   1.302   .     A
C1506  O1648   1.300   .     S
C1507  H1543   1.080   .     S
C1507  C1536   1.409   .     A
C1507  C1509   1.392   .     A
C1508  H1544   1.080   .     S
C1508  C1510   1.382   .     A
C1508  C1535   1.405   .     A
C1509  H1539   1.083   .     S
C1510  H1540   1.067   .     S
C1510  C688    1.389   1_556 S
C1511  H1545   1.083   .     S
C1511  C1610   1.396   .     S
C1512  H1546   1.083   .     S
C1512  C950    1.387   1_565 S
C1513  H1547   1.084   .     S
C1513  C1515   1.396   .     A
C1513  C947    1.386   1_565 S
C1514  H1548   1.084   .     S
C1514  C1516   1.397   .     A
C1515  C1606   1.398   .     S
C1517  N1550   1.368   .     A
C1517  O1579   1.391   .     S
C1517  C1519   1.444   .     A
C1518  O1584   1.380   .     S
C1518  N1549   1.378   .     A
C1518  C1520   1.429   .     A
C1519  O1589   1.374   .     S
C1519  N1549   1.385   .     A
C1520  O1594   1.383   .     S
C1520  N1550   1.377   .     A
C1521  O1557   1.313   .     A
C1521  C1523   1.477   .     S
C1521  O1649   1.310   .     S
C1522  C1524   1.482   .     S
C1522  O1558   1.313   .     A
C1523  C1527   1.411   .     A
C1523  C1529   1.407   .     A
C1524  C1528   1.412   .     A
C1524  C1530   1.414   .     A
C1525  C1533   1.397   .     A
C1525  C1527   1.397   .     A
C1525  H1541   1.081   .     S
C1526  C1528   1.407   .     A
C1526  H1542   1.082   .     S
C1526  C1534   1.397   .     A
C1527  O1668   1.384   .     S
C1529  O1564   1.384   .     S
C1529  C1531   1.417   .     A
C1530  O1559   1.383   .     S
C1530  C1532   1.411   .     A
C1531  C1533   1.414   .     A
C1531  C1535   1.418   .     A
C1532  C1536   1.423   .     A
C1532  C1534   1.411   .     A
C1533  C663    1.396   1_556 S
C1535  C690    1.417   1_556 S
Cu1537 N1549   2.048   .     S
Cu1537 O1554   1.938   .     S
Cu1537 O1551   1.944   .     S
Cu1537 O1558   1.969   .     S
Cu1537 O1555   1.967   .     S
Cu1538 N1550   2.048   .     S
Cu1538 O1552   1.944   .     S
Cu1538 O1553   1.938   .     S
Cu1538 O1556   1.967   .     S
Cu1538 O1557   1.969   .     S
Cu1538 Cu1631  2.725   .     S
O1553  C1599   1.302   .     S
O1556  C1616   1.312   .     S
O1559  C1560   1.413   .     S
C1560  H1561   1.113   .     S
C1560  H1562   1.114   .     S
C1560  H1563   1.106   .     S
O1564  C1565   1.411   .     S
C1565  H1567   1.113   .     S
C1565  H1568   1.109   .     S
C1565  H1566   1.114   .     S
O1569  C1570   1.408   .     S
O1569  C1622   1.395   .     S
C1570  H1572   1.106   .     S
C1570  H1573   1.111   .     S
C1570  H1571   1.108   .     S
O1574  C1575   1.418   .     S
C1575  H1577   1.110   .     S
C1575  H1578   1.114   .     S
C1575  H1576   1.110   .     S
O1579  C1580   1.408   .     S
C1580  H1583   1.105   .     S
C1580  H1581   1.110   .     S
C1580  H1582   1.107   .     S
O1584  C1585   1.414   .     S
C1585  H1586   1.115   .     S
C1585  H1587   1.109   .     S
C1585  H1588   1.107   .     S
O1589  C1590   1.420   .     S
C1590  H1592   1.111   .     S
C1590  H1591   1.109   .     S
C1590  H1593   1.109   .     S
O1594  C1595   1.412   .     S
C1595  H1596   1.109   .     S
C1595  H1597   1.108   .     S
C1595  H1598   1.107   .     S
C1599  C1610   1.433   .     S
C1599  O1645   1.300   .     A
C1600  C1609   1.433   .     S
C1600  O1646   1.302   .     A
C1600  O1460   1.300   1_655 S
C1601  H1637   1.080   .     S
C1601  C1630   1.409   .     A
C1601  C1603   1.392   .     A
C1602  H1638   1.080   .     S
C1602  C1604   1.382   .     A
C1602  C1629   1.405   .     A
C1603  H1633   1.083   .     S
C1604  H1634   1.067   .     S
C1604  C782    1.389   1_556 S
C1605  H1639   1.083   .     S
C1605  C1422   1.396   1_655 S
C1606  H1640   1.083   .     S
C1606  C1044   1.387   1_565 S
C1607  H1641   1.084   .     S
C1607  C1609   1.396   .     A
C1607  C1041   1.386   1_565 S
C1608  H1642   1.084   .     S
C1608  C1610   1.397   .     A
C1609  C1418   1.398   1_655 S
C1611  N1644   1.368   .     A
C1611  O1673   1.391   .     S
C1611  C1613   1.444   .     A
C1612  O1678   1.380   .     S
C1612  N1643   1.378   .     A
C1612  C1614   1.429   .     A
C1613  O1683   1.374   .     S
C1613  N1643   1.385   .     A
C1614  O1688   1.383   .     S
C1614  N1644   1.377   .     A
C1615  O1651   1.313   .     A
C1615  C1617   1.477   .     S
C1615  O1461   1.310   1_655 S
C1616  C1618   1.482   .     S
C1616  O1652   1.313   .     A
C1617  C1621   1.411   .     A
C1617  C1623   1.407   .     A
C1618  C1622   1.412   .     A
C1618  C1624   1.414   .     A
C1619  C1627   1.397   .     A
C1619  C1621   1.397   .     A
C1619  H1635   1.081   .     S
C1620  C1622   1.407   .     A
C1620  H1636   1.082   .     S
C1620  C1628   1.397   .     A
C1621  O1480   1.384   1_655 S
C1623  O1658   1.384   .     S
C1623  C1625   1.417   .     A
C1624  O1653   1.383   .     S
C1624  C1626   1.411   .     A
C1625  C1627   1.414   .     A
C1625  C1629   1.418   .     A
C1626  C1630   1.423   .     A
C1626  C1628   1.411   .     A
C1627  C757    1.396   1_556 S
C1629  C784    1.417   1_556 S
Cu1631 N1643   2.048   .     S
Cu1631 O1648   1.938   .     S
Cu1631 O1645   1.944   .     S
Cu1631 O1652   1.969   .     S
Cu1631 O1649   1.967   .     S
Cu1632 N1644   2.048   .     S
Cu1632 O1646   1.944   .     S
Cu1632 O1647   1.938   .     S
Cu1632 O1650   1.967   .     S
Cu1632 O1651   1.969   .     S
Cu1632 Cu1443  2.725   1_655 S
O1647  C1411   1.302   1_655 S
O1650  C1428   1.312   1_655 S
O1653  C1654   1.413   .     S
C1654  H1655   1.113   .     S
C1654  H1656   1.114   .     S
C1654  H1657   1.106   .     S
O1658  C1659   1.411   .     S
C1659  H1661   1.113   .     S
C1659  H1662   1.109   .     S
C1659  H1660   1.114   .     S
O1663  C1664   1.408   .     S
O1663  C1434   1.395   1_655 S
C1664  H1666   1.106   .     S
C1664  H1667   1.111   .     S
C1664  H1665   1.108   .     S
O1668  C1669   1.418   .     S
C1669  H1671   1.110   .     S
C1669  H1672   1.114   .     S
C1669  H1670   1.110   .     S
O1673  C1674   1.408   .     S
C1674  H1677   1.105   .     S
C1674  H1675   1.110   .     S
C1674  H1676   1.107   .     S
O1678  C1679   1.414   .     S
C1679  H1680   1.115   .     S
C1679  H1681   1.109   .     S
C1679  H1682   1.107   .     S
O1683  C1684   1.420   .     S
C1684  H1686   1.111   .     S
C1684  H1685   1.109   .     S
C1684  H1687   1.109   .     S
O1688  C1689   1.412   .     S
C1689  H1690   1.109   .     S
C1689  H1691   1.108   .     S
C1689  H1692   1.107   .     S
