data_str_m1_o1_o5_pcu_sym.2
_audit_creation_date              2020-01-03
_audit_creation_method            'Materials Studio'
_symmetry_space_group_name_H-M    'P1'
_symmetry_Int_Tables_number       1
_symmetry_cell_setting            triclinic
loop_
_symmetry_equiv_pos_as_xyz
  x,y,z
_cell_length_a                    36.7284
_cell_length_b                    36.6142
_cell_length_c                    22.4043
_cell_angle_alpha                 89.9999
_cell_angle_beta                  90.0001
_cell_angle_gamma                 89.9553
loop_
_atom_site_label
_atom_site_type_symbol
_atom_site_fract_x
_atom_site_fract_y
_atom_site_fract_z
_atom_site_U_iso_or_equiv
_atom_site_adp_type
_atom_site_occupancy
C1     C     0.49999   0.25002   0.02668   0.00000  Uiso   1.00
C2     C     0.49999   0.25000   0.58990   0.00000  Uiso   1.00
C3     C     0.41145   0.34477   0.09786   0.00000  Uiso   1.00
C4     C     0.37152   0.07022   0.84711   0.00000  Uiso   1.00
C5     C     0.38965   0.03534   0.82401   0.00000  Uiso   1.00
C6     C     0.13195   0.42610   0.14870   0.00000  Uiso   1.00
C7     C     0.15571   0.41116   0.09818   0.00000  Uiso   1.00
C8     C     0.42058   0.36360   0.85689   0.00000  Uiso   1.00
C9     C     0.45849   0.37974   0.84953   0.00000  Uiso   1.00
C10    C     0.13341   0.19143   0.32275   0.00000  Uiso   1.00
C11    C     0.11738   0.18468   0.38466   0.00000  Uiso   1.00
C12    C     0.13829   0.42062   0.85745   0.00000  Uiso   1.00
C13    C     0.25000   0.49999   0.41006   0.00000  Uiso   1.00
C14    C     0.13082   0.46143   0.84832   0.00000  Uiso   1.00
C15    C     0.36542   0.07631   0.14634   0.00000  Uiso   1.00
C16    C     0.34206   0.09407   0.09786   0.00000  Uiso   1.00
C17    C     0.32348   0.12005   0.64977   0.00000  Uiso   1.00
C18    C     0.29085   0.14428   0.66426   0.00000  Uiso   1.00
C19    C     0.17498   0.38152   0.35332   0.00000  Uiso   1.00
C20    C     0.20037   0.34851   0.35671   0.00000  Uiso   1.00
C21    C     0.05617   0.11272   0.81415   0.00000  Uiso   1.00
C22    C     0.03092   0.08969   0.77499   0.00000  Uiso   1.00
C23    C     0.38252   0.32469   0.35238   0.00000  Uiso   1.00
C24    C     0.25000   0.49999   0.58995   0.00000  Uiso   1.00
C25    C     0.40786   0.33821   0.40196   0.00000  Uiso   1.00
C26    C     0.17540   0.38172   0.64775   0.00000  Uiso   1.00
C27    C     0.21113   0.36203   0.66151   0.00000  Uiso   1.00
C28    C     0.33392   0.11080   0.36104   0.00000  Uiso   1.00
C29    C     0.29663   0.12890   0.36422   0.00000  Uiso   1.00
C30    C     0.38215   0.32428   0.64779   0.00000  Uiso   1.00
C31    C     0.36308   0.28817   0.66157   0.00000  Uiso   1.00
C32    C     0.05881   0.11606   0.17632   0.00000  Uiso   1.00
C33    C     0.06469   0.13308   0.11482   0.00000  Uiso   1.00
C34    C     0.32944   0.38642   0.35691   0.00000  Uiso   1.00
C35    C     0.25000  -0.00000   0.91010   0.00000  Uiso   1.00
C36    C     0.29152   0.37028   0.34957   0.00000  Uiso   1.00
C37    C     0.11659   0.05857   0.82274   0.00000  Uiso   1.00
C38    C     0.13262   0.06531   0.88465   0.00000  Uiso   1.00
C39    C     0.11173   0.32937   0.35744   0.00000  Uiso   1.00
C40    C     0.11919   0.28856   0.34829   0.00000  Uiso   1.00
C41    C     0.38458   0.17369   0.64634   0.00000  Uiso   1.00
C42    C     0.40794   0.15593   0.59786   0.00000  Uiso   1.00
C43    C     0.11562   0.05745   0.17882   0.00000  Uiso   1.00
C44    C     0.09581   0.02790   0.21435   0.00000  Uiso   1.00
C45    C     0.32379   0.38130   0.64840   0.00000  Uiso   1.00
C46    C     0.25001  -0.00000   0.08990   0.00000  Uiso   1.00
C47    C     0.33849   0.40520   0.59785   0.00000  Uiso   1.00
C48    C     0.37848   0.17978   0.34711   0.00000  Uiso   1.00
C49    C     0.36036   0.21466   0.32401   0.00000  Uiso   1.00
C50    C     0.11804   0.32391   0.64869   0.00000  Uiso   1.00
C51    C     0.09428   0.33886   0.59818   0.00000  Uiso   1.00
C52    C    -0.00000   0.25001   0.91006   0.00000  Uiso   1.00
C53    C    -0.00000   0.25001   0.08995   0.00000  Uiso   1.00
C54    C     0.06985   0.17988   0.24977   0.00000  Uiso   1.00
C55    C     0.42995   0.31997   0.75004   0.00000  Uiso   1.00
C56    C     0.18018   0.42982   0.25031   0.00000  Uiso   1.00
C57    C     0.49999   0.25002   0.97332   0.00000  Uiso   1.00
C58    C     0.31994   0.07003   0.74981   0.00000  Uiso   1.00
C59    C     0.43010   0.32002   0.24998   0.00000  Uiso   1.00
C60    C     0.06996   0.18001   0.74990   0.00000  Uiso   1.00
C61    C     0.31963   0.07039   0.25113   0.00000  Uiso   1.00
C62    C     0.18031   0.42971   0.74955   0.00000  Uiso   1.00
C63    C     0.06982   0.32018   0.75031   0.00000  Uiso   1.00
C64    C     0.43005   0.17997   0.24981   0.00000  Uiso   1.00
C65    C     0.18015   0.07012   0.74977   0.00000  Uiso   1.00
C66    C     0.32005   0.43003   0.25004   0.00000  Uiso   1.00
C67    C     0.43037   0.17961   0.75113   0.00000  Uiso   1.00
C68    C     0.25001   0.49999   0.02667   0.00000  Uiso   1.00
C69    C     0.06969   0.32029   0.24955   0.00000  Uiso   1.00
C70    C     0.31990   0.42998   0.74998   0.00000  Uiso   1.00
C71    C     0.18004   0.06999   0.24990   0.00000  Uiso   1.00
C72    C     0.10146   0.37154   0.19978   0.00000  Uiso   1.00
C73    C     0.39630   0.13018   0.80281   0.00000  Uiso   1.00
C74    C     0.37153   0.39877   0.19975   0.00000  Uiso   1.00
C75    C     0.15718   0.13016   0.71502   0.00000  Uiso   1.00
C76    C     0.39848   0.12837   0.20014   0.00000  Uiso   1.00
C77    C     0.10173   0.37143   0.80093   0.00000  Uiso   1.00
C78    C     0.15764   0.13060   0.28245   0.00000  Uiso   1.00
C79    C     0.25000   0.49999   0.97333   0.00000  Uiso   1.00
C80    C     0.37042   0.39799   0.80084   0.00000  Uiso   1.00
C81    C     0.12999   0.15755   0.71542   0.00000  Uiso   1.00
C82    C     0.39907   0.37174   0.19999   0.00000  Uiso   1.00
C83    C     0.37181   0.10045   0.79966   0.00000  Uiso   1.00
C84    C     0.12866   0.39886   0.20026   0.00000  Uiso   1.00
C85    C     0.39693   0.37001   0.80164   0.00000  Uiso   1.00
C86    C     0.12991   0.15737   0.28368   0.00000  Uiso   1.00
C87    C     0.13020   0.39758   0.80163   0.00000  Uiso   1.00
C88    C     0.37049   0.10186   0.19982   0.00000  Uiso   1.00
C89    C     0.35152   0.12163   0.70014   0.00000  Uiso   1.00
C90    C     0.25001   0.49998   0.52668   0.00000  Uiso   1.00
C91    C     0.14828   0.37856   0.30091   0.00000  Uiso   1.00
C92    C     0.09236   0.11939   0.78245   0.00000  Uiso   1.00
C93    C     0.37959   0.35201   0.30084   0.00000  Uiso   1.00
C94    C     0.14853   0.37846   0.69978   0.00000  Uiso   1.00
C95    C     0.35370   0.11982   0.30281   0.00000  Uiso   1.00
C96    C     0.37847   0.35122   0.69976   0.00000  Uiso   1.00
C97    C     0.09282   0.11984   0.21502   0.00000  Uiso   1.00
C98    C     0.35308   0.38000   0.30164   0.00000  Uiso   1.00
C99    C     0.12009   0.09263   0.78367   0.00000  Uiso   1.00
C100   C     0.11981   0.35241   0.30162   0.00000  Uiso   1.00
C101   C     0.25001   0.49998   0.47332   0.00000  Uiso   1.00
C102   C     0.37950   0.14814   0.69982   0.00000  Uiso   1.00
C103   C     0.12001   0.09245   0.21542   0.00000  Uiso   1.00
C104   C     0.35092   0.37825   0.70000   0.00000  Uiso   1.00
C105   C     0.37819   0.14955   0.29967   0.00000  Uiso   1.00
C106   C     0.12133   0.35115   0.70025   0.00000  Uiso   1.00
C107   C     0.15205   0.40170   0.25039   0.00000  Uiso   1.00
C108   C     0.34836   0.09782   0.74974   0.00000  Uiso   1.00
C109   C     0.40223   0.34829   0.25006   0.00000  Uiso   1.00
C110   C     0.09802   0.15188   0.74949   0.00000  Uiso   1.00
C111   C     0.34830   0.09798   0.25115   0.00000  Uiso   1.00
C112   C     0.49999   0.25001   0.52667   0.00000  Uiso   1.00
C113   C     0.15230   0.40154   0.75016   0.00000  Uiso   1.00
C114   C     0.09795   0.15173   0.24975   0.00000  Uiso   1.00
C115   C     0.40150   0.34784   0.75023   0.00000  Uiso   1.00
C116   C     0.15205   0.09827   0.74975   0.00000  Uiso   1.00
C117   C     0.34850   0.40216   0.25023   0.00000  Uiso   1.00
C118   C     0.40170   0.15202   0.75115   0.00000  Uiso   1.00
C119   C     0.09770   0.34846   0.25016   0.00000  Uiso   1.00
C120   C     0.34777   0.40171   0.75006   0.00000  Uiso   1.00
C121   C     0.15198   0.09812   0.24949   0.00000  Uiso   1.00
C122   C     0.09795   0.34830   0.75039   0.00000  Uiso   1.00
C123   C     0.49999   0.25001   0.47333   0.00000  Uiso   1.00
C124   C     0.40164   0.15218   0.24974   0.00000  Uiso   1.00
C125   C     0.07459   0.36829   0.14776   0.00000  Uiso   1.00
C126   C     0.03886   0.38798   0.16154   0.00000  Uiso   1.00
C127   C     0.41608   0.13919   0.86104   0.00000  Uiso   1.00
C128   C     0.45337   0.12110   0.86422   0.00000  Uiso   1.00
C129   C     0.36784   0.42571   0.14778   0.00000  Uiso   1.00
C130   C     0.38694   0.46181   0.16154   0.00000  Uiso   1.00
C131   C     0.19119   0.13394   0.67632   0.00000  Uiso   1.00
C132   C     0.18531   0.11692   0.61482   0.00000  Uiso   1.00
C133   C     0.42652   0.12996   0.14977   0.00000  Uiso   1.00
C134   C     0.00000   0.25000   0.41010   0.00000  Uiso   1.00
C135   C     0.45915   0.10572   0.16425   0.00000  Uiso   1.00
C136   C     0.07504   0.36846   0.85335   0.00000  Uiso   1.00
C137   C     0.04965   0.40147   0.85677   0.00000  Uiso   1.00
C138   C     0.19383   0.13728   0.31416   0.00000  Uiso   1.00
C139   C     0.21908   0.16031   0.27500   0.00000  Uiso   1.00
C140   C     0.36749   0.42532   0.85237   0.00000  Uiso   1.00
C141   C     0.34216   0.41179   0.90197   0.00000  Uiso   1.00
C142   C     0.13438   0.19255   0.67883   0.00000  Uiso   1.00
C143   C     0.15419   0.22210   0.71436   0.00000  Uiso   1.00
C144   C     0.42618   0.36867   0.14838   0.00000  Uiso   1.00
H145   H     0.02516   0.37556   0.20072   0.00000  Uiso   1.00
H146   H     0.39958   0.13211   0.90073   0.00000  Uiso   1.00
H147   H     0.39240   0.29769   0.33673   0.00000  Uiso   1.00
H148   H     0.22484   0.37444   0.70069   0.00000  Uiso   1.00
H149   H     0.22969   0.36415   0.62254   0.00000  Uiso   1.00
H150   H     0.20601   0.33269   0.67081   0.00000  Uiso   1.00
H151   H     0.16439   0.37085   0.60545   0.00000  Uiso   1.00
H152   H     0.18113   0.41068   0.63697   0.00000  Uiso   1.00
H153   H     0.29916   0.15900   0.36049   0.00000  Uiso   1.00
H154   H     0.27909   0.11847   0.32772   0.00000  Uiso   1.00
H155   H     0.28350   0.12228   0.40753   0.00000  Uiso   1.00
H156   H     0.33053   0.08106   0.36708   0.00000  Uiso   1.00
H157   H     0.37439   0.47539   0.20075   0.00000  Uiso   1.00
H158   H     0.35042   0.11789   0.40073   0.00000  Uiso   1.00
H159   H     0.37565   0.27460   0.70077   0.00000  Uiso   1.00
H160   H     0.36551   0.26956   0.62263   0.00000  Uiso   1.00
H161   H     0.33375   0.29289   0.67082   0.00000  Uiso   1.00
H162   H     0.37111   0.33514   0.60548   0.00000  Uiso   1.00
H163   H     0.41110   0.31896   0.63700   0.00000  Uiso   1.00
H164   H     0.08813   0.12011   0.09181   0.00000  Uiso   1.00
H165   H     0.03997   0.12918   0.08705   0.00000  Uiso   1.00
H166   H     0.06995   0.16282   0.11893   0.00000  Uiso   1.00
H167   H     0.05019   0.08727   0.17122   0.00000  Uiso   1.00
H168   H     0.38450   0.48042   0.12260   0.00000  Uiso   1.00
H169   H     0.03506   0.12935   0.19767   0.00000  Uiso   1.00
H170   H     0.27660   0.38363   0.31250   0.00000  Uiso   1.00
H171   H     0.29321   0.34047   0.34089   0.00000  Uiso   1.00
H172   H     0.27610   0.37482   0.39148   0.00000  Uiso   1.00
H173   H     0.34138   0.37489   0.39801   0.00000  Uiso   1.00
H174   H     0.32733   0.41590   0.36737   0.00000  Uiso   1.00
H175   H     0.16217   0.07128   0.88142   0.00000  Uiso   1.00
H176   H     0.11877   0.08868   0.90664   0.00000  Uiso   1.00
H177   H     0.12893   0.04067   0.91284   0.00000  Uiso   1.00
H178   H     0.08810   0.04919   0.82730   0.00000  Uiso   1.00
H179   H     0.41626   0.45707   0.17076   0.00000  Uiso   1.00
H180   H     0.13046   0.03486   0.80217   0.00000  Uiso   1.00
H181   H     0.09449   0.27441   0.33174   0.00000  Uiso   1.00
H182   H     0.14183   0.28403   0.31627   0.00000  Uiso   1.00
H183   H     0.12663   0.27582   0.39158   0.00000  Uiso   1.00
H184   H     0.12723   0.33806   0.39711   0.00000  Uiso   1.00
H185   H     0.08299   0.33337   0.37127   0.00000  Uiso   1.00
H186   H     0.43563   0.14996   0.61504   0.00000  Uiso   1.00
H187   H     0.39564   0.13002   0.58207   0.00000  Uiso   1.00
H188   H     0.41043   0.17483   0.55931   0.00000  Uiso   1.00
H189   H     0.35811   0.18236   0.62735   0.00000  Uiso   1.00
H190   H     0.37886   0.41484   0.10547   0.00000  Uiso   1.00
H191   H     0.39738   0.19994   0.65935   0.00000  Uiso   1.00
H192   H     0.11201   0.01979   0.25399   0.00000  Uiso   1.00
H193   H     0.06876   0.03770   0.22956   0.00000  Uiso   1.00
H194   H     0.09182   0.00343   0.18582   0.00000  Uiso   1.00
H195   H     0.10108   0.06257   0.13633   0.00000  Uiso   1.00
H196   H     0.14234   0.04650   0.16412   0.00000  Uiso   1.00
H197   H     0.34229   0.43371   0.61324   0.00000  Uiso   1.00
H198   H     0.36502   0.39491   0.58122   0.00000  Uiso   1.00
H199   H     0.31879   0.40531   0.56025   0.00000  Uiso   1.00
H200   H     0.31627   0.35398   0.63102   0.00000  Uiso   1.00
H201   H     0.33889   0.43105   0.13701   0.00000  Uiso   1.00
H202   H     0.29733   0.39276   0.66336   0.00000  Uiso   1.00
H203   H     0.37608   0.22697   0.28697   0.00000  Uiso   1.00
H204   H     0.33233   0.20872   0.30818   0.00000  Uiso   1.00
H205   H     0.35872   0.23504   0.36063   0.00000  Uiso   1.00
H206   H     0.36399   0.17258   0.38853   0.00000  Uiso   1.00
H207   H     0.40672   0.18582   0.36163   0.00000  Uiso   1.00
H208   H     0.06590   0.34295   0.61364   0.00000  Uiso   1.00
H209   H     0.10472   0.36536   0.58148   0.00000  Uiso   1.00
H210   H     0.09396   0.31908   0.56061   0.00000  Uiso   1.00
H211   H     0.14520   0.31612   0.63122   0.00000  Uiso   1.00
H212   H     0.16187   0.12989   0.59181   0.00000  Uiso   1.00
H213   H     0.10649   0.29745   0.66364   0.00000  Uiso   1.00
H214   H     0.21003   0.12083   0.58705   0.00000  Uiso   1.00
H215   H     0.18005   0.08718   0.61894   0.00000  Uiso   1.00
H216   H     0.19981   0.16273   0.67122   0.00000  Uiso   1.00
H217   H     0.02030   0.38586   0.12257   0.00000  Uiso   1.00
H218   H     0.21495   0.12065   0.69768   0.00000  Uiso   1.00
H219   H     0.47214   0.11481   0.20643   0.00000  Uiso   1.00
H220   H     0.47937   0.10742   0.12757   0.00000  Uiso   1.00
H221   H     0.45063   0.07681   0.16933   0.00000  Uiso   1.00
H222   H     0.41501   0.12181   0.10615   0.00000  Uiso   1.00
H223   H     0.43623   0.15815   0.14164   0.00000  Uiso   1.00
H224   H     0.06463   0.42744   0.86115   0.00000  Uiso   1.00
H225   H     0.03248   0.40284   0.81605   0.00000  Uiso   1.00
H226   H     0.03199   0.39889   0.89666   0.00000  Uiso   1.00
H227   H     0.05715   0.34424   0.85079   0.00000  Uiso   1.00
H228   H     0.04398   0.41732   0.17084   0.00000  Uiso   1.00
H229   H     0.08982   0.36439   0.89597   0.00000  Uiso   1.00
H230   H     0.23020   0.14343   0.23808   0.00000  Uiso   1.00
H231   H     0.24200   0.17094   0.30207   0.00000  Uiso   1.00
H232   H     0.20452   0.18402   0.25539   0.00000  Uiso   1.00
H233   H     0.18965   0.15069   0.35798   0.00000  Uiso   1.00
H234   H     0.20799   0.11148   0.32581   0.00000  Uiso   1.00
H235   H     0.31354   0.41103   0.88649   0.00000  Uiso   1.00
H236   H     0.34966   0.38398   0.91722   0.00000  Uiso   1.00
H237   H     0.34375   0.43070   0.94064   0.00000  Uiso   1.00
H238   H     0.39474   0.43159   0.87106   0.00000  Uiso   1.00
H239   H     0.08560   0.37916   0.10546   0.00000  Uiso   1.00
H240   H     0.35760   0.45232   0.83673   0.00000  Uiso   1.00
H241   H     0.13799   0.23020   0.75400   0.00000  Uiso   1.00
H242   H     0.18124   0.21230   0.72956   0.00000  Uiso   1.00
H243   H     0.15818   0.24658   0.68584   0.00000  Uiso   1.00
H244   H     0.14893   0.18743   0.63633   0.00000  Uiso   1.00
H245   H     0.10766   0.20350   0.66412   0.00000  Uiso   1.00
H246   H     0.40766   0.31626   0.11327   0.00000  Uiso   1.00
H247   H     0.38492   0.35506   0.08125   0.00000  Uiso   1.00
H248   H     0.43113   0.34464   0.06024   0.00000  Uiso   1.00
H249   H     0.43370   0.39599   0.13097   0.00000  Uiso   1.00
H250   H     0.06886   0.33933   0.13698   0.00000  Uiso   1.00
H251   H     0.45264   0.35721   0.16331   0.00000  Uiso   1.00
H252   H     0.37393   0.02304   0.78695   0.00000  Uiso   1.00
H253   H     0.41768   0.04128   0.80820   0.00000  Uiso   1.00
H254   H     0.39128   0.01496   0.86062   0.00000  Uiso   1.00
H255   H     0.38601   0.07741   0.88853   0.00000  Uiso   1.00
H256   H     0.34328   0.06418   0.86163   0.00000  Uiso   1.00
H257   H     0.18409   0.40707   0.11363   0.00000  Uiso   1.00
H258   H     0.14526   0.38466   0.08148   0.00000  Uiso   1.00
H259   H     0.15601   0.43095   0.06062   0.00000  Uiso   1.00
H260   H     0.10479   0.43390   0.13124   0.00000  Uiso   1.00
H261   H     0.45084   0.09100   0.86048   0.00000  Uiso   1.00
H262   H     0.14350   0.45256   0.16366   0.00000  Uiso   1.00
H263   H     0.47341   0.36639   0.81245   0.00000  Uiso   1.00
H264   H     0.45680   0.40955   0.84084   0.00000  Uiso   1.00
H265   H     0.47392   0.37521   0.89143   0.00000  Uiso   1.00
H266   H     0.40864   0.37513   0.89800   0.00000  Uiso   1.00
H267   H     0.42269   0.33412   0.86736   0.00000  Uiso   1.00
H268   H     0.08782   0.17871   0.38142   0.00000  Uiso   1.00
H269   H     0.13123   0.16131   0.40665   0.00000  Uiso   1.00
H270   H     0.12107   0.20932   0.41285   0.00000  Uiso   1.00
H271   H     0.16190   0.20081   0.32731   0.00000  Uiso   1.00
H272   H     0.47091   0.13153   0.82772   0.00000  Uiso   1.00
H273   H     0.11953   0.21513   0.30218   0.00000  Uiso   1.00
H274   H     0.15551   0.47558   0.83175   0.00000  Uiso   1.00
H275   H     0.10817   0.46595   0.81632   0.00000  Uiso   1.00
H276   H     0.12339   0.47416   0.89162   0.00000  Uiso   1.00
H277   H     0.12279   0.41192   0.89712   0.00000  Uiso   1.00
H278   H     0.16702   0.41662   0.87127   0.00000  Uiso   1.00
H279   H     0.31436   0.10005   0.11504   0.00000  Uiso   1.00
H280   H     0.35436   0.11998   0.08207   0.00000  Uiso   1.00
H281   H     0.33957   0.07517   0.05931   0.00000  Uiso   1.00
H282   H     0.39189   0.06764   0.12735   0.00000  Uiso   1.00
H283   H     0.46650   0.12772   0.90753   0.00000  Uiso   1.00
H284   H     0.35262   0.05006   0.15935   0.00000  Uiso   1.00
H285   H     0.27786   0.13519   0.70643   0.00000  Uiso   1.00
H286   H     0.27062   0.14259   0.62757   0.00000  Uiso   1.00
H287   H     0.29937   0.17319   0.66934   0.00000  Uiso   1.00
H288   H     0.33499   0.12820   0.60616   0.00000  Uiso   1.00
H289   H     0.31376   0.09186   0.64164   0.00000  Uiso   1.00
H290   H     0.18539   0.32254   0.36107   0.00000  Uiso   1.00
H291   H     0.21754   0.34714   0.31597   0.00000  Uiso   1.00
H292   H     0.21804   0.35107   0.39659   0.00000  Uiso   1.00
H293   H     0.19287   0.40574   0.35076   0.00000  Uiso   1.00
H294   H     0.41946   0.16894   0.86708   0.00000  Uiso   1.00
H295   H     0.16021   0.38558   0.39596   0.00000  Uiso   1.00
H296   H     0.01980   0.10658   0.73807   0.00000  Uiso   1.00
H297   H     0.00799   0.07906   0.80205   0.00000  Uiso   1.00
H298   H     0.04548   0.06598   0.75538   0.00000  Uiso   1.00
H299   H     0.06034   0.09930   0.85797   0.00000  Uiso   1.00
H300   H     0.04200   0.13851   0.82581   0.00000  Uiso   1.00
H301   H     0.43648   0.33900   0.38645   0.00000  Uiso   1.00
H302   H     0.40035   0.36601   0.41727   0.00000  Uiso   1.00
H303   H     0.40630   0.31927   0.44061   0.00000  Uiso   1.00
H304   H     0.35527   0.31843   0.37108   0.00000  Uiso   1.00
O305   O     0.00000   0.25000   0.25000   0.00000  Uiso   1.00
O306   O     0.00000   0.28035   0.61781   0.00000  Uiso   1.00
O307   O     0.21964   0.00000   0.38219   0.00000  Uiso   1.00
O308   O     0.28035  -0.00000   0.61781   0.00000  Uiso   1.00
O309   O     0.25000   0.03036   0.88219   0.00000  Uiso   1.00
O310   O     0.25000   0.46964   0.11781   0.00000  Uiso   1.00
O311   O     0.03035   0.25000   0.88219   0.00000  Uiso   1.00
O312   O     0.46964   0.25000   0.11781   0.00000  Uiso   1.00
O313   O     0.25000   0.46964   0.88219   0.00000  Uiso   1.00
O314   O     0.25000   0.03036   0.11781   0.00000  Uiso   1.00
O315   O     0.46964   0.25000   0.88219   0.00000  Uiso   1.00
O316   O     0.00000   0.25000   0.75000   0.00000  Uiso   1.00
O317   O     0.03035   0.25000   0.11781   0.00000  Uiso   1.00
O318   O     0.04267   0.17692   0.28474   0.00000  Uiso   1.00
O319   O     0.45732   0.32308   0.71526   0.00000  Uiso   1.00
O320   O     0.17692   0.45732   0.28474   0.00000  Uiso   1.00
O321   O     0.32307   0.04268   0.71526   0.00000  Uiso   1.00
O322   O     0.45732   0.32308   0.28474   0.00000  Uiso   1.00
O323   O     0.04267   0.17692   0.71526   0.00000  Uiso   1.00
O324   O     0.32307   0.04268   0.28474   0.00000  Uiso   1.00
O325   O     0.17692   0.45732   0.71526   0.00000  Uiso   1.00
O326   O     0.04267   0.32307   0.71526   0.00000  Uiso   1.00
O327   O     0.25000  -0.00000   0.25000   0.00000  Uiso   1.00
O328   O     0.45732   0.17693   0.28474   0.00000  Uiso   1.00
O329   O     0.17692   0.04268   0.71526   0.00000  Uiso   1.00
O330   O     0.32307   0.45732   0.28474   0.00000  Uiso   1.00
O331   O     0.45732   0.17693   0.71526   0.00000  Uiso   1.00
O332   O     0.04267   0.32307   0.28474   0.00000  Uiso   1.00
O333   O     0.32307   0.45732   0.71526   0.00000  Uiso   1.00
O334   O     0.17692   0.04268   0.28474   0.00000  Uiso   1.00
O335   O     0.29267   0.42692   0.78474   0.00000  Uiso   1.00
O336   O     0.20732   0.07308   0.21526   0.00000  Uiso   1.00
O337   O     0.42692   0.20733   0.78474   0.00000  Uiso   1.00
O338   O     0.25000  -0.00000   0.75000   0.00000  Uiso   1.00
O339   O     0.07307   0.29267   0.21526   0.00000  Uiso   1.00
O340   O     0.20732   0.07308   0.78474   0.00000  Uiso   1.00
O341   O     0.29267   0.42692   0.21526   0.00000  Uiso   1.00
O342   O     0.07307   0.29267   0.78474   0.00000  Uiso   1.00
O343   O     0.42692   0.20733   0.21526   0.00000  Uiso   1.00
O344   O     0.29267   0.07308   0.21526   0.00000  Uiso   1.00
O345   O     0.20732   0.42692   0.78474   0.00000  Uiso   1.00
O346   O     0.42692   0.29268   0.21526   0.00000  Uiso   1.00
O347   O     0.07307   0.20732   0.78474   0.00000  Uiso   1.00
O348   O     0.20732   0.42692   0.21526   0.00000  Uiso   1.00
O349   O    -0.00000   0.28036   0.38219   0.00000  Uiso   1.00
O350   O     0.29267   0.07308   0.78474   0.00000  Uiso   1.00
O351   O     0.07307   0.20732   0.21526   0.00000  Uiso   1.00
O352   O     0.42692   0.29268   0.78474   0.00000  Uiso   1.00
O353   O     0.00000   0.21964   0.61781   0.00000  Uiso   1.00
O354   O     0.28035   0.00000   0.38219   0.00000  Uiso   1.00
O355   O     0.21964  -0.00000   0.61781   0.00000  Uiso   1.00
O356   O    -0.00000   0.21965   0.38219   0.00000  Uiso   1.00
Zn357  Zn    0.04333   0.25000   0.20067   0.00000  Uiso   1.00
Zn358  Zn    0.20667  -0.00000   0.29933   0.00000  Uiso   1.00
Zn359  Zn    0.00000   0.20667   0.70067   0.00000  Uiso   1.00
Zn360  Zn    0.00000   0.29333   0.29933   0.00000  Uiso   1.00
Zn361  Zn    0.20667  -0.00000   0.70067   0.00000  Uiso   1.00
Zn362  Zn    0.29333  -0.00000   0.29933   0.00000  Uiso   1.00
Zn363  Zn    0.00000   0.29333   0.70067   0.00000  Uiso   1.00
Zn364  Zn   -0.00000   0.20667   0.29933   0.00000  Uiso   1.00
Zn365  Zn    0.45667   0.25000   0.79933   0.00000  Uiso   1.00
Zn366  Zn    0.25000   0.45667   0.20067   0.00000  Uiso   1.00
Zn367  Zn    0.25000   0.04333   0.79933   0.00000  Uiso   1.00
Zn368  Zn    0.45667   0.25000   0.20067   0.00000  Uiso   1.00
Zn369  Zn    0.04333   0.25000   0.79933   0.00000  Uiso   1.00
Zn370  Zn    0.25000   0.04333   0.20067   0.00000  Uiso   1.00
Zn371  Zn    0.25000   0.45667   0.79933   0.00000  Uiso   1.00
Zn372  Zn    0.29333  -0.00000   0.70067   0.00000  Uiso   1.00
C373   C     0.99999   0.25002   0.02668   0.00000  Uiso   1.00
C374   C     0.99999   0.25000   0.58990   0.00000  Uiso   1.00
C375   C     0.91145   0.34477   0.09786   0.00000  Uiso   1.00
C376   C     0.87152   0.07022   0.84711   0.00000  Uiso   1.00
C377   C     0.88965   0.03534   0.82401   0.00000  Uiso   1.00
C378   C     0.63195   0.42610   0.14870   0.00000  Uiso   1.00
C379   C     0.65571   0.41116   0.09818   0.00000  Uiso   1.00
C380   C     0.92058   0.36360   0.85689   0.00000  Uiso   1.00
C381   C     0.95849   0.37974   0.84953   0.00000  Uiso   1.00
C382   C     0.63341   0.19143   0.32275   0.00000  Uiso   1.00
C383   C     0.61738   0.18468   0.38466   0.00000  Uiso   1.00
C384   C     0.63829   0.42062   0.85745   0.00000  Uiso   1.00
C385   C     0.75000   0.49999   0.41006   0.00000  Uiso   1.00
C386   C     0.63082   0.46143   0.84832   0.00000  Uiso   1.00
C387   C     0.86542   0.07631   0.14634   0.00000  Uiso   1.00
C388   C     0.84206   0.09407   0.09786   0.00000  Uiso   1.00
C389   C     0.82348   0.12005   0.64977   0.00000  Uiso   1.00
C390   C     0.79085   0.14428   0.66426   0.00000  Uiso   1.00
C391   C     0.67498   0.38152   0.35332   0.00000  Uiso   1.00
C392   C     0.70037   0.34851   0.35671   0.00000  Uiso   1.00
C393   C     0.55617   0.11272   0.81415   0.00000  Uiso   1.00
C394   C     0.53092   0.08969   0.77499   0.00000  Uiso   1.00
C395   C     0.88252   0.32469   0.35238   0.00000  Uiso   1.00
C396   C     0.75000   0.49999   0.58995   0.00000  Uiso   1.00
C397   C     0.90786   0.33821   0.40196   0.00000  Uiso   1.00
C398   C     0.67540   0.38172   0.64775   0.00000  Uiso   1.00
C399   C     0.71113   0.36203   0.66151   0.00000  Uiso   1.00
C400   C     0.83392   0.11080   0.36104   0.00000  Uiso   1.00
C401   C     0.79663   0.12890   0.36422   0.00000  Uiso   1.00
C402   C     0.88215   0.32428   0.64779   0.00000  Uiso   1.00
C403   C     0.86308   0.28817   0.66157   0.00000  Uiso   1.00
C404   C     0.55881   0.11606   0.17632   0.00000  Uiso   1.00
C405   C     0.56469   0.13308   0.11482   0.00000  Uiso   1.00
C406   C     0.82944   0.38642   0.35691   0.00000  Uiso   1.00
C407   C     0.75000  -0.00000   0.91010   0.00000  Uiso   1.00
C408   C     0.79152   0.37028   0.34957   0.00000  Uiso   1.00
C409   C     0.61659   0.05857   0.82274   0.00000  Uiso   1.00
C410   C     0.63262   0.06531   0.88465   0.00000  Uiso   1.00
C411   C     0.61173   0.32937   0.35744   0.00000  Uiso   1.00
C412   C     0.61919   0.28856   0.34829   0.00000  Uiso   1.00
C413   C     0.88458   0.17369   0.64634   0.00000  Uiso   1.00
C414   C     0.90794   0.15593   0.59786   0.00000  Uiso   1.00
C415   C     0.61562   0.05745   0.17882   0.00000  Uiso   1.00
C416   C     0.59581   0.02790   0.21435   0.00000  Uiso   1.00
C417   C     0.82379   0.38130   0.64840   0.00000  Uiso   1.00
C418   C     0.75001  -0.00000   0.08990   0.00000  Uiso   1.00
C419   C     0.83849   0.40520   0.59785   0.00000  Uiso   1.00
C420   C     0.87848   0.17978   0.34711   0.00000  Uiso   1.00
C421   C     0.86036   0.21466   0.32401   0.00000  Uiso   1.00
C422   C     0.61804   0.32391   0.64869   0.00000  Uiso   1.00
C423   C     0.59428   0.33886   0.59818   0.00000  Uiso   1.00
C424   C     0.50000   0.25001   0.91006   0.00000  Uiso   1.00
C425   C     0.50000   0.25001   0.08995   0.00000  Uiso   1.00
C426   C     0.56985   0.17988   0.24977   0.00000  Uiso   1.00
C427   C     0.92995   0.31997   0.75004   0.00000  Uiso   1.00
C428   C     0.68018   0.42982   0.25031   0.00000  Uiso   1.00
C429   C     0.99999   0.25002   0.97332   0.00000  Uiso   1.00
C430   C     0.81994   0.07003   0.74981   0.00000  Uiso   1.00
C431   C     0.93010   0.32002   0.24998   0.00000  Uiso   1.00
C432   C     0.56996   0.18001   0.74990   0.00000  Uiso   1.00
C433   C     0.81963   0.07039   0.25113   0.00000  Uiso   1.00
C434   C     0.68031   0.42971   0.74955   0.00000  Uiso   1.00
C435   C     0.56982   0.32018   0.75031   0.00000  Uiso   1.00
C436   C     0.93005   0.17997   0.24981   0.00000  Uiso   1.00
C437   C     0.68015   0.07012   0.74977   0.00000  Uiso   1.00
C438   C     0.82005   0.43003   0.25004   0.00000  Uiso   1.00
C439   C     0.93037   0.17961   0.75113   0.00000  Uiso   1.00
C440   C     0.75001   0.49999   0.02667   0.00000  Uiso   1.00
C441   C     0.56969   0.32029   0.24955   0.00000  Uiso   1.00
C442   C     0.81990   0.42998   0.74998   0.00000  Uiso   1.00
C443   C     0.68004   0.06999   0.24990   0.00000  Uiso   1.00
C444   C     0.60146   0.37154   0.19978   0.00000  Uiso   1.00
C445   C     0.89630   0.13018   0.80281   0.00000  Uiso   1.00
C446   C     0.87153   0.39877   0.19975   0.00000  Uiso   1.00
C447   C     0.65718   0.13016   0.71502   0.00000  Uiso   1.00
C448   C     0.89848   0.12837   0.20014   0.00000  Uiso   1.00
C449   C     0.60173   0.37143   0.80093   0.00000  Uiso   1.00
C450   C     0.65764   0.13060   0.28245   0.00000  Uiso   1.00
C451   C     0.75000   0.49999   0.97333   0.00000  Uiso   1.00
C452   C     0.87042   0.39799   0.80084   0.00000  Uiso   1.00
C453   C     0.62999   0.15755   0.71542   0.00000  Uiso   1.00
C454   C     0.89907   0.37174   0.19999   0.00000  Uiso   1.00
C455   C     0.87181   0.10045   0.79966   0.00000  Uiso   1.00
C456   C     0.62866   0.39886   0.20026   0.00000  Uiso   1.00
C457   C     0.89693   0.37001   0.80164   0.00000  Uiso   1.00
C458   C     0.62991   0.15737   0.28368   0.00000  Uiso   1.00
C459   C     0.63020   0.39758   0.80163   0.00000  Uiso   1.00
C460   C     0.87049   0.10186   0.19982   0.00000  Uiso   1.00
C461   C     0.85152   0.12163   0.70014   0.00000  Uiso   1.00
C462   C     0.75001   0.49998   0.52668   0.00000  Uiso   1.00
C463   C     0.64828   0.37856   0.30091   0.00000  Uiso   1.00
C464   C     0.59236   0.11939   0.78245   0.00000  Uiso   1.00
C465   C     0.87959   0.35201   0.30084   0.00000  Uiso   1.00
C466   C     0.64853   0.37846   0.69978   0.00000  Uiso   1.00
C467   C     0.85370   0.11982   0.30281   0.00000  Uiso   1.00
C468   C     0.87847   0.35122   0.69976   0.00000  Uiso   1.00
C469   C     0.59282   0.11984   0.21502   0.00000  Uiso   1.00
C470   C     0.85308   0.38000   0.30164   0.00000  Uiso   1.00
C471   C     0.62009   0.09263   0.78367   0.00000  Uiso   1.00
C472   C     0.61981   0.35241   0.30162   0.00000  Uiso   1.00
C473   C     0.75001   0.49998   0.47332   0.00000  Uiso   1.00
C474   C     0.87950   0.14814   0.69982   0.00000  Uiso   1.00
C475   C     0.62001   0.09245   0.21542   0.00000  Uiso   1.00
C476   C     0.85092   0.37825   0.70000   0.00000  Uiso   1.00
C477   C     0.87819   0.14955   0.29967   0.00000  Uiso   1.00
C478   C     0.62133   0.35115   0.70025   0.00000  Uiso   1.00
C479   C     0.65205   0.40170   0.25039   0.00000  Uiso   1.00
C480   C     0.84836   0.09782   0.74974   0.00000  Uiso   1.00
C481   C     0.90223   0.34829   0.25006   0.00000  Uiso   1.00
C482   C     0.59802   0.15188   0.74949   0.00000  Uiso   1.00
C483   C     0.84830   0.09798   0.25115   0.00000  Uiso   1.00
C484   C     0.99999   0.25001   0.52667   0.00000  Uiso   1.00
C485   C     0.65230   0.40154   0.75016   0.00000  Uiso   1.00
C486   C     0.59795   0.15173   0.24975   0.00000  Uiso   1.00
C487   C     0.90150   0.34784   0.75023   0.00000  Uiso   1.00
C488   C     0.65205   0.09827   0.74975   0.00000  Uiso   1.00
C489   C     0.84850   0.40216   0.25023   0.00000  Uiso   1.00
C490   C     0.90170   0.15202   0.75115   0.00000  Uiso   1.00
C491   C     0.59770   0.34846   0.25016   0.00000  Uiso   1.00
C492   C     0.84777   0.40171   0.75006   0.00000  Uiso   1.00
C493   C     0.65198   0.09812   0.24949   0.00000  Uiso   1.00
C494   C     0.59795   0.34830   0.75039   0.00000  Uiso   1.00
C495   C     0.99999   0.25001   0.47333   0.00000  Uiso   1.00
C496   C     0.90164   0.15218   0.24974   0.00000  Uiso   1.00
C497   C     0.57459   0.36829   0.14776   0.00000  Uiso   1.00
C498   C     0.53886   0.38798   0.16154   0.00000  Uiso   1.00
C499   C     0.91608   0.13919   0.86104   0.00000  Uiso   1.00
C500   C     0.95337   0.12110   0.86422   0.00000  Uiso   1.00
C501   C     0.86784   0.42571   0.14778   0.00000  Uiso   1.00
C502   C     0.88694   0.46181   0.16154   0.00000  Uiso   1.00
C503   C     0.69119   0.13394   0.67632   0.00000  Uiso   1.00
C504   C     0.68531   0.11692   0.61482   0.00000  Uiso   1.00
C505   C     0.92652   0.12996   0.14977   0.00000  Uiso   1.00
C506   C     0.50000   0.25000   0.41010   0.00000  Uiso   1.00
C507   C     0.95915   0.10572   0.16425   0.00000  Uiso   1.00
C508   C     0.57504   0.36846   0.85335   0.00000  Uiso   1.00
C509   C     0.54965   0.40147   0.85677   0.00000  Uiso   1.00
C510   C     0.69383   0.13728   0.31416   0.00000  Uiso   1.00
C511   C     0.71908   0.16031   0.27500   0.00000  Uiso   1.00
C512   C     0.86749   0.42532   0.85237   0.00000  Uiso   1.00
C513   C     0.84216   0.41179   0.90197   0.00000  Uiso   1.00
C514   C     0.63438   0.19255   0.67883   0.00000  Uiso   1.00
C515   C     0.65419   0.22210   0.71436   0.00000  Uiso   1.00
C516   C     0.92618   0.36867   0.14838   0.00000  Uiso   1.00
H517   H     0.52516   0.37556   0.20072   0.00000  Uiso   1.00
H518   H     0.89958   0.13211   0.90073   0.00000  Uiso   1.00
H519   H     0.89240   0.29769   0.33673   0.00000  Uiso   1.00
H520   H     0.72484   0.37444   0.70069   0.00000  Uiso   1.00
H521   H     0.72969   0.36415   0.62254   0.00000  Uiso   1.00
H522   H     0.70601   0.33269   0.67081   0.00000  Uiso   1.00
H523   H     0.66439   0.37085   0.60545   0.00000  Uiso   1.00
H524   H     0.68113   0.41068   0.63697   0.00000  Uiso   1.00
H525   H     0.79916   0.15900   0.36049   0.00000  Uiso   1.00
H526   H     0.77909   0.11847   0.32772   0.00000  Uiso   1.00
H527   H     0.78350   0.12228   0.40753   0.00000  Uiso   1.00
H528   H     0.83053   0.08106   0.36708   0.00000  Uiso   1.00
H529   H     0.87439   0.47539   0.20075   0.00000  Uiso   1.00
H530   H     0.85042   0.11789   0.40073   0.00000  Uiso   1.00
H531   H     0.87565   0.27460   0.70077   0.00000  Uiso   1.00
H532   H     0.86551   0.26956   0.62263   0.00000  Uiso   1.00
H533   H     0.83375   0.29289   0.67082   0.00000  Uiso   1.00
H534   H     0.87111   0.33514   0.60548   0.00000  Uiso   1.00
H535   H     0.91110   0.31896   0.63700   0.00000  Uiso   1.00
H536   H     0.58813   0.12011   0.09181   0.00000  Uiso   1.00
H537   H     0.53997   0.12918   0.08705   0.00000  Uiso   1.00
H538   H     0.56995   0.16282   0.11893   0.00000  Uiso   1.00
H539   H     0.55019   0.08727   0.17122   0.00000  Uiso   1.00
H540   H     0.88450   0.48042   0.12260   0.00000  Uiso   1.00
H541   H     0.53506   0.12935   0.19767   0.00000  Uiso   1.00
H542   H     0.77660   0.38363   0.31250   0.00000  Uiso   1.00
H543   H     0.79321   0.34047   0.34089   0.00000  Uiso   1.00
H544   H     0.77610   0.37482   0.39148   0.00000  Uiso   1.00
H545   H     0.84138   0.37489   0.39801   0.00000  Uiso   1.00
H546   H     0.82733   0.41590   0.36737   0.00000  Uiso   1.00
H547   H     0.66217   0.07128   0.88142   0.00000  Uiso   1.00
H548   H     0.61877   0.08868   0.90664   0.00000  Uiso   1.00
H549   H     0.62893   0.04067   0.91284   0.00000  Uiso   1.00
H550   H     0.58810   0.04919   0.82730   0.00000  Uiso   1.00
H551   H     0.91626   0.45707   0.17076   0.00000  Uiso   1.00
H552   H     0.63046   0.03486   0.80217   0.00000  Uiso   1.00
H553   H     0.59449   0.27441   0.33174   0.00000  Uiso   1.00
H554   H     0.64183   0.28403   0.31627   0.00000  Uiso   1.00
H555   H     0.62663   0.27582   0.39158   0.00000  Uiso   1.00
H556   H     0.62723   0.33806   0.39711   0.00000  Uiso   1.00
H557   H     0.58299   0.33337   0.37127   0.00000  Uiso   1.00
H558   H     0.93563   0.14996   0.61504   0.00000  Uiso   1.00
H559   H     0.89564   0.13002   0.58207   0.00000  Uiso   1.00
H560   H     0.91043   0.17483   0.55931   0.00000  Uiso   1.00
H561   H     0.85811   0.18236   0.62735   0.00000  Uiso   1.00
H562   H     0.87886   0.41484   0.10547   0.00000  Uiso   1.00
H563   H     0.89738   0.19994   0.65935   0.00000  Uiso   1.00
H564   H     0.61201   0.01979   0.25399   0.00000  Uiso   1.00
H565   H     0.56876   0.03770   0.22956   0.00000  Uiso   1.00
H566   H     0.59182   0.00343   0.18582   0.00000  Uiso   1.00
H567   H     0.60108   0.06257   0.13633   0.00000  Uiso   1.00
H568   H     0.64234   0.04650   0.16412   0.00000  Uiso   1.00
H569   H     0.84229   0.43371   0.61324   0.00000  Uiso   1.00
H570   H     0.86502   0.39491   0.58122   0.00000  Uiso   1.00
H571   H     0.81879   0.40531   0.56025   0.00000  Uiso   1.00
H572   H     0.81627   0.35398   0.63102   0.00000  Uiso   1.00
H573   H     0.83889   0.43105   0.13701   0.00000  Uiso   1.00
H574   H     0.79733   0.39276   0.66336   0.00000  Uiso   1.00
H575   H     0.87608   0.22697   0.28697   0.00000  Uiso   1.00
H576   H     0.83233   0.20872   0.30818   0.00000  Uiso   1.00
H577   H     0.85872   0.23504   0.36063   0.00000  Uiso   1.00
H578   H     0.86399   0.17258   0.38853   0.00000  Uiso   1.00
H579   H     0.90672   0.18582   0.36163   0.00000  Uiso   1.00
H580   H     0.56590   0.34295   0.61364   0.00000  Uiso   1.00
H581   H     0.60472   0.36536   0.58148   0.00000  Uiso   1.00
H582   H     0.59396   0.31908   0.56061   0.00000  Uiso   1.00
H583   H     0.64520   0.31612   0.63122   0.00000  Uiso   1.00
H584   H     0.66187   0.12989   0.59181   0.00000  Uiso   1.00
H585   H     0.60649   0.29745   0.66364   0.00000  Uiso   1.00
H586   H     0.71003   0.12083   0.58705   0.00000  Uiso   1.00
H587   H     0.68005   0.08718   0.61894   0.00000  Uiso   1.00
H588   H     0.69981   0.16273   0.67122   0.00000  Uiso   1.00
H589   H     0.52030   0.38586   0.12257   0.00000  Uiso   1.00
H590   H     0.71495   0.12065   0.69768   0.00000  Uiso   1.00
H591   H     0.97214   0.11481   0.20643   0.00000  Uiso   1.00
H592   H     0.97937   0.10742   0.12757   0.00000  Uiso   1.00
H593   H     0.95063   0.07681   0.16933   0.00000  Uiso   1.00
H594   H     0.91501   0.12181   0.10615   0.00000  Uiso   1.00
H595   H     0.93623   0.15815   0.14164   0.00000  Uiso   1.00
H596   H     0.56463   0.42744   0.86115   0.00000  Uiso   1.00
H597   H     0.53248   0.40284   0.81605   0.00000  Uiso   1.00
H598   H     0.53199   0.39889   0.89666   0.00000  Uiso   1.00
H599   H     0.55715   0.34424   0.85079   0.00000  Uiso   1.00
H600   H     0.54398   0.41732   0.17084   0.00000  Uiso   1.00
H601   H     0.58982   0.36439   0.89597   0.00000  Uiso   1.00
H602   H     0.73020   0.14343   0.23808   0.00000  Uiso   1.00
H603   H     0.74200   0.17094   0.30207   0.00000  Uiso   1.00
H604   H     0.70452   0.18402   0.25539   0.00000  Uiso   1.00
H605   H     0.68965   0.15069   0.35798   0.00000  Uiso   1.00
H606   H     0.70799   0.11148   0.32581   0.00000  Uiso   1.00
H607   H     0.81354   0.41103   0.88649   0.00000  Uiso   1.00
H608   H     0.84966   0.38398   0.91722   0.00000  Uiso   1.00
H609   H     0.84375   0.43070   0.94064   0.00000  Uiso   1.00
H610   H     0.89474   0.43159   0.87106   0.00000  Uiso   1.00
H611   H     0.58560   0.37916   0.10546   0.00000  Uiso   1.00
H612   H     0.85760   0.45232   0.83673   0.00000  Uiso   1.00
H613   H     0.63799   0.23020   0.75400   0.00000  Uiso   1.00
H614   H     0.68124   0.21230   0.72956   0.00000  Uiso   1.00
H615   H     0.65818   0.24658   0.68584   0.00000  Uiso   1.00
H616   H     0.64893   0.18743   0.63633   0.00000  Uiso   1.00
H617   H     0.60766   0.20350   0.66412   0.00000  Uiso   1.00
H618   H     0.90766   0.31626   0.11327   0.00000  Uiso   1.00
H619   H     0.88492   0.35506   0.08125   0.00000  Uiso   1.00
H620   H     0.93113   0.34464   0.06024   0.00000  Uiso   1.00
H621   H     0.93370   0.39599   0.13097   0.00000  Uiso   1.00
H622   H     0.56886   0.33933   0.13698   0.00000  Uiso   1.00
H623   H     0.95264   0.35721   0.16331   0.00000  Uiso   1.00
H624   H     0.87393   0.02304   0.78695   0.00000  Uiso   1.00
H625   H     0.91768   0.04128   0.80820   0.00000  Uiso   1.00
H626   H     0.89128   0.01496   0.86062   0.00000  Uiso   1.00
H627   H     0.88601   0.07741   0.88853   0.00000  Uiso   1.00
H628   H     0.84328   0.06418   0.86163   0.00000  Uiso   1.00
H629   H     0.68409   0.40707   0.11363   0.00000  Uiso   1.00
H630   H     0.64526   0.38466   0.08148   0.00000  Uiso   1.00
H631   H     0.65601   0.43095   0.06062   0.00000  Uiso   1.00
H632   H     0.60479   0.43390   0.13124   0.00000  Uiso   1.00
H633   H     0.95084   0.09100   0.86048   0.00000  Uiso   1.00
H634   H     0.64350   0.45256   0.16366   0.00000  Uiso   1.00
H635   H     0.97341   0.36639   0.81245   0.00000  Uiso   1.00
H636   H     0.95680   0.40955   0.84084   0.00000  Uiso   1.00
H637   H     0.97392   0.37521   0.89143   0.00000  Uiso   1.00
H638   H     0.90864   0.37513   0.89800   0.00000  Uiso   1.00
H639   H     0.92269   0.33412   0.86736   0.00000  Uiso   1.00
H640   H     0.58782   0.17871   0.38142   0.00000  Uiso   1.00
H641   H     0.63123   0.16131   0.40665   0.00000  Uiso   1.00
H642   H     0.62107   0.20932   0.41285   0.00000  Uiso   1.00
H643   H     0.66190   0.20081   0.32731   0.00000  Uiso   1.00
H644   H     0.97091   0.13153   0.82772   0.00000  Uiso   1.00
H645   H     0.61953   0.21513   0.30218   0.00000  Uiso   1.00
H646   H     0.65551   0.47558   0.83175   0.00000  Uiso   1.00
H647   H     0.60817   0.46595   0.81632   0.00000  Uiso   1.00
H648   H     0.62339   0.47416   0.89162   0.00000  Uiso   1.00
H649   H     0.62279   0.41192   0.89712   0.00000  Uiso   1.00
H650   H     0.66702   0.41662   0.87127   0.00000  Uiso   1.00
H651   H     0.81436   0.10005   0.11504   0.00000  Uiso   1.00
H652   H     0.85436   0.11998   0.08207   0.00000  Uiso   1.00
H653   H     0.83957   0.07517   0.05931   0.00000  Uiso   1.00
H654   H     0.89189   0.06764   0.12735   0.00000  Uiso   1.00
H655   H     0.96650   0.12772   0.90753   0.00000  Uiso   1.00
H656   H     0.85262   0.05006   0.15935   0.00000  Uiso   1.00
H657   H     0.77786   0.13519   0.70643   0.00000  Uiso   1.00
H658   H     0.77062   0.14259   0.62757   0.00000  Uiso   1.00
H659   H     0.79937   0.17319   0.66934   0.00000  Uiso   1.00
H660   H     0.83499   0.12820   0.60616   0.00000  Uiso   1.00
H661   H     0.81376   0.09186   0.64164   0.00000  Uiso   1.00
H662   H     0.68539   0.32254   0.36107   0.00000  Uiso   1.00
H663   H     0.71754   0.34714   0.31597   0.00000  Uiso   1.00
H664   H     0.71804   0.35107   0.39659   0.00000  Uiso   1.00
H665   H     0.69287   0.40574   0.35076   0.00000  Uiso   1.00
H666   H     0.91946   0.16894   0.86708   0.00000  Uiso   1.00
H667   H     0.66021   0.38558   0.39596   0.00000  Uiso   1.00
H668   H     0.51980   0.10658   0.73807   0.00000  Uiso   1.00
H669   H     0.50799   0.07906   0.80205   0.00000  Uiso   1.00
H670   H     0.54548   0.06598   0.75538   0.00000  Uiso   1.00
H671   H     0.56034   0.09930   0.85797   0.00000  Uiso   1.00
H672   H     0.54200   0.13851   0.82581   0.00000  Uiso   1.00
H673   H     0.93648   0.33900   0.38645   0.00000  Uiso   1.00
H674   H     0.90035   0.36601   0.41727   0.00000  Uiso   1.00
H675   H     0.90630   0.31927   0.44061   0.00000  Uiso   1.00
H676   H     0.85527   0.31843   0.37108   0.00000  Uiso   1.00
O677   O     0.50000   0.25000   0.25000   0.00000  Uiso   1.00
O678   O     0.50000   0.28035   0.61781   0.00000  Uiso   1.00
O679   O     0.71964   0.00000   0.38219   0.00000  Uiso   1.00
O680   O     0.78035  -0.00000   0.61781   0.00000  Uiso   1.00
O681   O     0.75000   0.03036   0.88219   0.00000  Uiso   1.00
O682   O     0.75000   0.46964   0.11781   0.00000  Uiso   1.00
O683   O     0.53035   0.25000   0.88219   0.00000  Uiso   1.00
O684   O     0.96964   0.25000   0.11781   0.00000  Uiso   1.00
O685   O     0.75000   0.46964   0.88219   0.00000  Uiso   1.00
O686   O     0.75000   0.03036   0.11781   0.00000  Uiso   1.00
O687   O     0.96964   0.25000   0.88219   0.00000  Uiso   1.00
O688   O     0.50000   0.25000   0.75000   0.00000  Uiso   1.00
O689   O     0.53035   0.25000   0.11781   0.00000  Uiso   1.00
O690   O     0.54267   0.17692   0.28474   0.00000  Uiso   1.00
O691   O     0.95732   0.32308   0.71526   0.00000  Uiso   1.00
O692   O     0.67692   0.45732   0.28474   0.00000  Uiso   1.00
O693   O     0.82307   0.04268   0.71526   0.00000  Uiso   1.00
O694   O     0.95732   0.32308   0.28474   0.00000  Uiso   1.00
O695   O     0.54267   0.17692   0.71526   0.00000  Uiso   1.00
O696   O     0.82307   0.04268   0.28474   0.00000  Uiso   1.00
O697   O     0.67692   0.45732   0.71526   0.00000  Uiso   1.00
O698   O     0.54267   0.32307   0.71526   0.00000  Uiso   1.00
O699   O     0.75000  -0.00000   0.25000   0.00000  Uiso   1.00
O700   O     0.95732   0.17693   0.28474   0.00000  Uiso   1.00
O701   O     0.67692   0.04268   0.71526   0.00000  Uiso   1.00
O702   O     0.82307   0.45732   0.28474   0.00000  Uiso   1.00
O703   O     0.95732   0.17693   0.71526   0.00000  Uiso   1.00
O704   O     0.54267   0.32307   0.28474   0.00000  Uiso   1.00
O705   O     0.82307   0.45732   0.71526   0.00000  Uiso   1.00
O706   O     0.67692   0.04268   0.28474   0.00000  Uiso   1.00
O707   O     0.79267   0.42692   0.78474   0.00000  Uiso   1.00
O708   O     0.70732   0.07308   0.21526   0.00000  Uiso   1.00
O709   O     0.92692   0.20733   0.78474   0.00000  Uiso   1.00
O710   O     0.75000  -0.00000   0.75000   0.00000  Uiso   1.00
O711   O     0.57307   0.29267   0.21526   0.00000  Uiso   1.00
O712   O     0.70732   0.07308   0.78474   0.00000  Uiso   1.00
O713   O     0.79267   0.42692   0.21526   0.00000  Uiso   1.00
O714   O     0.57307   0.29267   0.78474   0.00000  Uiso   1.00
O715   O     0.92692   0.20733   0.21526   0.00000  Uiso   1.00
O716   O     0.79267   0.07308   0.21526   0.00000  Uiso   1.00
O717   O     0.70732   0.42692   0.78474   0.00000  Uiso   1.00
O718   O     0.92692   0.29268   0.21526   0.00000  Uiso   1.00
O719   O     0.57307   0.20732   0.78474   0.00000  Uiso   1.00
O720   O     0.70732   0.42692   0.21526   0.00000  Uiso   1.00
O721   O     0.50000   0.28036   0.38219   0.00000  Uiso   1.00
O722   O     0.79267   0.07308   0.78474   0.00000  Uiso   1.00
O723   O     0.57307   0.20732   0.21526   0.00000  Uiso   1.00
O724   O     0.92692   0.29268   0.78474   0.00000  Uiso   1.00
O725   O     0.50000   0.21964   0.61781   0.00000  Uiso   1.00
O726   O     0.78035   0.00000   0.38219   0.00000  Uiso   1.00
O727   O     0.71964  -0.00000   0.61781   0.00000  Uiso   1.00
O728   O     0.50000   0.21965   0.38219   0.00000  Uiso   1.00
Zn729  Zn    0.54333   0.25000   0.20067   0.00000  Uiso   1.00
Zn730  Zn    0.70667  -0.00000   0.29933   0.00000  Uiso   1.00
Zn731  Zn    0.50000   0.20667   0.70067   0.00000  Uiso   1.00
Zn732  Zn    0.50000   0.29333   0.29933   0.00000  Uiso   1.00
Zn733  Zn    0.70667  -0.00000   0.70067   0.00000  Uiso   1.00
Zn734  Zn    0.79333  -0.00000   0.29933   0.00000  Uiso   1.00
Zn735  Zn    0.50000   0.29333   0.70067   0.00000  Uiso   1.00
Zn736  Zn    0.50000   0.20667   0.29933   0.00000  Uiso   1.00
Zn737  Zn    0.95667   0.25000   0.79933   0.00000  Uiso   1.00
Zn738  Zn    0.75000   0.45667   0.20067   0.00000  Uiso   1.00
Zn739  Zn    0.75000   0.04333   0.79933   0.00000  Uiso   1.00
Zn740  Zn    0.95667   0.25000   0.20067   0.00000  Uiso   1.00
Zn741  Zn    0.54333   0.25000   0.79933   0.00000  Uiso   1.00
Zn742  Zn    0.75000   0.04333   0.20067   0.00000  Uiso   1.00
Zn743  Zn    0.75000   0.45667   0.79933   0.00000  Uiso   1.00
Zn744  Zn    0.79333  -0.00000   0.70067   0.00000  Uiso   1.00
C745   C     0.49999   0.75002   0.02668   0.00000  Uiso   1.00
C746   C     0.49999   0.75000   0.58990   0.00000  Uiso   1.00
C747   C     0.41145   0.84477   0.09786   0.00000  Uiso   1.00
C748   C     0.37152   0.57022   0.84711   0.00000  Uiso   1.00
C749   C     0.38965   0.53534   0.82401   0.00000  Uiso   1.00
C750   C     0.13195   0.92610   0.14870   0.00000  Uiso   1.00
C751   C     0.15571   0.91116   0.09818   0.00000  Uiso   1.00
C752   C     0.42058   0.86360   0.85689   0.00000  Uiso   1.00
C753   C     0.45849   0.87974   0.84953   0.00000  Uiso   1.00
C754   C     0.13341   0.69143   0.32275   0.00000  Uiso   1.00
C755   C     0.11738   0.68468   0.38466   0.00000  Uiso   1.00
C756   C     0.13829   0.92062   0.85745   0.00000  Uiso   1.00
C757   C     0.25000   0.99999   0.41006   0.00000  Uiso   1.00
C758   C     0.13082   0.96143   0.84832   0.00000  Uiso   1.00
C759   C     0.36542   0.57631   0.14634   0.00000  Uiso   1.00
C760   C     0.34206   0.59407   0.09786   0.00000  Uiso   1.00
C761   C     0.32348   0.62005   0.64977   0.00000  Uiso   1.00
C762   C     0.29085   0.64428   0.66426   0.00000  Uiso   1.00
C763   C     0.17498   0.88152   0.35332   0.00000  Uiso   1.00
C764   C     0.20037   0.84851   0.35671   0.00000  Uiso   1.00
C765   C     0.05617   0.61272   0.81415   0.00000  Uiso   1.00
C766   C     0.03092   0.58969   0.77499   0.00000  Uiso   1.00
C767   C     0.38252   0.82469   0.35238   0.00000  Uiso   1.00
C768   C     0.25000   0.99999   0.58995   0.00000  Uiso   1.00
C769   C     0.40786   0.83821   0.40196   0.00000  Uiso   1.00
C770   C     0.17540   0.88172   0.64775   0.00000  Uiso   1.00
C771   C     0.21113   0.86203   0.66151   0.00000  Uiso   1.00
C772   C     0.33392   0.61080   0.36104   0.00000  Uiso   1.00
C773   C     0.29663   0.62890   0.36422   0.00000  Uiso   1.00
C774   C     0.38215   0.82428   0.64779   0.00000  Uiso   1.00
C775   C     0.36308   0.78817   0.66157   0.00000  Uiso   1.00
C776   C     0.05881   0.61606   0.17632   0.00000  Uiso   1.00
C777   C     0.06469   0.63308   0.11482   0.00000  Uiso   1.00
C778   C     0.32944   0.88642   0.35691   0.00000  Uiso   1.00
C779   C     0.25000   0.50000   0.91010   0.00000  Uiso   1.00
C780   C     0.29152   0.87028   0.34957   0.00000  Uiso   1.00
C781   C     0.11659   0.55857   0.82274   0.00000  Uiso   1.00
C782   C     0.13262   0.56531   0.88465   0.00000  Uiso   1.00
C783   C     0.11173   0.82937   0.35744   0.00000  Uiso   1.00
C784   C     0.11919   0.78856   0.34829   0.00000  Uiso   1.00
C785   C     0.38458   0.67369   0.64634   0.00000  Uiso   1.00
C786   C     0.40794   0.65593   0.59786   0.00000  Uiso   1.00
C787   C     0.11562   0.55745   0.17882   0.00000  Uiso   1.00
C788   C     0.09581   0.52790   0.21435   0.00000  Uiso   1.00
C789   C     0.32379   0.88130   0.64840   0.00000  Uiso   1.00
C790   C     0.25001   0.50000   0.08990   0.00000  Uiso   1.00
C791   C     0.33849   0.90520   0.59785   0.00000  Uiso   1.00
C792   C     0.37848   0.67978   0.34711   0.00000  Uiso   1.00
C793   C     0.36036   0.71466   0.32401   0.00000  Uiso   1.00
C794   C     0.11804   0.82391   0.64869   0.00000  Uiso   1.00
C795   C     0.09428   0.83886   0.59818   0.00000  Uiso   1.00
C796   C    -0.00000   0.75001   0.91006   0.00000  Uiso   1.00
C797   C    -0.00000   0.75001   0.08995   0.00000  Uiso   1.00
C798   C     0.06985   0.67988   0.24977   0.00000  Uiso   1.00
C799   C     0.42995   0.81997   0.75004   0.00000  Uiso   1.00
C800   C     0.18018   0.92982   0.25031   0.00000  Uiso   1.00
C801   C     0.49999   0.75002   0.97332   0.00000  Uiso   1.00
C802   C     0.31994   0.57003   0.74981   0.00000  Uiso   1.00
C803   C     0.43010   0.82002   0.24998   0.00000  Uiso   1.00
C804   C     0.06996   0.68001   0.74990   0.00000  Uiso   1.00
C805   C     0.31963   0.57039   0.25113   0.00000  Uiso   1.00
C806   C     0.18031   0.92971   0.74955   0.00000  Uiso   1.00
C807   C     0.06982   0.82018   0.75031   0.00000  Uiso   1.00
C808   C     0.43005   0.67997   0.24981   0.00000  Uiso   1.00
C809   C     0.18015   0.57012   0.74977   0.00000  Uiso   1.00
C810   C     0.32005   0.93003   0.25004   0.00000  Uiso   1.00
C811   C     0.43037   0.67961   0.75113   0.00000  Uiso   1.00
C812   C     0.25001   0.99999   0.02667   0.00000  Uiso   1.00
C813   C     0.06969   0.82029   0.24955   0.00000  Uiso   1.00
C814   C     0.31990   0.92998   0.74998   0.00000  Uiso   1.00
C815   C     0.18004   0.56999   0.24990   0.00000  Uiso   1.00
C816   C     0.10146   0.87154   0.19978   0.00000  Uiso   1.00
C817   C     0.39630   0.63018   0.80281   0.00000  Uiso   1.00
C818   C     0.37153   0.89877   0.19975   0.00000  Uiso   1.00
C819   C     0.15718   0.63016   0.71502   0.00000  Uiso   1.00
C820   C     0.39848   0.62837   0.20014   0.00000  Uiso   1.00
C821   C     0.10173   0.87143   0.80093   0.00000  Uiso   1.00
C822   C     0.15764   0.63060   0.28245   0.00000  Uiso   1.00
C823   C     0.25000   0.99999   0.97333   0.00000  Uiso   1.00
C824   C     0.37042   0.89799   0.80084   0.00000  Uiso   1.00
C825   C     0.12999   0.65755   0.71542   0.00000  Uiso   1.00
C826   C     0.39907   0.87174   0.19999   0.00000  Uiso   1.00
C827   C     0.37181   0.60045   0.79966   0.00000  Uiso   1.00
C828   C     0.12866   0.89886   0.20026   0.00000  Uiso   1.00
C829   C     0.39693   0.87001   0.80164   0.00000  Uiso   1.00
C830   C     0.12991   0.65737   0.28368   0.00000  Uiso   1.00
C831   C     0.13020   0.89758   0.80163   0.00000  Uiso   1.00
C832   C     0.37049   0.60186   0.19982   0.00000  Uiso   1.00
C833   C     0.35152   0.62163   0.70014   0.00000  Uiso   1.00
C834   C     0.25001   0.99998   0.52668   0.00000  Uiso   1.00
C835   C     0.14828   0.87856   0.30091   0.00000  Uiso   1.00
C836   C     0.09236   0.61939   0.78245   0.00000  Uiso   1.00
C837   C     0.37959   0.85201   0.30084   0.00000  Uiso   1.00
C838   C     0.14853   0.87846   0.69978   0.00000  Uiso   1.00
C839   C     0.35370   0.61982   0.30281   0.00000  Uiso   1.00
C840   C     0.37847   0.85122   0.69976   0.00000  Uiso   1.00
C841   C     0.09282   0.61984   0.21502   0.00000  Uiso   1.00
C842   C     0.35308   0.88000   0.30164   0.00000  Uiso   1.00
C843   C     0.12009   0.59263   0.78367   0.00000  Uiso   1.00
C844   C     0.11981   0.85241   0.30162   0.00000  Uiso   1.00
C845   C     0.25001   0.99998   0.47332   0.00000  Uiso   1.00
C846   C     0.37950   0.64814   0.69982   0.00000  Uiso   1.00
C847   C     0.12001   0.59245   0.21542   0.00000  Uiso   1.00
C848   C     0.35092   0.87825   0.70000   0.00000  Uiso   1.00
C849   C     0.37819   0.64955   0.29967   0.00000  Uiso   1.00
C850   C     0.12133   0.85115   0.70025   0.00000  Uiso   1.00
C851   C     0.15205   0.90170   0.25039   0.00000  Uiso   1.00
C852   C     0.34836   0.59782   0.74974   0.00000  Uiso   1.00
C853   C     0.40223   0.84829   0.25006   0.00000  Uiso   1.00
C854   C     0.09802   0.65188   0.74949   0.00000  Uiso   1.00
C855   C     0.34830   0.59798   0.25115   0.00000  Uiso   1.00
C856   C     0.49999   0.75001   0.52667   0.00000  Uiso   1.00
C857   C     0.15230   0.90154   0.75016   0.00000  Uiso   1.00
C858   C     0.09795   0.65173   0.24975   0.00000  Uiso   1.00
C859   C     0.40150   0.84784   0.75023   0.00000  Uiso   1.00
C860   C     0.15205   0.59827   0.74975   0.00000  Uiso   1.00
C861   C     0.34850   0.90216   0.25023   0.00000  Uiso   1.00
C862   C     0.40170   0.65202   0.75115   0.00000  Uiso   1.00
C863   C     0.09770   0.84846   0.25016   0.00000  Uiso   1.00
C864   C     0.34777   0.90171   0.75006   0.00000  Uiso   1.00
C865   C     0.15198   0.59812   0.24949   0.00000  Uiso   1.00
C866   C     0.09795   0.84830   0.75039   0.00000  Uiso   1.00
C867   C     0.49999   0.75001   0.47333   0.00000  Uiso   1.00
C868   C     0.40164   0.65218   0.24974   0.00000  Uiso   1.00
C869   C     0.07459   0.86829   0.14776   0.00000  Uiso   1.00
C870   C     0.03886   0.88798   0.16154   0.00000  Uiso   1.00
C871   C     0.41608   0.63919   0.86104   0.00000  Uiso   1.00
C872   C     0.45337   0.62110   0.86422   0.00000  Uiso   1.00
C873   C     0.36784   0.92571   0.14778   0.00000  Uiso   1.00
C874   C     0.38694   0.96181   0.16154   0.00000  Uiso   1.00
C875   C     0.19119   0.63394   0.67632   0.00000  Uiso   1.00
C876   C     0.18531   0.61692   0.61482   0.00000  Uiso   1.00
C877   C     0.42652   0.62996   0.14977   0.00000  Uiso   1.00
C878   C     0.00000   0.75000   0.41010   0.00000  Uiso   1.00
C879   C     0.45915   0.60572   0.16425   0.00000  Uiso   1.00
C880   C     0.07504   0.86846   0.85335   0.00000  Uiso   1.00
C881   C     0.04965   0.90147   0.85677   0.00000  Uiso   1.00
C882   C     0.19383   0.63728   0.31416   0.00000  Uiso   1.00
C883   C     0.21908   0.66031   0.27500   0.00000  Uiso   1.00
C884   C     0.36749   0.92532   0.85237   0.00000  Uiso   1.00
C885   C     0.34216   0.91179   0.90197   0.00000  Uiso   1.00
C886   C     0.13438   0.69255   0.67883   0.00000  Uiso   1.00
C887   C     0.15419   0.72210   0.71436   0.00000  Uiso   1.00
C888   C     0.42618   0.86867   0.14838   0.00000  Uiso   1.00
H889   H     0.02516   0.87556   0.20072   0.00000  Uiso   1.00
H890   H     0.39958   0.63211   0.90073   0.00000  Uiso   1.00
H891   H     0.39240   0.79769   0.33673   0.00000  Uiso   1.00
H892   H     0.22484   0.87444   0.70069   0.00000  Uiso   1.00
H893   H     0.22969   0.86415   0.62254   0.00000  Uiso   1.00
H894   H     0.20601   0.83269   0.67081   0.00000  Uiso   1.00
H895   H     0.16439   0.87085   0.60545   0.00000  Uiso   1.00
H896   H     0.18113   0.91068   0.63697   0.00000  Uiso   1.00
H897   H     0.29916   0.65900   0.36049   0.00000  Uiso   1.00
H898   H     0.27909   0.61847   0.32772   0.00000  Uiso   1.00
H899   H     0.28350   0.62228   0.40753   0.00000  Uiso   1.00
H900   H     0.33053   0.58106   0.36708   0.00000  Uiso   1.00
H901   H     0.37439   0.97539   0.20075   0.00000  Uiso   1.00
H902   H     0.35042   0.61789   0.40073   0.00000  Uiso   1.00
H903   H     0.37565   0.77460   0.70077   0.00000  Uiso   1.00
H904   H     0.36551   0.76956   0.62263   0.00000  Uiso   1.00
H905   H     0.33375   0.79289   0.67082   0.00000  Uiso   1.00
H906   H     0.37111   0.83514   0.60548   0.00000  Uiso   1.00
H907   H     0.41110   0.81896   0.63700   0.00000  Uiso   1.00
H908   H     0.08813   0.62011   0.09181   0.00000  Uiso   1.00
H909   H     0.03997   0.62918   0.08705   0.00000  Uiso   1.00
H910   H     0.06995   0.66282   0.11893   0.00000  Uiso   1.00
H911   H     0.05019   0.58727   0.17122   0.00000  Uiso   1.00
H912   H     0.38450   0.98042   0.12260   0.00000  Uiso   1.00
H913   H     0.03506   0.62935   0.19767   0.00000  Uiso   1.00
H914   H     0.27660   0.88363   0.31250   0.00000  Uiso   1.00
H915   H     0.29321   0.84047   0.34089   0.00000  Uiso   1.00
H916   H     0.27610   0.87482   0.39148   0.00000  Uiso   1.00
H917   H     0.34138   0.87489   0.39801   0.00000  Uiso   1.00
H918   H     0.32733   0.91590   0.36737   0.00000  Uiso   1.00
H919   H     0.16217   0.57128   0.88142   0.00000  Uiso   1.00
H920   H     0.11877   0.58868   0.90664   0.00000  Uiso   1.00
H921   H     0.12893   0.54067   0.91284   0.00000  Uiso   1.00
H922   H     0.08810   0.54919   0.82730   0.00000  Uiso   1.00
H923   H     0.41626   0.95707   0.17076   0.00000  Uiso   1.00
H924   H     0.13046   0.53486   0.80217   0.00000  Uiso   1.00
H925   H     0.09449   0.77441   0.33174   0.00000  Uiso   1.00
H926   H     0.14183   0.78403   0.31627   0.00000  Uiso   1.00
H927   H     0.12663   0.77582   0.39158   0.00000  Uiso   1.00
H928   H     0.12723   0.83806   0.39711   0.00000  Uiso   1.00
H929   H     0.08299   0.83337   0.37127   0.00000  Uiso   1.00
H930   H     0.43563   0.64996   0.61504   0.00000  Uiso   1.00
H931   H     0.39564   0.63002   0.58207   0.00000  Uiso   1.00
H932   H     0.41043   0.67483   0.55931   0.00000  Uiso   1.00
H933   H     0.35811   0.68236   0.62735   0.00000  Uiso   1.00
H934   H     0.37886   0.91484   0.10547   0.00000  Uiso   1.00
H935   H     0.39738   0.69994   0.65935   0.00000  Uiso   1.00
H936   H     0.11201   0.51979   0.25399   0.00000  Uiso   1.00
H937   H     0.06876   0.53770   0.22956   0.00000  Uiso   1.00
H938   H     0.09182   0.50343   0.18582   0.00000  Uiso   1.00
H939   H     0.10108   0.56257   0.13633   0.00000  Uiso   1.00
H940   H     0.14234   0.54650   0.16412   0.00000  Uiso   1.00
H941   H     0.34229   0.93371   0.61324   0.00000  Uiso   1.00
H942   H     0.36502   0.89491   0.58122   0.00000  Uiso   1.00
H943   H     0.31879   0.90531   0.56025   0.00000  Uiso   1.00
H944   H     0.31627   0.85398   0.63102   0.00000  Uiso   1.00
H945   H     0.33889   0.93105   0.13701   0.00000  Uiso   1.00
H946   H     0.29733   0.89276   0.66336   0.00000  Uiso   1.00
H947   H     0.37608   0.72697   0.28697   0.00000  Uiso   1.00
H948   H     0.33233   0.70872   0.30818   0.00000  Uiso   1.00
H949   H     0.35872   0.73504   0.36063   0.00000  Uiso   1.00
H950   H     0.36399   0.67258   0.38853   0.00000  Uiso   1.00
H951   H     0.40672   0.68582   0.36163   0.00000  Uiso   1.00
H952   H     0.06590   0.84295   0.61364   0.00000  Uiso   1.00
H953   H     0.10472   0.86536   0.58148   0.00000  Uiso   1.00
H954   H     0.09396   0.81908   0.56061   0.00000  Uiso   1.00
H955   H     0.14520   0.81612   0.63122   0.00000  Uiso   1.00
H956   H     0.16187   0.62989   0.59181   0.00000  Uiso   1.00
H957   H     0.10649   0.79745   0.66364   0.00000  Uiso   1.00
H958   H     0.21003   0.62083   0.58705   0.00000  Uiso   1.00
H959   H     0.18005   0.58718   0.61894   0.00000  Uiso   1.00
H960   H     0.19981   0.66273   0.67122   0.00000  Uiso   1.00
H961   H     0.02030   0.88586   0.12257   0.00000  Uiso   1.00
H962   H     0.21495   0.62065   0.69768   0.00000  Uiso   1.00
H963   H     0.47214   0.61481   0.20643   0.00000  Uiso   1.00
H964   H     0.47937   0.60742   0.12757   0.00000  Uiso   1.00
H965   H     0.45063   0.57681   0.16933   0.00000  Uiso   1.00
H966   H     0.41501   0.62181   0.10615   0.00000  Uiso   1.00
H967   H     0.43623   0.65815   0.14164   0.00000  Uiso   1.00
H968   H     0.06463   0.92744   0.86115   0.00000  Uiso   1.00
H969   H     0.03248   0.90284   0.81605   0.00000  Uiso   1.00
H970   H     0.03199   0.89889   0.89666   0.00000  Uiso   1.00
H971   H     0.05715   0.84424   0.85079   0.00000  Uiso   1.00
H972   H     0.04398   0.91732   0.17084   0.00000  Uiso   1.00
H973   H     0.08982   0.86439   0.89597   0.00000  Uiso   1.00
H974   H     0.23020   0.64343   0.23808   0.00000  Uiso   1.00
H975   H     0.24200   0.67094   0.30207   0.00000  Uiso   1.00
H976   H     0.20452   0.68402   0.25539   0.00000  Uiso   1.00
H977   H     0.18965   0.65069   0.35798   0.00000  Uiso   1.00
H978   H     0.20799   0.61148   0.32581   0.00000  Uiso   1.00
H979   H     0.31354   0.91103   0.88649   0.00000  Uiso   1.00
H980   H     0.34966   0.88398   0.91722   0.00000  Uiso   1.00
H981   H     0.34375   0.93070   0.94064   0.00000  Uiso   1.00
H982   H     0.39474   0.93159   0.87106   0.00000  Uiso   1.00
H983   H     0.08560   0.87916   0.10546   0.00000  Uiso   1.00
H984   H     0.35760   0.95232   0.83673   0.00000  Uiso   1.00
H985   H     0.13799   0.73020   0.75400   0.00000  Uiso   1.00
H986   H     0.18124   0.71230   0.72956   0.00000  Uiso   1.00
H987   H     0.15818   0.74658   0.68584   0.00000  Uiso   1.00
H988   H     0.14893   0.68743   0.63633   0.00000  Uiso   1.00
H989   H     0.10766   0.70350   0.66412   0.00000  Uiso   1.00
H990   H     0.40766   0.81626   0.11327   0.00000  Uiso   1.00
H991   H     0.38492   0.85506   0.08125   0.00000  Uiso   1.00
H992   H     0.43113   0.84464   0.06024   0.00000  Uiso   1.00
H993   H     0.43370   0.89599   0.13097   0.00000  Uiso   1.00
H994   H     0.06886   0.83933   0.13698   0.00000  Uiso   1.00
H995   H     0.45264   0.85721   0.16331   0.00000  Uiso   1.00
H996   H     0.37393   0.52304   0.78695   0.00000  Uiso   1.00
H997   H     0.41768   0.54128   0.80820   0.00000  Uiso   1.00
H998   H     0.39128   0.51496   0.86062   0.00000  Uiso   1.00
H999   H     0.38601   0.57741   0.88853   0.00000  Uiso   1.00
H1000  H     0.34328   0.56418   0.86163   0.00000  Uiso   1.00
H1001  H     0.18409   0.90707   0.11363   0.00000  Uiso   1.00
H1002  H     0.14526   0.88466   0.08148   0.00000  Uiso   1.00
H1003  H     0.15601   0.93095   0.06062   0.00000  Uiso   1.00
H1004  H     0.10479   0.93390   0.13124   0.00000  Uiso   1.00
H1005  H     0.45084   0.59100   0.86048   0.00000  Uiso   1.00
H1006  H     0.14350   0.95256   0.16366   0.00000  Uiso   1.00
H1007  H     0.47341   0.86639   0.81245   0.00000  Uiso   1.00
H1008  H     0.45680   0.90955   0.84084   0.00000  Uiso   1.00
H1009  H     0.47392   0.87521   0.89143   0.00000  Uiso   1.00
H1010  H     0.40864   0.87513   0.89800   0.00000  Uiso   1.00
H1011  H     0.42269   0.83412   0.86736   0.00000  Uiso   1.00
H1012  H     0.08782   0.67871   0.38142   0.00000  Uiso   1.00
H1013  H     0.13123   0.66131   0.40665   0.00000  Uiso   1.00
H1014  H     0.12107   0.70932   0.41285   0.00000  Uiso   1.00
H1015  H     0.16190   0.70081   0.32731   0.00000  Uiso   1.00
H1016  H     0.47091   0.63153   0.82772   0.00000  Uiso   1.00
H1017  H     0.11953   0.71513   0.30218   0.00000  Uiso   1.00
H1018  H     0.15551   0.97558   0.83175   0.00000  Uiso   1.00
H1019  H     0.10817   0.96595   0.81632   0.00000  Uiso   1.00
H1020  H     0.12339   0.97416   0.89162   0.00000  Uiso   1.00
H1021  H     0.12279   0.91192   0.89712   0.00000  Uiso   1.00
H1022  H     0.16702   0.91662   0.87127   0.00000  Uiso   1.00
H1023  H     0.31436   0.60005   0.11504   0.00000  Uiso   1.00
H1024  H     0.35436   0.61998   0.08207   0.00000  Uiso   1.00
H1025  H     0.33957   0.57517   0.05931   0.00000  Uiso   1.00
H1026  H     0.39189   0.56764   0.12735   0.00000  Uiso   1.00
H1027  H     0.46650   0.62772   0.90753   0.00000  Uiso   1.00
H1028  H     0.35262   0.55006   0.15935   0.00000  Uiso   1.00
H1029  H     0.27786   0.63519   0.70643   0.00000  Uiso   1.00
H1030  H     0.27062   0.64259   0.62757   0.00000  Uiso   1.00
H1031  H     0.29937   0.67319   0.66934   0.00000  Uiso   1.00
H1032  H     0.33499   0.62820   0.60616   0.00000  Uiso   1.00
H1033  H     0.31376   0.59186   0.64164   0.00000  Uiso   1.00
H1034  H     0.18539   0.82254   0.36107   0.00000  Uiso   1.00
H1035  H     0.21754   0.84714   0.31597   0.00000  Uiso   1.00
H1036  H     0.21804   0.85107   0.39659   0.00000  Uiso   1.00
H1037  H     0.19287   0.90574   0.35076   0.00000  Uiso   1.00
H1038  H     0.41946   0.66894   0.86708   0.00000  Uiso   1.00
H1039  H     0.16021   0.88558   0.39596   0.00000  Uiso   1.00
H1040  H     0.01980   0.60658   0.73807   0.00000  Uiso   1.00
H1041  H     0.00799   0.57906   0.80205   0.00000  Uiso   1.00
H1042  H     0.04548   0.56598   0.75538   0.00000  Uiso   1.00
H1043  H     0.06034   0.59930   0.85797   0.00000  Uiso   1.00
H1044  H     0.04200   0.63851   0.82581   0.00000  Uiso   1.00
H1045  H     0.43648   0.83900   0.38645   0.00000  Uiso   1.00
H1046  H     0.40035   0.86601   0.41727   0.00000  Uiso   1.00
H1047  H     0.40630   0.81927   0.44061   0.00000  Uiso   1.00
H1048  H     0.35527   0.81843   0.37108   0.00000  Uiso   1.00
O1049  O     0.00000   0.75000   0.25000   0.00000  Uiso   1.00
O1050  O     0.00000   0.78035   0.61781   0.00000  Uiso   1.00
O1051  O     0.21964   0.50000   0.38219   0.00000  Uiso   1.00
O1052  O     0.28035   0.50000   0.61781   0.00000  Uiso   1.00
O1053  O     0.25000   0.53036   0.88219   0.00000  Uiso   1.00
O1054  O     0.25000   0.96964   0.11781   0.00000  Uiso   1.00
O1055  O     0.03035   0.75000   0.88219   0.00000  Uiso   1.00
O1056  O     0.46964   0.75000   0.11781   0.00000  Uiso   1.00
O1057  O     0.25000   0.96964   0.88219   0.00000  Uiso   1.00
O1058  O     0.25000   0.53036   0.11781   0.00000  Uiso   1.00
O1059  O     0.46964   0.75000   0.88219   0.00000  Uiso   1.00
O1060  O     0.00000   0.75000   0.75000   0.00000  Uiso   1.00
O1061  O     0.03035   0.75000   0.11781   0.00000  Uiso   1.00
O1062  O     0.04267   0.67692   0.28474   0.00000  Uiso   1.00
O1063  O     0.45732   0.82308   0.71526   0.00000  Uiso   1.00
O1064  O     0.17692   0.95732   0.28474   0.00000  Uiso   1.00
O1065  O     0.32307   0.54268   0.71526   0.00000  Uiso   1.00
O1066  O     0.45732   0.82308   0.28474   0.00000  Uiso   1.00
O1067  O     0.04267   0.67692   0.71526   0.00000  Uiso   1.00
O1068  O     0.32307   0.54268   0.28474   0.00000  Uiso   1.00
O1069  O     0.17692   0.95732   0.71526   0.00000  Uiso   1.00
O1070  O     0.04267   0.82307   0.71526   0.00000  Uiso   1.00
O1071  O     0.25000   0.50000   0.25000   0.00000  Uiso   1.00
O1072  O     0.45732   0.67693   0.28474   0.00000  Uiso   1.00
O1073  O     0.17692   0.54268   0.71526   0.00000  Uiso   1.00
O1074  O     0.32307   0.95732   0.28474   0.00000  Uiso   1.00
O1075  O     0.45732   0.67693   0.71526   0.00000  Uiso   1.00
O1076  O     0.04267   0.82307   0.28474   0.00000  Uiso   1.00
O1077  O     0.32307   0.95732   0.71526   0.00000  Uiso   1.00
O1078  O     0.17692   0.54268   0.28474   0.00000  Uiso   1.00
O1079  O     0.29267   0.92692   0.78474   0.00000  Uiso   1.00
O1080  O     0.20732   0.57308   0.21526   0.00000  Uiso   1.00
O1081  O     0.42692   0.70733   0.78474   0.00000  Uiso   1.00
O1082  O     0.25000   0.50000   0.75000   0.00000  Uiso   1.00
O1083  O     0.07307   0.79267   0.21526   0.00000  Uiso   1.00
O1084  O     0.20732   0.57308   0.78474   0.00000  Uiso   1.00
O1085  O     0.29267   0.92692   0.21526   0.00000  Uiso   1.00
O1086  O     0.07307   0.79267   0.78474   0.00000  Uiso   1.00
O1087  O     0.42692   0.70733   0.21526   0.00000  Uiso   1.00
O1088  O     0.29267   0.57308   0.21526   0.00000  Uiso   1.00
O1089  O     0.20732   0.92692   0.78474   0.00000  Uiso   1.00
O1090  O     0.42692   0.79268   0.21526   0.00000  Uiso   1.00
O1091  O     0.07307   0.70732   0.78474   0.00000  Uiso   1.00
O1092  O     0.20732   0.92692   0.21526   0.00000  Uiso   1.00
O1093  O    -0.00000   0.78036   0.38219   0.00000  Uiso   1.00
O1094  O     0.29267   0.57308   0.78474   0.00000  Uiso   1.00
O1095  O     0.07307   0.70732   0.21526   0.00000  Uiso   1.00
O1096  O     0.42692   0.79268   0.78474   0.00000  Uiso   1.00
O1097  O     0.00000   0.71964   0.61781   0.00000  Uiso   1.00
O1098  O     0.28035   0.50000   0.38219   0.00000  Uiso   1.00
O1099  O     0.21964   0.50000   0.61781   0.00000  Uiso   1.00
O1100  O    -0.00000   0.71965   0.38219   0.00000  Uiso   1.00
Zn1101 Zn    0.04333   0.75000   0.20067   0.00000  Uiso   1.00
Zn1102 Zn    0.20667   0.50000   0.29933   0.00000  Uiso   1.00
Zn1103 Zn    0.00000   0.70667   0.70067   0.00000  Uiso   1.00
Zn1104 Zn    0.00000   0.79333   0.29933   0.00000  Uiso   1.00
Zn1105 Zn    0.20667   0.50000   0.70067   0.00000  Uiso   1.00
Zn1106 Zn    0.29333   0.50000   0.29933   0.00000  Uiso   1.00
Zn1107 Zn    0.00000   0.79333   0.70067   0.00000  Uiso   1.00
Zn1108 Zn   -0.00000   0.70667   0.29933   0.00000  Uiso   1.00
Zn1109 Zn    0.45667   0.75000   0.79933   0.00000  Uiso   1.00
Zn1110 Zn    0.25000   0.95667   0.20067   0.00000  Uiso   1.00
Zn1111 Zn    0.25000   0.54333   0.79933   0.00000  Uiso   1.00
Zn1112 Zn    0.45667   0.75000   0.20067   0.00000  Uiso   1.00
Zn1113 Zn    0.04333   0.75000   0.79933   0.00000  Uiso   1.00
Zn1114 Zn    0.25000   0.54333   0.20067   0.00000  Uiso   1.00
Zn1115 Zn    0.25000   0.95667   0.79933   0.00000  Uiso   1.00
Zn1116 Zn    0.29333   0.50000   0.70067   0.00000  Uiso   1.00
C1117  C     0.99999   0.75002   0.02668   0.00000  Uiso   1.00
C1118  C     0.99999   0.75000   0.58990   0.00000  Uiso   1.00
C1119  C     0.91145   0.84477   0.09786   0.00000  Uiso   1.00
C1120  C     0.87152   0.57022   0.84711   0.00000  Uiso   1.00
C1121  C     0.88965   0.53534   0.82401   0.00000  Uiso   1.00
C1122  C     0.63195   0.92610   0.14870   0.00000  Uiso   1.00
C1123  C     0.65571   0.91116   0.09818   0.00000  Uiso   1.00
C1124  C     0.92058   0.86360   0.85689   0.00000  Uiso   1.00
C1125  C     0.95849   0.87974   0.84953   0.00000  Uiso   1.00
C1126  C     0.63341   0.69143   0.32275   0.00000  Uiso   1.00
C1127  C     0.61738   0.68468   0.38466   0.00000  Uiso   1.00
C1128  C     0.63829   0.92062   0.85745   0.00000  Uiso   1.00
C1129  C     0.75000   0.99999   0.41006   0.00000  Uiso   1.00
C1130  C     0.63082   0.96143   0.84832   0.00000  Uiso   1.00
C1131  C     0.86542   0.57631   0.14634   0.00000  Uiso   1.00
C1132  C     0.84206   0.59407   0.09786   0.00000  Uiso   1.00
C1133  C     0.82348   0.62005   0.64977   0.00000  Uiso   1.00
C1134  C     0.79085   0.64428   0.66426   0.00000  Uiso   1.00
C1135  C     0.67498   0.88152   0.35332   0.00000  Uiso   1.00
C1136  C     0.70037   0.84851   0.35671   0.00000  Uiso   1.00
C1137  C     0.55617   0.61272   0.81415   0.00000  Uiso   1.00
C1138  C     0.53092   0.58969   0.77499   0.00000  Uiso   1.00
C1139  C     0.88252   0.82469   0.35238   0.00000  Uiso   1.00
C1140  C     0.75000   0.99999   0.58995   0.00000  Uiso   1.00
C1141  C     0.90786   0.83821   0.40196   0.00000  Uiso   1.00
C1142  C     0.67540   0.88172   0.64775   0.00000  Uiso   1.00
C1143  C     0.71113   0.86203   0.66151   0.00000  Uiso   1.00
C1144  C     0.83392   0.61080   0.36104   0.00000  Uiso   1.00
C1145  C     0.79663   0.62890   0.36422   0.00000  Uiso   1.00
C1146  C     0.88215   0.82428   0.64779   0.00000  Uiso   1.00
C1147  C     0.86308   0.78817   0.66157   0.00000  Uiso   1.00
C1148  C     0.55881   0.61606   0.17632   0.00000  Uiso   1.00
C1149  C     0.56469   0.63308   0.11482   0.00000  Uiso   1.00
C1150  C     0.82944   0.88642   0.35691   0.00000  Uiso   1.00
C1151  C     0.75000   0.50000   0.91010   0.00000  Uiso   1.00
C1152  C     0.79152   0.87028   0.34957   0.00000  Uiso   1.00
C1153  C     0.61659   0.55857   0.82274   0.00000  Uiso   1.00
C1154  C     0.63262   0.56531   0.88465   0.00000  Uiso   1.00
C1155  C     0.61173   0.82937   0.35744   0.00000  Uiso   1.00
C1156  C     0.61919   0.78856   0.34829   0.00000  Uiso   1.00
C1157  C     0.88458   0.67369   0.64634   0.00000  Uiso   1.00
C1158  C     0.90794   0.65593   0.59786   0.00000  Uiso   1.00
C1159  C     0.61562   0.55745   0.17882   0.00000  Uiso   1.00
C1160  C     0.59581   0.52790   0.21435   0.00000  Uiso   1.00
C1161  C     0.82379   0.88130   0.64840   0.00000  Uiso   1.00
C1162  C     0.75001   0.50000   0.08990   0.00000  Uiso   1.00
C1163  C     0.83849   0.90520   0.59785   0.00000  Uiso   1.00
C1164  C     0.87848   0.67978   0.34711   0.00000  Uiso   1.00
C1165  C     0.86036   0.71466   0.32401   0.00000  Uiso   1.00
C1166  C     0.61804   0.82391   0.64869   0.00000  Uiso   1.00
C1167  C     0.59428   0.83886   0.59818   0.00000  Uiso   1.00
C1168  C     0.50000   0.75001   0.91006   0.00000  Uiso   1.00
C1169  C     0.50000   0.75001   0.08995   0.00000  Uiso   1.00
C1170  C     0.56985   0.67988   0.24977   0.00000  Uiso   1.00
C1171  C     0.92995   0.81997   0.75004   0.00000  Uiso   1.00
C1172  C     0.68018   0.92982   0.25031   0.00000  Uiso   1.00
C1173  C     0.99999   0.75002   0.97332   0.00000  Uiso   1.00
C1174  C     0.81994   0.57003   0.74981   0.00000  Uiso   1.00
C1175  C     0.93010   0.82002   0.24998   0.00000  Uiso   1.00
C1176  C     0.56996   0.68001   0.74990   0.00000  Uiso   1.00
C1177  C     0.81963   0.57039   0.25113   0.00000  Uiso   1.00
C1178  C     0.68031   0.92971   0.74955   0.00000  Uiso   1.00
C1179  C     0.56982   0.82018   0.75031   0.00000  Uiso   1.00
C1180  C     0.93005   0.67997   0.24981   0.00000  Uiso   1.00
C1181  C     0.68015   0.57012   0.74977   0.00000  Uiso   1.00
C1182  C     0.82005   0.93003   0.25004   0.00000  Uiso   1.00
C1183  C     0.93037   0.67961   0.75113   0.00000  Uiso   1.00
C1184  C     0.75001   0.99999   0.02667   0.00000  Uiso   1.00
C1185  C     0.56969   0.82029   0.24955   0.00000  Uiso   1.00
C1186  C     0.81990   0.92998   0.74998   0.00000  Uiso   1.00
C1187  C     0.68004   0.56999   0.24990   0.00000  Uiso   1.00
C1188  C     0.60146   0.87154   0.19978   0.00000  Uiso   1.00
C1189  C     0.89630   0.63018   0.80281   0.00000  Uiso   1.00
C1190  C     0.87153   0.89877   0.19975   0.00000  Uiso   1.00
C1191  C     0.65718   0.63016   0.71502   0.00000  Uiso   1.00
C1192  C     0.89848   0.62837   0.20014   0.00000  Uiso   1.00
C1193  C     0.60173   0.87143   0.80093   0.00000  Uiso   1.00
C1194  C     0.65764   0.63060   0.28245   0.00000  Uiso   1.00
C1195  C     0.75000   0.99999   0.97333   0.00000  Uiso   1.00
C1196  C     0.87042   0.89799   0.80084   0.00000  Uiso   1.00
C1197  C     0.62999   0.65755   0.71542   0.00000  Uiso   1.00
C1198  C     0.89907   0.87174   0.19999   0.00000  Uiso   1.00
C1199  C     0.87181   0.60045   0.79966   0.00000  Uiso   1.00
C1200  C     0.62866   0.89886   0.20026   0.00000  Uiso   1.00
C1201  C     0.89693   0.87001   0.80164   0.00000  Uiso   1.00
C1202  C     0.62991   0.65737   0.28368   0.00000  Uiso   1.00
C1203  C     0.63020   0.89758   0.80163   0.00000  Uiso   1.00
C1204  C     0.87049   0.60186   0.19982   0.00000  Uiso   1.00
C1205  C     0.85152   0.62163   0.70014   0.00000  Uiso   1.00
C1206  C     0.75001   0.99998   0.52668   0.00000  Uiso   1.00
C1207  C     0.64828   0.87856   0.30091   0.00000  Uiso   1.00
C1208  C     0.59236   0.61939   0.78245   0.00000  Uiso   1.00
C1209  C     0.87959   0.85201   0.30084   0.00000  Uiso   1.00
C1210  C     0.64853   0.87846   0.69978   0.00000  Uiso   1.00
C1211  C     0.85370   0.61982   0.30281   0.00000  Uiso   1.00
C1212  C     0.87847   0.85122   0.69976   0.00000  Uiso   1.00
C1213  C     0.59282   0.61984   0.21502   0.00000  Uiso   1.00
C1214  C     0.85308   0.88000   0.30164   0.00000  Uiso   1.00
C1215  C     0.62009   0.59263   0.78367   0.00000  Uiso   1.00
C1216  C     0.61981   0.85241   0.30162   0.00000  Uiso   1.00
C1217  C     0.75001   0.99998   0.47332   0.00000  Uiso   1.00
C1218  C     0.87950   0.64814   0.69982   0.00000  Uiso   1.00
C1219  C     0.62001   0.59245   0.21542   0.00000  Uiso   1.00
C1220  C     0.85092   0.87825   0.70000   0.00000  Uiso   1.00
C1221  C     0.87819   0.64955   0.29967   0.00000  Uiso   1.00
C1222  C     0.62133   0.85115   0.70025   0.00000  Uiso   1.00
C1223  C     0.65205   0.90170   0.25039   0.00000  Uiso   1.00
C1224  C     0.84836   0.59782   0.74974   0.00000  Uiso   1.00
C1225  C     0.90223   0.84829   0.25006   0.00000  Uiso   1.00
C1226  C     0.59802   0.65188   0.74949   0.00000  Uiso   1.00
C1227  C     0.84830   0.59798   0.25115   0.00000  Uiso   1.00
C1228  C     0.99999   0.75001   0.52667   0.00000  Uiso   1.00
C1229  C     0.65230   0.90154   0.75016   0.00000  Uiso   1.00
C1230  C     0.59795   0.65173   0.24975   0.00000  Uiso   1.00
C1231  C     0.90150   0.84784   0.75023   0.00000  Uiso   1.00
C1232  C     0.65205   0.59827   0.74975   0.00000  Uiso   1.00
C1233  C     0.84850   0.90216   0.25023   0.00000  Uiso   1.00
C1234  C     0.90170   0.65202   0.75115   0.00000  Uiso   1.00
C1235  C     0.59770   0.84846   0.25016   0.00000  Uiso   1.00
C1236  C     0.84777   0.90171   0.75006   0.00000  Uiso   1.00
C1237  C     0.65198   0.59812   0.24949   0.00000  Uiso   1.00
C1238  C     0.59795   0.84830   0.75039   0.00000  Uiso   1.00
C1239  C     0.99999   0.75001   0.47333   0.00000  Uiso   1.00
C1240  C     0.90164   0.65218   0.24974   0.00000  Uiso   1.00
C1241  C     0.57459   0.86829   0.14776   0.00000  Uiso   1.00
C1242  C     0.53886   0.88798   0.16154   0.00000  Uiso   1.00
C1243  C     0.91608   0.63919   0.86104   0.00000  Uiso   1.00
C1244  C     0.95337   0.62110   0.86422   0.00000  Uiso   1.00
C1245  C     0.86784   0.92571   0.14778   0.00000  Uiso   1.00
C1246  C     0.88694   0.96181   0.16154   0.00000  Uiso   1.00
C1247  C     0.69119   0.63394   0.67632   0.00000  Uiso   1.00
C1248  C     0.68531   0.61692   0.61482   0.00000  Uiso   1.00
C1249  C     0.92652   0.62996   0.14977   0.00000  Uiso   1.00
C1250  C     0.50000   0.75000   0.41010   0.00000  Uiso   1.00
C1251  C     0.95915   0.60572   0.16425   0.00000  Uiso   1.00
C1252  C     0.57504   0.86846   0.85335   0.00000  Uiso   1.00
C1253  C     0.54965   0.90147   0.85677   0.00000  Uiso   1.00
C1254  C     0.69383   0.63728   0.31416   0.00000  Uiso   1.00
C1255  C     0.71908   0.66031   0.27500   0.00000  Uiso   1.00
C1256  C     0.86749   0.92532   0.85237   0.00000  Uiso   1.00
C1257  C     0.84216   0.91179   0.90197   0.00000  Uiso   1.00
C1258  C     0.63438   0.69255   0.67883   0.00000  Uiso   1.00
C1259  C     0.65419   0.72210   0.71436   0.00000  Uiso   1.00
C1260  C     0.92618   0.86867   0.14838   0.00000  Uiso   1.00
H1261  H     0.52516   0.87556   0.20072   0.00000  Uiso   1.00
H1262  H     0.89958   0.63211   0.90073   0.00000  Uiso   1.00
H1263  H     0.89240   0.79769   0.33673   0.00000  Uiso   1.00
H1264  H     0.72484   0.87444   0.70069   0.00000  Uiso   1.00
H1265  H     0.72969   0.86415   0.62254   0.00000  Uiso   1.00
H1266  H     0.70601   0.83269   0.67081   0.00000  Uiso   1.00
H1267  H     0.66439   0.87085   0.60545   0.00000  Uiso   1.00
H1268  H     0.68113   0.91068   0.63697   0.00000  Uiso   1.00
H1269  H     0.79916   0.65900   0.36049   0.00000  Uiso   1.00
H1270  H     0.77909   0.61847   0.32772   0.00000  Uiso   1.00
H1271  H     0.78350   0.62228   0.40753   0.00000  Uiso   1.00
H1272  H     0.83053   0.58106   0.36708   0.00000  Uiso   1.00
H1273  H     0.87439   0.97539   0.20075   0.00000  Uiso   1.00
H1274  H     0.85042   0.61789   0.40073   0.00000  Uiso   1.00
H1275  H     0.87565   0.77460   0.70077   0.00000  Uiso   1.00
H1276  H     0.86551   0.76956   0.62263   0.00000  Uiso   1.00
H1277  H     0.83375   0.79289   0.67082   0.00000  Uiso   1.00
H1278  H     0.87111   0.83514   0.60548   0.00000  Uiso   1.00
H1279  H     0.91110   0.81896   0.63700   0.00000  Uiso   1.00
H1280  H     0.58813   0.62011   0.09181   0.00000  Uiso   1.00
H1281  H     0.53997   0.62918   0.08705   0.00000  Uiso   1.00
H1282  H     0.56995   0.66282   0.11893   0.00000  Uiso   1.00
H1283  H     0.55019   0.58727   0.17122   0.00000  Uiso   1.00
H1284  H     0.88450   0.98042   0.12260   0.00000  Uiso   1.00
H1285  H     0.53506   0.62935   0.19767   0.00000  Uiso   1.00
H1286  H     0.77660   0.88363   0.31250   0.00000  Uiso   1.00
H1287  H     0.79321   0.84047   0.34089   0.00000  Uiso   1.00
H1288  H     0.77610   0.87482   0.39148   0.00000  Uiso   1.00
H1289  H     0.84138   0.87489   0.39801   0.00000  Uiso   1.00
H1290  H     0.82733   0.91590   0.36737   0.00000  Uiso   1.00
H1291  H     0.66217   0.57128   0.88142   0.00000  Uiso   1.00
H1292  H     0.61877   0.58868   0.90664   0.00000  Uiso   1.00
H1293  H     0.62893   0.54067   0.91284   0.00000  Uiso   1.00
H1294  H     0.58810   0.54919   0.82730   0.00000  Uiso   1.00
H1295  H     0.91626   0.95707   0.17076   0.00000  Uiso   1.00
H1296  H     0.63046   0.53486   0.80217   0.00000  Uiso   1.00
H1297  H     0.59449   0.77441   0.33174   0.00000  Uiso   1.00
H1298  H     0.64183   0.78403   0.31627   0.00000  Uiso   1.00
H1299  H     0.62663   0.77582   0.39158   0.00000  Uiso   1.00
H1300  H     0.62723   0.83806   0.39711   0.00000  Uiso   1.00
H1301  H     0.58299   0.83337   0.37127   0.00000  Uiso   1.00
H1302  H     0.93563   0.64996   0.61504   0.00000  Uiso   1.00
H1303  H     0.89564   0.63002   0.58207   0.00000  Uiso   1.00
H1304  H     0.91043   0.67483   0.55931   0.00000  Uiso   1.00
H1305  H     0.85811   0.68236   0.62735   0.00000  Uiso   1.00
H1306  H     0.87886   0.91484   0.10547   0.00000  Uiso   1.00
H1307  H     0.89738   0.69994   0.65935   0.00000  Uiso   1.00
H1308  H     0.61201   0.51979   0.25399   0.00000  Uiso   1.00
H1309  H     0.56876   0.53770   0.22956   0.00000  Uiso   1.00
H1310  H     0.59182   0.50343   0.18582   0.00000  Uiso   1.00
H1311  H     0.60108   0.56257   0.13633   0.00000  Uiso   1.00
H1312  H     0.64234   0.54650   0.16412   0.00000  Uiso   1.00
H1313  H     0.84229   0.93371   0.61324   0.00000  Uiso   1.00
H1314  H     0.86502   0.89491   0.58122   0.00000  Uiso   1.00
H1315  H     0.81879   0.90531   0.56025   0.00000  Uiso   1.00
H1316  H     0.81627   0.85398   0.63102   0.00000  Uiso   1.00
H1317  H     0.83889   0.93105   0.13701   0.00000  Uiso   1.00
H1318  H     0.79733   0.89276   0.66336   0.00000  Uiso   1.00
H1319  H     0.87608   0.72697   0.28697   0.00000  Uiso   1.00
H1320  H     0.83233   0.70872   0.30818   0.00000  Uiso   1.00
H1321  H     0.85872   0.73504   0.36063   0.00000  Uiso   1.00
H1322  H     0.86399   0.67258   0.38853   0.00000  Uiso   1.00
H1323  H     0.90672   0.68582   0.36163   0.00000  Uiso   1.00
H1324  H     0.56590   0.84295   0.61364   0.00000  Uiso   1.00
H1325  H     0.60472   0.86536   0.58148   0.00000  Uiso   1.00
H1326  H     0.59396   0.81908   0.56061   0.00000  Uiso   1.00
H1327  H     0.64520   0.81612   0.63122   0.00000  Uiso   1.00
H1328  H     0.66187   0.62989   0.59181   0.00000  Uiso   1.00
H1329  H     0.60649   0.79745   0.66364   0.00000  Uiso   1.00
H1330  H     0.71003   0.62083   0.58705   0.00000  Uiso   1.00
H1331  H     0.68005   0.58718   0.61894   0.00000  Uiso   1.00
H1332  H     0.69981   0.66273   0.67122   0.00000  Uiso   1.00
H1333  H     0.52030   0.88586   0.12257   0.00000  Uiso   1.00
H1334  H     0.71495   0.62065   0.69768   0.00000  Uiso   1.00
H1335  H     0.97214   0.61481   0.20643   0.00000  Uiso   1.00
H1336  H     0.97937   0.60742   0.12757   0.00000  Uiso   1.00
H1337  H     0.95063   0.57681   0.16933   0.00000  Uiso   1.00
H1338  H     0.91501   0.62181   0.10615   0.00000  Uiso   1.00
H1339  H     0.93623   0.65815   0.14164   0.00000  Uiso   1.00
H1340  H     0.56463   0.92744   0.86115   0.00000  Uiso   1.00
H1341  H     0.53248   0.90284   0.81605   0.00000  Uiso   1.00
H1342  H     0.53199   0.89889   0.89666   0.00000  Uiso   1.00
H1343  H     0.55715   0.84424   0.85079   0.00000  Uiso   1.00
H1344  H     0.54398   0.91732   0.17084   0.00000  Uiso   1.00
H1345  H     0.58982   0.86439   0.89597   0.00000  Uiso   1.00
H1346  H     0.73020   0.64343   0.23808   0.00000  Uiso   1.00
H1347  H     0.74200   0.67094   0.30207   0.00000  Uiso   1.00
H1348  H     0.70452   0.68402   0.25539   0.00000  Uiso   1.00
H1349  H     0.68965   0.65069   0.35798   0.00000  Uiso   1.00
H1350  H     0.70799   0.61148   0.32581   0.00000  Uiso   1.00
H1351  H     0.81354   0.91103   0.88649   0.00000  Uiso   1.00
H1352  H     0.84966   0.88398   0.91722   0.00000  Uiso   1.00
H1353  H     0.84375   0.93070   0.94064   0.00000  Uiso   1.00
H1354  H     0.89474   0.93159   0.87106   0.00000  Uiso   1.00
H1355  H     0.58560   0.87916   0.10546   0.00000  Uiso   1.00
H1356  H     0.85760   0.95232   0.83673   0.00000  Uiso   1.00
H1357  H     0.63799   0.73020   0.75400   0.00000  Uiso   1.00
H1358  H     0.68124   0.71230   0.72956   0.00000  Uiso   1.00
H1359  H     0.65818   0.74658   0.68584   0.00000  Uiso   1.00
H1360  H     0.64893   0.68743   0.63633   0.00000  Uiso   1.00
H1361  H     0.60766   0.70350   0.66412   0.00000  Uiso   1.00
H1362  H     0.90766   0.81626   0.11327   0.00000  Uiso   1.00
H1363  H     0.88492   0.85506   0.08125   0.00000  Uiso   1.00
H1364  H     0.93113   0.84464   0.06024   0.00000  Uiso   1.00
H1365  H     0.93370   0.89599   0.13097   0.00000  Uiso   1.00
H1366  H     0.56886   0.83933   0.13698   0.00000  Uiso   1.00
H1367  H     0.95264   0.85721   0.16331   0.00000  Uiso   1.00
H1368  H     0.87393   0.52304   0.78695   0.00000  Uiso   1.00
H1369  H     0.91768   0.54128   0.80820   0.00000  Uiso   1.00
H1370  H     0.89128   0.51496   0.86062   0.00000  Uiso   1.00
H1371  H     0.88601   0.57741   0.88853   0.00000  Uiso   1.00
H1372  H     0.84328   0.56418   0.86163   0.00000  Uiso   1.00
H1373  H     0.68409   0.90707   0.11363   0.00000  Uiso   1.00
H1374  H     0.64526   0.88466   0.08148   0.00000  Uiso   1.00
H1375  H     0.65601   0.93095   0.06062   0.00000  Uiso   1.00
H1376  H     0.60479   0.93390   0.13124   0.00000  Uiso   1.00
H1377  H     0.95084   0.59100   0.86048   0.00000  Uiso   1.00
H1378  H     0.64350   0.95256   0.16366   0.00000  Uiso   1.00
H1379  H     0.97341   0.86639   0.81245   0.00000  Uiso   1.00
H1380  H     0.95680   0.90955   0.84084   0.00000  Uiso   1.00
H1381  H     0.97392   0.87521   0.89143   0.00000  Uiso   1.00
H1382  H     0.90864   0.87513   0.89800   0.00000  Uiso   1.00
H1383  H     0.92269   0.83412   0.86736   0.00000  Uiso   1.00
H1384  H     0.58782   0.67871   0.38142   0.00000  Uiso   1.00
H1385  H     0.63123   0.66131   0.40665   0.00000  Uiso   1.00
H1386  H     0.62107   0.70932   0.41285   0.00000  Uiso   1.00
H1387  H     0.66190   0.70081   0.32731   0.00000  Uiso   1.00
H1388  H     0.97091   0.63153   0.82772   0.00000  Uiso   1.00
H1389  H     0.61953   0.71513   0.30218   0.00000  Uiso   1.00
H1390  H     0.65551   0.97558   0.83175   0.00000  Uiso   1.00
H1391  H     0.60817   0.96595   0.81632   0.00000  Uiso   1.00
H1392  H     0.62339   0.97416   0.89162   0.00000  Uiso   1.00
H1393  H     0.62279   0.91192   0.89712   0.00000  Uiso   1.00
H1394  H     0.66702   0.91662   0.87127   0.00000  Uiso   1.00
H1395  H     0.81436   0.60005   0.11504   0.00000  Uiso   1.00
H1396  H     0.85436   0.61998   0.08207   0.00000  Uiso   1.00
H1397  H     0.83957   0.57517   0.05931   0.00000  Uiso   1.00
H1398  H     0.89189   0.56764   0.12735   0.00000  Uiso   1.00
H1399  H     0.96650   0.62772   0.90753   0.00000  Uiso   1.00
H1400  H     0.85262   0.55006   0.15935   0.00000  Uiso   1.00
H1401  H     0.77786   0.63519   0.70643   0.00000  Uiso   1.00
H1402  H     0.77062   0.64259   0.62757   0.00000  Uiso   1.00
H1403  H     0.79937   0.67319   0.66934   0.00000  Uiso   1.00
H1404  H     0.83499   0.62820   0.60616   0.00000  Uiso   1.00
H1405  H     0.81376   0.59186   0.64164   0.00000  Uiso   1.00
H1406  H     0.68539   0.82254   0.36107   0.00000  Uiso   1.00
H1407  H     0.71754   0.84714   0.31597   0.00000  Uiso   1.00
H1408  H     0.71804   0.85107   0.39659   0.00000  Uiso   1.00
H1409  H     0.69287   0.90574   0.35076   0.00000  Uiso   1.00
H1410  H     0.91946   0.66894   0.86708   0.00000  Uiso   1.00
H1411  H     0.66021   0.88558   0.39596   0.00000  Uiso   1.00
H1412  H     0.51980   0.60658   0.73807   0.00000  Uiso   1.00
H1413  H     0.50799   0.57906   0.80205   0.00000  Uiso   1.00
H1414  H     0.54548   0.56598   0.75538   0.00000  Uiso   1.00
H1415  H     0.56034   0.59930   0.85797   0.00000  Uiso   1.00
H1416  H     0.54200   0.63851   0.82581   0.00000  Uiso   1.00
H1417  H     0.93648   0.83900   0.38645   0.00000  Uiso   1.00
H1418  H     0.90035   0.86601   0.41727   0.00000  Uiso   1.00
H1419  H     0.90630   0.81927   0.44061   0.00000  Uiso   1.00
H1420  H     0.85527   0.81843   0.37108   0.00000  Uiso   1.00
O1421  O     0.50000   0.75000   0.25000   0.00000  Uiso   1.00
O1422  O     0.50000   0.78035   0.61781   0.00000  Uiso   1.00
O1423  O     0.71964   0.50000   0.38219   0.00000  Uiso   1.00
O1424  O     0.78035   0.50000   0.61781   0.00000  Uiso   1.00
O1425  O     0.75000   0.53036   0.88219   0.00000  Uiso   1.00
O1426  O     0.75000   0.96964   0.11781   0.00000  Uiso   1.00
O1427  O     0.53035   0.75000   0.88219   0.00000  Uiso   1.00
O1428  O     0.96964   0.75000   0.11781   0.00000  Uiso   1.00
O1429  O     0.75000   0.96964   0.88219   0.00000  Uiso   1.00
O1430  O     0.75000   0.53036   0.11781   0.00000  Uiso   1.00
O1431  O     0.96964   0.75000   0.88219   0.00000  Uiso   1.00
O1432  O     0.50000   0.75000   0.75000   0.00000  Uiso   1.00
O1433  O     0.53035   0.75000   0.11781   0.00000  Uiso   1.00
O1434  O     0.54267   0.67692   0.28474   0.00000  Uiso   1.00
O1435  O     0.95732   0.82308   0.71526   0.00000  Uiso   1.00
O1436  O     0.67692   0.95732   0.28474   0.00000  Uiso   1.00
O1437  O     0.82307   0.54268   0.71526   0.00000  Uiso   1.00
O1438  O     0.95732   0.82308   0.28474   0.00000  Uiso   1.00
O1439  O     0.54267   0.67692   0.71526   0.00000  Uiso   1.00
O1440  O     0.82307   0.54268   0.28474   0.00000  Uiso   1.00
O1441  O     0.67692   0.95732   0.71526   0.00000  Uiso   1.00
O1442  O     0.54267   0.82307   0.71526   0.00000  Uiso   1.00
O1443  O     0.75000   0.50000   0.25000   0.00000  Uiso   1.00
O1444  O     0.95732   0.67693   0.28474   0.00000  Uiso   1.00
O1445  O     0.67692   0.54268   0.71526   0.00000  Uiso   1.00
O1446  O     0.82307   0.95732   0.28474   0.00000  Uiso   1.00
O1447  O     0.95732   0.67693   0.71526   0.00000  Uiso   1.00
O1448  O     0.54267   0.82307   0.28474   0.00000  Uiso   1.00
O1449  O     0.82307   0.95732   0.71526   0.00000  Uiso   1.00
O1450  O     0.67692   0.54268   0.28474   0.00000  Uiso   1.00
O1451  O     0.79267   0.92692   0.78474   0.00000  Uiso   1.00
O1452  O     0.70732   0.57308   0.21526   0.00000  Uiso   1.00
O1453  O     0.92692   0.70733   0.78474   0.00000  Uiso   1.00
O1454  O     0.75000   0.50000   0.75000   0.00000  Uiso   1.00
O1455  O     0.57307   0.79267   0.21526   0.00000  Uiso   1.00
O1456  O     0.70732   0.57308   0.78474   0.00000  Uiso   1.00
O1457  O     0.79267   0.92692   0.21526   0.00000  Uiso   1.00
O1458  O     0.57307   0.79267   0.78474   0.00000  Uiso   1.00
O1459  O     0.92692   0.70733   0.21526   0.00000  Uiso   1.00
O1460  O     0.79267   0.57308   0.21526   0.00000  Uiso   1.00
O1461  O     0.70732   0.92692   0.78474   0.00000  Uiso   1.00
O1462  O     0.92692   0.79268   0.21526   0.00000  Uiso   1.00
O1463  O     0.57307   0.70732   0.78474   0.00000  Uiso   1.00
O1464  O     0.70732   0.92692   0.21526   0.00000  Uiso   1.00
O1465  O     0.50000   0.78036   0.38219   0.00000  Uiso   1.00
O1466  O     0.79267   0.57308   0.78474   0.00000  Uiso   1.00
O1467  O     0.57307   0.70732   0.21526   0.00000  Uiso   1.00
O1468  O     0.92692   0.79268   0.78474   0.00000  Uiso   1.00
O1469  O     0.50000   0.71964   0.61781   0.00000  Uiso   1.00
O1470  O     0.78035   0.50000   0.38219   0.00000  Uiso   1.00
O1471  O     0.71964   0.50000   0.61781   0.00000  Uiso   1.00
O1472  O     0.50000   0.71965   0.38219   0.00000  Uiso   1.00
Zn1473 Zn    0.54333   0.75000   0.20067   0.00000  Uiso   1.00
Zn1474 Zn    0.70667   0.50000   0.29933   0.00000  Uiso   1.00
Zn1475 Zn    0.50000   0.70667   0.70067   0.00000  Uiso   1.00
Zn1476 Zn    0.50000   0.79333   0.29933   0.00000  Uiso   1.00
Zn1477 Zn    0.70667   0.50000   0.70067   0.00000  Uiso   1.00
Zn1478 Zn    0.79333   0.50000   0.29933   0.00000  Uiso   1.00
Zn1479 Zn    0.50000   0.79333   0.70067   0.00000  Uiso   1.00
Zn1480 Zn    0.50000   0.70667   0.29933   0.00000  Uiso   1.00
Zn1481 Zn    0.95667   0.75000   0.79933   0.00000  Uiso   1.00
Zn1482 Zn    0.75000   0.95667   0.20067   0.00000  Uiso   1.00
Zn1483 Zn    0.75000   0.54333   0.79933   0.00000  Uiso   1.00
Zn1484 Zn    0.95667   0.75000   0.20067   0.00000  Uiso   1.00
Zn1485 Zn    0.54333   0.75000   0.79933   0.00000  Uiso   1.00
Zn1486 Zn    0.75000   0.54333   0.20067   0.00000  Uiso   1.00
Zn1487 Zn    0.75000   0.95667   0.79933   0.00000  Uiso   1.00
Zn1488 Zn    0.79333   0.50000   0.70067   0.00000  Uiso   1.00
loop_
_geom_bond_atom_site_label_1
_geom_bond_atom_site_label_2
_geom_bond_distance
_geom_bond_site_symmetry_2
_ccdc_geom_bond_type
C1     C425    1.417   .     S
C1     C57     1.195   1_554 S
C2     C112    1.417   .     S
C2     O678    1.275   .     S
C2     O725    1.275   .     S
C3     H248    1.110   .     S
C3     H246    1.108   .     S
C3     H247    1.109   .     S
C3     C144    1.530   .     S
C4     C5      1.530   .     S
C4     H256    1.109   .     S
C4     C83     1.535   .     S
C4     H255    1.102   .     S
C5     H252    1.107   .     S
C5     H253    1.110   .     S
C5     H254    1.111   .     S
C6     C7      1.530   .     S
C6     H262    1.110   .     S
C6     H260    1.109   .     S
C6     C84     1.531   .     S
C7     H259    1.110   .     S
C7     H257    1.108   .     S
C7     H258    1.109   .     S
C8     H267    1.107   .     S
C8     H266    1.104   .     S
C8     C85     1.530   .     S
C8     C9      1.522   .     S
C9     H265    1.109   .     S
C9     H264    1.110   .     S
C9     H263    1.109   .     S
C10    H271    1.106   .     S
C10    H273    1.107   .     S
C10    C86     1.529   .     S
C10    C11     1.527   .     S
C11    H270    1.110   .     S
C11    H268    1.110   .     S
C11    H269    1.110   .     S
C12    H277    1.103   .     S
C12    C14     1.533   .     S
C12    H278    1.109   .     S
C12    C87     1.538   .     S
C13    C101    1.417   .     S
C13    O1051   1.278   .     S
C13    O1098   1.278   .     S
C14    H276    1.110   .     S
C14    H274    1.109   .     S
C14    H275    1.111   .     S
C15    H284    1.109   .     S
C15    H282    1.108   .     S
C15    C16     1.529   .     S
C15    C88     1.531   .     S
C16    H280    1.109   .     S
C16    H281    1.110   .     S
C16    H279    1.109   .     S
C17    C89     1.529   .     S
C17    C18     1.526   .     S
C17    H288    1.106   .     S
C17    H289    1.107   .     S
C18    H286    1.110   .     S
C18    H287    1.110   .     S
C18    H285    1.110   .     S
C19    C20     1.528   .     S
C19    H295    1.109   .     S
C19    H293    1.106   .     S
C19    C91     1.534   .     S
C20    H290    1.103   .     S
C20    H292    1.108   .     S
C20    H291    1.110   .     S
C21    H300    1.109   .     S
C21    C22     1.530   .     S
C21    C92     1.527   .     S
C21    H299    1.108   .     S
C22    H297    1.108   .     S
C22    H296    1.110   .     S
C22    H298    1.110   .     S
C23    C93     1.531   .     S
C23    H304    1.109   .     S
C23    H147    1.110   .     S
C23    C25     1.532   .     S
C24    O1099   1.278   .     A
C24    C90     1.417   .     S
C24    O1052   1.278   .     A
C25    H302    1.109   .     S
C25    H301    1.107   .     S
C25    H303    1.111   .     S
C26    H151    1.105   .     S
C26    C27     1.528   .     S
C26    H152    1.108   .     S
C26    C94     1.532   .     S
C27    H150    1.110   .     S
C27    H148    1.110   .     S
C27    H149    1.111   .     S
C28    H158    1.107   .     S
C28    H156    1.104   .     S
C28    C29     1.523   .     S
C28    C95     1.529   .     S
C29    H155    1.110   .     S
C29    H154    1.109   .     S
C29    H153    1.109   .     S
C30    C96     1.532   .     S
C30    H162    1.105   .     S
C30    C31     1.528   .     S
C30    H163    1.108   .     S
C31    H161    1.110   .     S
C31    H160    1.111   .     S
C31    H159    1.109   .     S
C32    H169    1.107   .     S
C32    C33     1.528   .     S
C32    H167    1.107   .     S
C32    C97     1.527   .     S
C33    H166    1.110   .     S
C33    H165    1.110   .     S
C33    H164    1.110   .     S
C34    H174    1.107   .     S
C34    C36     1.522   .     S
C34    H173    1.104   .     S
C34    C98     1.530   .     S
C35    O1057   1.275   1_545 A
C35    C823    1.417   1_545 S
C35    O309    1.275   .     S
C36    H170    1.109   .     S
C36    H172    1.109   .     S
C36    H171    1.110   .     S
C37    H178    1.106   .     S
C37    C38     1.527   .     S
C37    H180    1.107   .     S
C37    C99     1.529   .     S
C38    H176    1.110   .     S
C38    H177    1.110   .     S
C38    H175    1.110   .     S
C39    H184    1.103   .     S
C39    C40     1.533   .     S
C39    C100    1.538   .     S
C39    H185    1.109   .     S
C40    H181    1.109   .     S
C40    H183    1.110   .     S
C40    H182    1.111   .     S
C41    H189    1.108   .     S
C41    C102    1.531   .     S
C41    H191    1.109   .     S
C41    C42     1.529   .     S
C42    H187    1.109   .     S
C42    H188    1.110   .     S
C42    H186    1.109   .     S
C43    C44     1.528   .     S
C43    H195    1.108   .     S
C43    C103    1.530   .     S
C43    H196    1.110   .     S
C44    H192    1.109   .     S
C44    H193    1.110   .     S
C44    H194    1.110   .     S
C45    H200    1.109   .     S
C45    C47     1.530   .     S
C45    H202    1.110   .     S
C45    C104    1.530   .     S
C46    O1054   1.275   1_545 A
C46    C812    1.417   1_545 S
C46    O314    1.275   .     S
C47    H198    1.109   .     S
C47    H199    1.110   .     S
C47    H197    1.109   .     S
C48    C105    1.535   .     S
C48    C49     1.530   .     S
C48    H207    1.109   .     S
C48    H206    1.102   .     S
C49    H204    1.110   .     S
C49    H203    1.107   .     S
C49    H205    1.111   .     S
C50    H213    1.110   .     S
C50    C51     1.530   .     S
C50    C106    1.531   .     S
C50    H211    1.109   .     S
C51    H209    1.109   .     S
C51    H210    1.110   .     S
C51    H208    1.108   .     S
C52    O687    1.278   1_455 A
C52    C429    1.417   1_455 S
C52    O311    1.278   .     S
C53    C373    1.417   1_455 S
C53    O684    1.278   1_455 A
C53    O317    1.278   .     S
C54    O351    1.273   .     A
C54    C114    1.458   .     S
C54    O318    1.274   .     A
C55    O352    1.271   .     A
C55    C115    1.460   .     S
C55    O319    1.277   .     A
C56    C107    1.459   .     S
C56    O348    1.273   .     A
C56    O320    1.274   .     A
C57    C424    1.417   .     S
C57    C1      1.195   1_556 S
C58    O350    1.276   .     A
C58    C108    1.458   .     S
C58    O321    1.271   .     A
C59    C109    1.455   .     S
C59    O322    1.272   .     A
C59    O346    1.273   .     A
C60    O347    1.274   .     A
C60    C110    1.456   .     S
C60    O323    1.273   .     A
C61    O324    1.270   .     A
C61    C111    1.460   .     S
C61    O344    1.279   .     A
C62    O345    1.271   .     A
C62    O325    1.276   .     A
C62    C113    1.458   .     S
C63    O342    1.274   .     A
C63    C122    1.459   .     S
C63    O326    1.274   .     A
C64    C124    1.458   .     S
C64    O328    1.276   .     A
C64    O343    1.271   .     A
C65    O329    1.273   .     A
C65    C116    1.458   .     S
C65    O340    1.274   .     A
C66    C117    1.460   .     S
C66    O341    1.277   .     A
C66    O330    1.271   .     A
C67    C118    1.460   .     S
C67    O337    1.270   .     A
C67    O331    1.279   .     A
C68    C790    1.417   .     S
C68    C79     1.195   1_554 S
C69    C119    1.458   .     S
C69    O339    1.276   .     A
C69    O332    1.271   .     A
C70    C120    1.455   .     S
C70    O335    1.272   .     A
C70    O333    1.273   .     A
C71    C121    1.456   .     S
C71    O336    1.273   .     A
C71    O334    1.274   .     A
C72    C125    1.532   .     S
C72    C84     1.414   .     A
C72    C119    1.417   .     A
C73    C83     1.414   .     A
C73    C118    1.421   .     A
C73    C127    1.529   .     S
C74    C129    1.532   .     S
C74    C82     1.415   .     A
C74    C117    1.418   .     A
C75    C116    1.416   .     A
C75    C131    1.527   .     S
C75    C81     1.415   .     A
C76    C124    1.417   .     A
C76    C133    1.529   .     S
C76    C88     1.414   .     A
C77    C122    1.421   .     A
C77    C87     1.418   .     A
C77    C136    1.534   .     S
C78    C121    1.416   .     A
C78    C86     1.413   .     A
C78    C138    1.527   .     S
C79    C779    1.417   .     S
C79    C68     1.195   1_556 S
C80    C85     1.413   .     A
C80    C140    1.531   .     S
C80    C120    1.416   .     A
C81    C110    1.416   .     A
C81    C142    1.530   .     S
C82    C109    1.417   .     A
C82    C144    1.530   .     S
C83    C108    1.415   .     A
C84    C107    1.418   .     A
C85    C115    1.419   .     A
C86    C114    1.414   .     A
C87    C113    1.418   .     A
C88    C111    1.417   .     A
C89    C108    1.417   .     A
C89    C102    1.414   .     A
C90    C101    1.195   .     T
C91    C100    1.418   .     A
C91    C107    1.421   .     A
C92    C110    1.416   .     A
C92    C99     1.413   .     A
C93    C109    1.416   .     A
C93    C98     1.413   .     A
C94    C113    1.417   .     A
C94    C106    1.414   .     A
C95    C105    1.414   .     A
C95    C111    1.421   .     A
C96    C104    1.415   .     A
C96    C115    1.418   .     A
C97    C103    1.415   .     A
C97    C114    1.416   .     A
C98    C117    1.419   .     A
C99    C116    1.414   .     A
C100   C119    1.418   .     A
C102   C118    1.417   .     A
C103   C121    1.416   .     A
C104   C120    1.417   .     A
C105   C124    1.415   .     A
C106   C122    1.418   .     A
C112   C123    1.195   .     T
C123   C506    1.417   .     S
C125   C126    1.528   .     S
C125   H239    1.105   .     S
C125   H250    1.108   .     S
C126   H145    1.110   .     S
C126   H217    1.111   .     S
C126   H228    1.110   .     S
C127   C128    1.523   .     S
C127   H146    1.107   .     S
C127   H294    1.104   .     S
C128   H261    1.109   .     S
C128   H272    1.109   .     S
C128   H283    1.110   .     S
C129   H201    1.108   .     S
C129   C130    1.528   .     S
C129   H190    1.105   .     S
C130   H157    1.109   .     S
C130   H168    1.111   .     S
C130   H179    1.110   .     S
C131   H218    1.107   .     S
C131   H216    1.107   .     S
C131   C132    1.528   .     S
C132   H215    1.110   .     S
C132   H212    1.110   .     S
C132   H214    1.110   .     S
C133   H222    1.106   .     S
C133   C135    1.526   .     S
C133   H223    1.107   .     S
C134   C495    1.417   1_455 S
C134   O349    1.275   .     S
C134   O356    1.275   .     S
C135   H221    1.110   .     S
C135   H220    1.110   .     S
C135   H219    1.110   .     S
C136   H229    1.109   .     S
C136   C137    1.528   .     S
C136   H227    1.106   .     S
C137   H224    1.103   .     S
C137   H225    1.110   .     S
C137   H226    1.108   .     S
C138   H233    1.108   .     S
C138   C139    1.530   .     S
C138   H234    1.109   .     S
C139   H231    1.108   .     S
C139   H232    1.110   .     S
C139   H230    1.110   .     S
C140   H240    1.110   .     S
C140   C141    1.532   .     S
C140   H238    1.109   .     S
C141   H235    1.107   .     S
C141   H237    1.110   .     S
C141   H236    1.109   .     S
C142   H244    1.108   .     S
C142   H245    1.110   .     S
C142   C143    1.528   .     S
C143   H242    1.110   .     S
C143   H243    1.110   .     S
C143   H241    1.109   .     S
C144   H249    1.109   .     S
C144   H251    1.110   .     S
O305   Zn360   1.934   .     S
O305   Zn357   1.938   .     S
O305   Zn364   1.933   .     S
O305   Zn740   1.938   1_455 S
O306   Zn363   1.916   .     S
O306   C374    1.275   1_455 S
O307   C757    1.278   1_545 S
O307   Zn358   1.917   .     S
O308   Zn372   1.917   .     S
O308   C768    1.278   1_545 A
O309   Zn367   1.916   .     S
O310   C790    1.275   .     A
O310   Zn366   1.916   .     S
O311   Zn369   1.917   .     S
O312   Zn368   1.917   .     S
O312   C425    1.278   .     A
O313   C779    1.275   .     A
O313   Zn371   1.916   .     S
O314   Zn370   1.916   .     S
O315   C424    1.278   .     A
O315   Zn365   1.917   .     S
O316   Zn369   1.938   .     S
O316   Zn359   1.934   .     S
O316   Zn363   1.934   .     S
O316   Zn737   1.938   1_455 S
O317   Zn357   1.917   .     S
O318   Zn364   1.936   .     S
O319   Zn735   1.936   .     S
O320   Zn1102  1.935   .     S
O321   Zn372   1.935   .     S
O322   Zn732   1.936   .     S
O323   Zn359   1.936   .     S
O324   Zn362   1.935   .     S
O325   Zn1105  1.935   .     S
O326   Zn363   1.937   .     S
O327   Zn358   1.938   .     S
O327   Zn1110  1.934   1_545 S
O327   Zn362   1.938   .     S
O327   Zn370   1.934   .     S
O328   Zn736   1.937   .     S
O329   Zn361   1.934   .     S
O330   Zn1106  1.934   .     S
O331   Zn731   1.937   .     S
O332   Zn360   1.937   .     S
O333   Zn1116  1.934   .     S
O334   Zn358   1.934   .     S
O335   Zn371   1.936   .     S
O336   Zn370   1.936   .     S
O337   Zn365   1.935   .     S
O338   Zn1115  1.934   1_545 S
O338   Zn361   1.938   .     S
O338   Zn372   1.938   .     S
O338   Zn367   1.934   .     S
O339   Zn357   1.935   .     S
O340   Zn367   1.936   .     S
O341   Zn366   1.936   .     S
O342   Zn369   1.935   .     S
O343   Zn368   1.935   .     S
O344   Zn370   1.937   .     S
O345   Zn371   1.937   .     S
O346   Zn368   1.934   .     S
O347   Zn369   1.934   .     S
O348   Zn366   1.937   .     S
O349   Zn360   1.916   .     S
O350   Zn367   1.937   .     S
O351   Zn357   1.934   .     S
O352   Zn365   1.934   .     S
O353   Zn359   1.916   .     S
O353   C374    1.275   1_455 S
O354   C757    1.278   1_545 S
O354   Zn362   1.917   .     S
O355   Zn361   1.917   .     S
O355   C768    1.278   1_545 A
O356   Zn364   1.916   .     S
Zn358  O1064   1.935   1_545 S
Zn359  O703    1.937   1_455 S
Zn360  O694    1.936   1_455 S
Zn361  O1069   1.935   1_545 S
Zn362  O1074   1.934   1_545 S
Zn363  O691    1.936   1_455 S
Zn364  O700    1.937   1_455 S
Zn365  O688    1.938   .     S
Zn366  O1071   1.934   .     S
Zn368  O677    1.938   .     S
Zn371  O1082   1.934   .     S
Zn372  O1077   1.934   1_545 S
C373   C53     1.417   1_655 S
C373   C429    1.195   1_554 S
C374   C484    1.417   .     S
C374   O306    1.275   1_655 S
C374   O353    1.275   1_655 S
C375   H620    1.110   .     S
C375   H618    1.108   .     S
C375   H619    1.109   .     S
C375   C516    1.530   .     S
C376   C377    1.530   .     S
C376   H628    1.109   .     S
C376   C455    1.535   .     S
C376   H627    1.102   .     S
C377   H624    1.107   .     S
C377   H625    1.110   .     S
C377   H626    1.111   .     S
C378   C379    1.530   .     S
C378   H634    1.110   .     S
C378   H632    1.109   .     S
C378   C456    1.531   .     S
C379   H631    1.110   .     S
C379   H629    1.108   .     S
C379   H630    1.109   .     S
C380   H639    1.107   .     S
C380   H638    1.104   .     S
C380   C457    1.530   .     S
C380   C381    1.522   .     S
C381   H637    1.109   .     S
C381   H636    1.110   .     S
C381   H635    1.109   .     S
C382   H643    1.106   .     S
C382   H645    1.107   .     S
C382   C458    1.529   .     S
C382   C383    1.527   .     S
C383   H642    1.110   .     S
C383   H640    1.110   .     S
C383   H641    1.110   .     S
C384   H649    1.103   .     S
C384   C386    1.533   .     S
C384   H650    1.109   .     S
C384   C459    1.538   .     S
C385   C473    1.417   .     S
C385   O1423   1.278   .     S
C385   O1470   1.278   .     S
C386   H648    1.110   .     S
C386   H646    1.109   .     S
C386   H647    1.111   .     S
C387   H656    1.109   .     S
C387   H654    1.108   .     S
C387   C388    1.529   .     S
C387   C460    1.531   .     S
C388   H652    1.109   .     S
C388   H653    1.110   .     S
C388   H651    1.109   .     S
C389   C461    1.529   .     S
C389   C390    1.526   .     S
C389   H660    1.106   .     S
C389   H661    1.107   .     S
C390   H658    1.110   .     S
C390   H659    1.110   .     S
C390   H657    1.110   .     S
C391   C392    1.528   .     S
C391   H667    1.109   .     S
C391   H665    1.106   .     S
C391   C463    1.534   .     S
C392   H662    1.103   .     S
C392   H664    1.108   .     S
C392   H663    1.110   .     S
C393   H672    1.109   .     S
C393   C394    1.530   .     S
C393   C464    1.527   .     S
C393   H671    1.108   .     S
C394   H669    1.108   .     S
C394   H668    1.110   .     S
C394   H670    1.110   .     S
C395   C465    1.531   .     S
C395   H676    1.109   .     S
C395   H519    1.110   .     S
C395   C397    1.532   .     S
C396   O1471   1.278   .     A
C396   C462    1.417   .     S
C396   O1424   1.278   .     A
C397   H674    1.109   .     S
C397   H673    1.107   .     S
C397   H675    1.111   .     S
C398   H523    1.105   .     S
C398   C399    1.528   .     S
C398   H524    1.108   .     S
C398   C466    1.532   .     S
C399   H522    1.110   .     S
C399   H520    1.110   .     S
C399   H521    1.111   .     S
C400   H530    1.107   .     S
C400   H528    1.104   .     S
C400   C401    1.523   .     S
C400   C467    1.529   .     S
C401   H527    1.110   .     S
C401   H526    1.109   .     S
C401   H525    1.109   .     S
C402   C468    1.532   .     S
C402   H534    1.105   .     S
C402   C403    1.528   .     S
C402   H535    1.108   .     S
C403   H533    1.110   .     S
C403   H532    1.111   .     S
C403   H531    1.109   .     S
C404   H541    1.107   .     S
C404   C405    1.528   .     S
C404   H539    1.107   .     S
C404   C469    1.527   .     S
C405   H538    1.110   .     S
C405   H537    1.110   .     S
C405   H536    1.110   .     S
C406   H546    1.107   .     S
C406   C408    1.522   .     S
C406   H545    1.104   .     S
C406   C470    1.530   .     S
C407   O1429   1.275   1_545 A
C407   C1195   1.417   1_545 S
C407   O681    1.275   .     S
C408   H542    1.109   .     S
C408   H544    1.109   .     S
C408   H543    1.110   .     S
C409   H550    1.106   .     S
C409   C410    1.527   .     S
C409   H552    1.107   .     S
C409   C471    1.529   .     S
C410   H548    1.110   .     S
C410   H549    1.110   .     S
C410   H547    1.110   .     S
C411   H556    1.103   .     S
C411   C412    1.533   .     S
C411   C472    1.538   .     S
C411   H557    1.109   .     S
C412   H553    1.109   .     S
C412   H555    1.110   .     S
C412   H554    1.111   .     S
C413   H561    1.108   .     S
C413   C474    1.531   .     S
C413   H563    1.109   .     S
C413   C414    1.529   .     S
C414   H559    1.109   .     S
C414   H560    1.110   .     S
C414   H558    1.109   .     S
C415   C416    1.528   .     S
C415   H567    1.108   .     S
C415   C475    1.530   .     S
C415   H568    1.110   .     S
C416   H564    1.109   .     S
C416   H565    1.110   .     S
C416   H566    1.110   .     S
C417   H572    1.109   .     S
C417   C419    1.530   .     S
C417   H574    1.110   .     S
C417   C476    1.530   .     S
C418   O1426   1.275   1_545 A
C418   C1184   1.417   1_545 S
C418   O686    1.275   .     S
C419   H570    1.109   .     S
C419   H571    1.110   .     S
C419   H569    1.109   .     S
C420   C477    1.535   .     S
C420   C421    1.530   .     S
C420   H579    1.109   .     S
C420   H578    1.102   .     S
C421   H576    1.110   .     S
C421   H575    1.107   .     S
C421   H577    1.111   .     S
C422   H585    1.110   .     S
C422   C423    1.530   .     S
C422   C478    1.531   .     S
C422   H583    1.109   .     S
C423   H581    1.109   .     S
C423   H582    1.110   .     S
C423   H580    1.108   .     S
C424   O683    1.278   .     S
C425   O689    1.278   .     S
C426   O723    1.273   .     A
C426   C486    1.458   .     S
C426   O690    1.274   .     A
C427   O724    1.271   .     A
C427   C487    1.460   .     S
C427   O691    1.277   .     A
C428   C479    1.459   .     S
C428   O720    1.273   .     A
C428   O692    1.274   .     A
C429   C52     1.417   1_655 S
C429   C373    1.195   1_556 S
C430   O722    1.276   .     A
C430   C480    1.458   .     S
C430   O693    1.271   .     A
C431   C481    1.455   .     S
C431   O694    1.272   .     A
C431   O718    1.273   .     A
C432   O719    1.274   .     A
C432   C482    1.456   .     S
C432   O695    1.273   .     A
C433   O696    1.270   .     A
C433   C483    1.460   .     S
C433   O716    1.279   .     A
C434   O717    1.271   .     A
C434   O697    1.276   .     A
C434   C485    1.458   .     S
C435   O714    1.274   .     A
C435   C494    1.459   .     S
C435   O698    1.274   .     A
C436   C496    1.458   .     S
C436   O700    1.276   .     A
C436   O715    1.271   .     A
C437   O701    1.273   .     A
C437   C488    1.458   .     S
C437   O712    1.274   .     A
C438   C489    1.460   .     S
C438   O713    1.277   .     A
C438   O702    1.271   .     A
C439   C490    1.460   .     S
C439   O709    1.270   .     A
C439   O703    1.279   .     A
C440   C1162   1.417   .     S
C440   C451    1.195   1_554 S
C441   C491    1.458   .     S
C441   O711    1.276   .     A
C441   O704    1.271   .     A
C442   C492    1.455   .     S
C442   O707    1.272   .     A
C442   O705    1.273   .     A
C443   C493    1.456   .     S
C443   O708    1.273   .     A
C443   O706    1.274   .     A
C444   C497    1.532   .     S
C444   C456    1.414   .     A
C444   C491    1.417   .     A
C445   C455    1.414   .     A
C445   C490    1.421   .     A
C445   C499    1.529   .     S
C446   C501    1.532   .     S
C446   C454    1.415   .     A
C446   C489    1.418   .     A
C447   C488    1.416   .     A
C447   C503    1.527   .     S
C447   C453    1.415   .     A
C448   C496    1.417   .     A
C448   C505    1.529   .     S
C448   C460    1.414   .     A
C449   C494    1.421   .     A
C449   C459    1.418   .     A
C449   C508    1.534   .     S
C450   C493    1.416   .     A
C450   C458    1.413   .     A
C450   C510    1.527   .     S
C451   C1151   1.417   .     S
C451   C440    1.195   1_556 S
C452   C457    1.413   .     A
C452   C512    1.531   .     S
C452   C492    1.416   .     A
C453   C482    1.416   .     A
C453   C514    1.530   .     S
C454   C481    1.417   .     A
C454   C516    1.530   .     S
C455   C480    1.415   .     A
C456   C479    1.418   .     A
C457   C487    1.419   .     A
C458   C486    1.414   .     A
C459   C485    1.418   .     A
C460   C483    1.417   .     A
C461   C480    1.417   .     A
C461   C474    1.414   .     A
C462   C473    1.195   .     T
C463   C472    1.418   .     A
C463   C479    1.421   .     A
C464   C482    1.416   .     A
C464   C471    1.413   .     A
C465   C481    1.416   .     A
C465   C470    1.413   .     A
C466   C485    1.417   .     A
C466   C478    1.414   .     A
C467   C477    1.414   .     A
C467   C483    1.421   .     A
C468   C476    1.415   .     A
C468   C487    1.418   .     A
C469   C475    1.415   .     A
C469   C486    1.416   .     A
C470   C489    1.419   .     A
C471   C488    1.414   .     A
C472   C491    1.418   .     A
C474   C490    1.417   .     A
C475   C493    1.416   .     A
C476   C492    1.417   .     A
C477   C496    1.415   .     A
C478   C494    1.418   .     A
C484   C495    1.195   .     T
C495   C134    1.417   1_655 S
C497   C498    1.528   .     S
C497   H611    1.105   .     S
C497   H622    1.108   .     S
C498   H517    1.110   .     S
C498   H589    1.111   .     S
C498   H600    1.110   .     S
C499   C500    1.523   .     S
C499   H518    1.107   .     S
C499   H666    1.104   .     S
C500   H633    1.109   .     S
C500   H644    1.109   .     S
C500   H655    1.110   .     S
C501   H573    1.108   .     S
C501   C502    1.528   .     S
C501   H562    1.105   .     S
C502   H529    1.109   .     S
C502   H540    1.111   .     S
C502   H551    1.110   .     S
C503   H590    1.107   .     S
C503   H588    1.107   .     S
C503   C504    1.528   .     S
C504   H587    1.110   .     S
C504   H584    1.110   .     S
C504   H586    1.110   .     S
C505   H594    1.106   .     S
C505   C507    1.526   .     S
C505   H595    1.107   .     S
C506   O721    1.275   .     S
C506   O728    1.275   .     S
C507   H593    1.110   .     S
C507   H592    1.110   .     S
C507   H591    1.110   .     S
C508   H601    1.109   .     S
C508   C509    1.528   .     S
C508   H599    1.106   .     S
C509   H596    1.103   .     S
C509   H597    1.110   .     S
C509   H598    1.108   .     S
C510   H605    1.108   .     S
C510   C511    1.530   .     S
C510   H606    1.109   .     S
C511   H603    1.108   .     S
C511   H604    1.110   .     S
C511   H602    1.110   .     S
C512   H612    1.110   .     S
C512   C513    1.532   .     S
C512   H610    1.109   .     S
C513   H607    1.107   .     S
C513   H609    1.110   .     S
C513   H608    1.109   .     S
C514   H616    1.108   .     S
C514   H617    1.110   .     S
C514   C515    1.528   .     S
C515   H614    1.110   .     S
C515   H615    1.110   .     S
C515   H613    1.109   .     S
C516   H621    1.109   .     S
C516   H623    1.110   .     S
O677   Zn732   1.934   .     S
O677   Zn729   1.938   .     S
O677   Zn736   1.933   .     S
O678   Zn735   1.916   .     S
O679   C1129   1.278   1_545 S
O679   Zn730   1.917   .     S
O680   Zn744   1.917   .     S
O680   C1140   1.278   1_545 A
O681   Zn739   1.916   .     S
O682   C1162   1.275   .     A
O682   Zn738   1.916   .     S
O683   Zn741   1.917   .     S
O684   Zn740   1.917   .     S
O684   C53     1.278   1_655 A
O685   C1151   1.275   .     A
O685   Zn743   1.916   .     S
O686   Zn742   1.916   .     S
O687   C52     1.278   1_655 A
O687   Zn737   1.917   .     S
O688   Zn741   1.938   .     S
O688   Zn731   1.934   .     S
O688   Zn735   1.934   .     S
O689   Zn729   1.917   .     S
O690   Zn736   1.936   .     S
O691   Zn363   1.936   1_655 S
O692   Zn1474  1.935   .     S
O693   Zn744   1.935   .     S
O694   Zn360   1.936   1_655 S
O695   Zn731   1.936   .     S
O696   Zn734   1.935   .     S
O697   Zn1477  1.935   .     S
O698   Zn735   1.937   .     S
O699   Zn730   1.938   .     S
O699   Zn1482  1.934   1_545 S
O699   Zn734   1.938   .     S
O699   Zn742   1.934   .     S
O700   Zn364   1.937   1_655 S
O701   Zn733   1.934   .     S
O702   Zn1478  1.934   .     S
O703   Zn359   1.937   1_655 S
O704   Zn732   1.937   .     S
O705   Zn1488  1.934   .     S
O706   Zn730   1.934   .     S
O707   Zn743   1.936   .     S
O708   Zn742   1.936   .     S
O709   Zn737   1.935   .     S
O710   Zn1487  1.934   1_545 S
O710   Zn733   1.938   .     S
O710   Zn744   1.938   .     S
O710   Zn739   1.934   .     S
O711   Zn729   1.935   .     S
O712   Zn739   1.936   .     S
O713   Zn738   1.936   .     S
O714   Zn741   1.935   .     S
O715   Zn740   1.935   .     S
O716   Zn742   1.937   .     S
O717   Zn743   1.937   .     S
O718   Zn740   1.934   .     S
O719   Zn741   1.934   .     S
O720   Zn738   1.937   .     S
O721   Zn732   1.916   .     S
O722   Zn739   1.937   .     S
O723   Zn729   1.934   .     S
O724   Zn737   1.934   .     S
O725   Zn731   1.916   .     S
O726   C1129   1.278   1_545 S
O726   Zn734   1.917   .     S
O727   Zn733   1.917   .     S
O727   C1140   1.278   1_545 A
O728   Zn736   1.916   .     S
Zn730  O1436   1.935   1_545 S
Zn733  O1441   1.935   1_545 S
Zn734  O1446   1.934   1_545 S
Zn737  O316    1.938   1_655 S
Zn738  O1443   1.934   .     S
Zn740  O305    1.938   1_655 S
Zn743  O1454   1.934   .     S
Zn744  O1449   1.934   1_545 S
C745   C1169   1.417   .     S
C745   C801    1.195   1_554 S
C746   C856    1.417   .     S
C746   O1422   1.275   .     S
C746   O1469   1.275   .     S
C747   H992    1.110   .     S
C747   H990    1.108   .     S
C747   H991    1.109   .     S
C747   C888    1.530   .     S
C748   C749    1.530   .     S
C748   H1000   1.109   .     S
C748   C827    1.535   .     S
C748   H999    1.102   .     S
C749   H996    1.107   .     S
C749   H997    1.110   .     S
C749   H998    1.111   .     S
C750   C751    1.530   .     S
C750   H1006   1.110   .     S
C750   H1004   1.109   .     S
C750   C828    1.531   .     S
C751   H1003   1.110   .     S
C751   H1001   1.108   .     S
C751   H1002   1.109   .     S
C752   H1011   1.107   .     S
C752   H1010   1.104   .     S
C752   C829    1.530   .     S
C752   C753    1.522   .     S
C753   H1009   1.109   .     S
C753   H1008   1.110   .     S
C753   H1007   1.109   .     S
C754   H1015   1.106   .     S
C754   H1017   1.107   .     S
C754   C830    1.529   .     S
C754   C755    1.527   .     S
C755   H1014   1.110   .     S
C755   H1012   1.110   .     S
C755   H1013   1.110   .     S
C756   H1021   1.103   .     S
C756   C758    1.533   .     S
C756   H1022   1.109   .     S
C756   C831    1.538   .     S
C757   C845    1.417   .     S
C757   O307    1.278   1_565 S
C757   O354    1.278   1_565 S
C758   H1020   1.110   .     S
C758   H1018   1.109   .     S
C758   H1019   1.111   .     S
C759   H1028   1.109   .     S
C759   H1026   1.108   .     S
C759   C760    1.529   .     S
C759   C832    1.531   .     S
C760   H1024   1.109   .     S
C760   H1025   1.110   .     S
C760   H1023   1.109   .     S
C761   C833    1.529   .     S
C761   C762    1.526   .     S
C761   H1032   1.106   .     S
C761   H1033   1.107   .     S
C762   H1030   1.110   .     S
C762   H1031   1.110   .     S
C762   H1029   1.110   .     S
C763   C764    1.528   .     S
C763   H1039   1.109   .     S
C763   H1037   1.106   .     S
C763   C835    1.534   .     S
C764   H1034   1.103   .     S
C764   H1036   1.108   .     S
C764   H1035   1.110   .     S
C765   H1044   1.109   .     S
C765   C766    1.530   .     S
C765   C836    1.527   .     S
C765   H1043   1.108   .     S
C766   H1041   1.108   .     S
C766   H1040   1.110   .     S
C766   H1042   1.110   .     S
C767   C837    1.531   .     S
C767   H1048   1.109   .     S
C767   H891    1.110   .     S
C767   C769    1.532   .     S
C768   O355    1.278   1_565 A
C768   C834    1.417   .     S
C768   O308    1.278   1_565 A
C769   H1046   1.109   .     S
C769   H1045   1.107   .     S
C769   H1047   1.111   .     S
C770   H895    1.105   .     S
C770   C771    1.528   .     S
C770   H896    1.108   .     S
C770   C838    1.532   .     S
C771   H894    1.110   .     S
C771   H892    1.110   .     S
C771   H893    1.111   .     S
C772   H902    1.107   .     S
C772   H900    1.104   .     S
C772   C773    1.523   .     S
C772   C839    1.529   .     S
C773   H899    1.110   .     S
C773   H898    1.109   .     S
C773   H897    1.109   .     S
C774   C840    1.532   .     S
C774   H906    1.105   .     S
C774   C775    1.528   .     S
C774   H907    1.108   .     S
C775   H905    1.110   .     S
C775   H904    1.111   .     S
C775   H903    1.109   .     S
C776   H913    1.107   .     S
C776   C777    1.528   .     S
C776   H911    1.107   .     S
C776   C841    1.527   .     S
C777   H910    1.110   .     S
C777   H909    1.110   .     S
C777   H908    1.110   .     S
C778   H918    1.107   .     S
C778   C780    1.522   .     S
C778   H917    1.104   .     S
C778   C842    1.530   .     S
C779   O1053   1.275   .     S
C780   H914    1.109   .     S
C780   H916    1.109   .     S
C780   H915    1.110   .     S
C781   H922    1.106   .     S
C781   C782    1.527   .     S
C781   H924    1.107   .     S
C781   C843    1.529   .     S
C782   H920    1.110   .     S
C782   H921    1.110   .     S
C782   H919    1.110   .     S
C783   H928    1.103   .     S
C783   C784    1.533   .     S
C783   C844    1.538   .     S
C783   H929    1.109   .     S
C784   H925    1.109   .     S
C784   H927    1.110   .     S
C784   H926    1.111   .     S
C785   H933    1.108   .     S
C785   C846    1.531   .     S
C785   H935    1.109   .     S
C785   C786    1.529   .     S
C786   H931    1.109   .     S
C786   H932    1.110   .     S
C786   H930    1.109   .     S
C787   C788    1.528   .     S
C787   H939    1.108   .     S
C787   C847    1.530   .     S
C787   H940    1.110   .     S
C788   H936    1.109   .     S
C788   H937    1.110   .     S
C788   H938    1.110   .     S
C789   H944    1.109   .     S
C789   C791    1.530   .     S
C789   H946    1.110   .     S
C789   C848    1.530   .     S
C790   O1058   1.275   .     S
C791   H942    1.109   .     S
C791   H943    1.110   .     S
C791   H941    1.109   .     S
C792   C849    1.535   .     S
C792   C793    1.530   .     S
C792   H951    1.109   .     S
C792   H950    1.102   .     S
C793   H948    1.110   .     S
C793   H947    1.107   .     S
C793   H949    1.111   .     S
C794   H957    1.110   .     S
C794   C795    1.530   .     S
C794   C850    1.531   .     S
C794   H955    1.109   .     S
C795   H953    1.109   .     S
C795   H954    1.110   .     S
C795   H952    1.108   .     S
C796   O1431   1.278   1_455 A
C796   C1173   1.417   1_455 S
C796   O1055   1.278   .     S
C797   C1117   1.417   1_455 S
C797   O1428   1.278   1_455 A
C797   O1061   1.278   .     S
C798   O1095   1.273   .     A
C798   C858    1.458   .     S
C798   O1062   1.274   .     A
C799   O1096   1.271   .     A
C799   C859    1.460   .     S
C799   O1063   1.277   .     A
C800   C851    1.459   .     S
C800   O1092   1.273   .     A
C800   O1064   1.274   .     A
C801   C1168   1.417   .     S
C801   C745    1.195   1_556 S
C802   O1094   1.276   .     A
C802   C852    1.458   .     S
C802   O1065   1.271   .     A
C803   C853    1.455   .     S
C803   O1066   1.272   .     A
C803   O1090   1.273   .     A
C804   O1091   1.274   .     A
C804   C854    1.456   .     S
C804   O1067   1.273   .     A
C805   O1068   1.270   .     A
C805   C855    1.460   .     S
C805   O1088   1.279   .     A
C806   O1089   1.271   .     A
C806   O1069   1.276   .     A
C806   C857    1.458   .     S
C807   O1086   1.274   .     A
C807   C866    1.459   .     S
C807   O1070   1.274   .     A
C808   C868    1.458   .     S
C808   O1072   1.276   .     A
C808   O1087   1.271   .     A
C809   O1073   1.273   .     A
C809   C860    1.458   .     S
C809   O1084   1.274   .     A
C810   C861    1.460   .     S
C810   O1085   1.277   .     A
C810   O1074   1.271   .     A
C811   C862    1.460   .     S
C811   O1081   1.270   .     A
C811   O1075   1.279   .     A
C812   C46     1.417   1_565 S
C812   C823    1.195   1_554 S
C813   C863    1.458   .     S
C813   O1083   1.276   .     A
C813   O1076   1.271   .     A
C814   C864    1.455   .     S
C814   O1079   1.272   .     A
C814   O1077   1.273   .     A
C815   C865    1.456   .     S
C815   O1080   1.273   .     A
C815   O1078   1.274   .     A
C816   C869    1.532   .     S
C816   C828    1.414   .     A
C816   C863    1.417   .     A
C817   C827    1.414   .     A
C817   C862    1.421   .     A
C817   C871    1.529   .     S
C818   C873    1.532   .     S
C818   C826    1.415   .     A
C818   C861    1.418   .     A
C819   C860    1.416   .     A
C819   C875    1.527   .     S
C819   C825    1.415   .     A
C820   C868    1.417   .     A
C820   C877    1.529   .     S
C820   C832    1.414   .     A
C821   C866    1.421   .     A
C821   C831    1.418   .     A
C821   C880    1.534   .     S
C822   C865    1.416   .     A
C822   C830    1.413   .     A
C822   C882    1.527   .     S
C823   C35     1.417   1_565 S
C823   C812    1.195   1_556 S
C824   C829    1.413   .     A
C824   C884    1.531   .     S
C824   C864    1.416   .     A
C825   C854    1.416   .     A
C825   C886    1.530   .     S
C826   C853    1.417   .     A
C826   C888    1.530   .     S
C827   C852    1.415   .     A
C828   C851    1.418   .     A
C829   C859    1.419   .     A
C830   C858    1.414   .     A
C831   C857    1.418   .     A
C832   C855    1.417   .     A
C833   C852    1.417   .     A
C833   C846    1.414   .     A
C834   C845    1.195   .     T
C835   C844    1.418   .     A
C835   C851    1.421   .     A
C836   C854    1.416   .     A
C836   C843    1.413   .     A
C837   C853    1.416   .     A
C837   C842    1.413   .     A
C838   C857    1.417   .     A
C838   C850    1.414   .     A
C839   C849    1.414   .     A
C839   C855    1.421   .     A
C840   C848    1.415   .     A
C840   C859    1.418   .     A
C841   C847    1.415   .     A
C841   C858    1.416   .     A
C842   C861    1.419   .     A
C843   C860    1.414   .     A
C844   C863    1.418   .     A
C846   C862    1.417   .     A
C847   C865    1.416   .     A
C848   C864    1.417   .     A
C849   C868    1.415   .     A
C850   C866    1.418   .     A
C856   C867    1.195   .     T
C867   C1250   1.417   .     S
C869   C870    1.528   .     S
C869   H983    1.105   .     S
C869   H994    1.108   .     S
C870   H889    1.110   .     S
C870   H961    1.111   .     S
C870   H972    1.110   .     S
C871   C872    1.523   .     S
C871   H890    1.107   .     S
C871   H1038   1.104   .     S
C872   H1005   1.109   .     S
C872   H1016   1.109   .     S
C872   H1027   1.110   .     S
C873   H945    1.108   .     S
C873   C874    1.528   .     S
C873   H934    1.105   .     S
C874   H901    1.109   .     S
C874   H912    1.111   .     S
C874   H923    1.110   .     S
C875   H962    1.107   .     S
C875   H960    1.107   .     S
C875   C876    1.528   .     S
C876   H959    1.110   .     S
C876   H956    1.110   .     S
C876   H958    1.110   .     S
C877   H966    1.106   .     S
C877   C879    1.526   .     S
C877   H967    1.107   .     S
C878   C1239   1.417   1_455 S
C878   O1093   1.275   .     S
C878   O1100   1.275   .     S
C879   H965    1.110   .     S
C879   H964    1.110   .     S
C879   H963    1.110   .     S
C880   H973    1.109   .     S
C880   C881    1.528   .     S
C880   H971    1.106   .     S
C881   H968    1.103   .     S
C881   H969    1.110   .     S
C881   H970    1.108   .     S
C882   H977    1.108   .     S
C882   C883    1.530   .     S
C882   H978    1.109   .     S
C883   H975    1.108   .     S
C883   H976    1.110   .     S
C883   H974    1.110   .     S
C884   H984    1.110   .     S
C884   C885    1.532   .     S
C884   H982    1.109   .     S
C885   H979    1.107   .     S
C885   H981    1.110   .     S
C885   H980    1.109   .     S
C886   H988    1.108   .     S
C886   H989    1.110   .     S
C886   C887    1.528   .     S
C887   H986    1.110   .     S
C887   H987    1.110   .     S
C887   H985    1.109   .     S
C888   H993    1.109   .     S
C888   H995    1.110   .     S
O1049  Zn1104  1.934   .     S
O1049  Zn1101  1.938   .     S
O1049  Zn1108  1.933   .     S
O1049  Zn1484  1.938   1_455 S
O1050  Zn1107  1.916   .     S
O1050  C1118   1.275   1_455 S
O1051  Zn1102  1.917   .     S
O1052  Zn1116  1.917   .     S
O1053  Zn1111  1.916   .     S
O1054  C46     1.275   1_565 A
O1054  Zn1110  1.916   .     S
O1055  Zn1113  1.917   .     S
O1056  Zn1112  1.917   .     S
O1056  C1169   1.278   .     A
O1057  C35     1.275   1_565 A
O1057  Zn1115  1.916   .     S
O1058  Zn1114  1.916   .     S
O1059  C1168   1.278   .     A
O1059  Zn1109  1.917   .     S
O1060  Zn1113  1.938   .     S
O1060  Zn1103  1.934   .     S
O1060  Zn1107  1.934   .     S
O1060  Zn1481  1.938   1_455 S
O1061  Zn1101  1.917   .     S
O1062  Zn1108  1.936   .     S
O1063  Zn1479  1.936   .     S
O1064  Zn358   1.935   1_565 S
O1065  Zn1116  1.935   .     S
O1066  Zn1476  1.936   .     S
O1067  Zn1103  1.936   .     S
O1068  Zn1106  1.935   .     S
O1069  Zn361   1.935   1_565 S
O1070  Zn1107  1.937   .     S
O1071  Zn1102  1.938   .     S
O1071  Zn1106  1.938   .     S
O1071  Zn1114  1.934   .     S
O1072  Zn1480  1.937   .     S
O1073  Zn1105  1.934   .     S
O1074  Zn362   1.934   1_565 S
O1075  Zn1475  1.937   .     S
O1076  Zn1104  1.937   .     S
O1077  Zn372   1.934   1_565 S
O1078  Zn1102  1.934   .     S
O1079  Zn1115  1.936   .     S
O1080  Zn1114  1.936   .     S
O1081  Zn1109  1.935   .     S
O1082  Zn1105  1.938   .     S
O1082  Zn1116  1.938   .     S
O1082  Zn1111  1.934   .     S
O1083  Zn1101  1.935   .     S
O1084  Zn1111  1.936   .     S
O1085  Zn1110  1.936   .     S
O1086  Zn1113  1.935   .     S
O1087  Zn1112  1.935   .     S
O1088  Zn1114  1.937   .     S
O1089  Zn1115  1.937   .     S
O1090  Zn1112  1.934   .     S
O1091  Zn1113  1.934   .     S
O1092  Zn1110  1.937   .     S
O1093  Zn1104  1.916   .     S
O1094  Zn1111  1.937   .     S
O1095  Zn1101  1.934   .     S
O1096  Zn1109  1.934   .     S
O1097  Zn1103  1.916   .     S
O1097  C1118   1.275   1_455 S
O1098  Zn1106  1.917   .     S
O1099  Zn1105  1.917   .     S
O1100  Zn1108  1.916   .     S
Zn1103 O1447   1.937   1_455 S
Zn1104 O1438   1.936   1_455 S
Zn1107 O1435   1.936   1_455 S
Zn1108 O1444   1.937   1_455 S
Zn1109 O1432   1.938   .     S
Zn1110 O327    1.934   1_565 S
Zn1112 O1421   1.938   .     S
Zn1115 O338    1.934   1_565 S
C1117  C797    1.417   1_655 S
C1117  C1173   1.195   1_554 S
C1118  C1228   1.417   .     S
C1118  O1050   1.275   1_655 S
C1118  O1097   1.275   1_655 S
C1119  H1364   1.110   .     S
C1119  H1362   1.108   .     S
C1119  H1363   1.109   .     S
C1119  C1260   1.530   .     S
C1120  C1121   1.530   .     S
C1120  H1372   1.109   .     S
C1120  C1199   1.535   .     S
C1120  H1371   1.102   .     S
C1121  H1368   1.107   .     S
C1121  H1369   1.110   .     S
C1121  H1370   1.111   .     S
C1122  C1123   1.530   .     S
C1122  H1378   1.110   .     S
C1122  H1376   1.109   .     S
C1122  C1200   1.531   .     S
C1123  H1375   1.110   .     S
C1123  H1373   1.108   .     S
C1123  H1374   1.109   .     S
C1124  H1383   1.107   .     S
C1124  H1382   1.104   .     S
C1124  C1201   1.530   .     S
C1124  C1125   1.522   .     S
C1125  H1381   1.109   .     S
C1125  H1380   1.110   .     S
C1125  H1379   1.109   .     S
C1126  H1387   1.106   .     S
C1126  H1389   1.107   .     S
C1126  C1202   1.529   .     S
C1126  C1127   1.527   .     S
C1127  H1386   1.110   .     S
C1127  H1384   1.110   .     S
C1127  H1385   1.110   .     S
C1128  H1393   1.103   .     S
C1128  C1130   1.533   .     S
C1128  H1394   1.109   .     S
C1128  C1203   1.538   .     S
C1129  C1217   1.417   .     S
C1129  O679    1.278   1_565 S
C1129  O726    1.278   1_565 S
C1130  H1392   1.110   .     S
C1130  H1390   1.109   .     S
C1130  H1391   1.111   .     S
C1131  H1400   1.109   .     S
C1131  H1398   1.108   .     S
C1131  C1132   1.529   .     S
C1131  C1204   1.531   .     S
C1132  H1396   1.109   .     S
C1132  H1397   1.110   .     S
C1132  H1395   1.109   .     S
C1133  C1205   1.529   .     S
C1133  C1134   1.526   .     S
C1133  H1404   1.106   .     S
C1133  H1405   1.107   .     S
C1134  H1402   1.110   .     S
C1134  H1403   1.110   .     S
C1134  H1401   1.110   .     S
C1135  C1136   1.528   .     S
C1135  H1411   1.109   .     S
C1135  H1409   1.106   .     S
C1135  C1207   1.534   .     S
C1136  H1406   1.103   .     S
C1136  H1408   1.108   .     S
C1136  H1407   1.110   .     S
C1137  H1416   1.109   .     S
C1137  C1138   1.530   .     S
C1137  C1208   1.527   .     S
C1137  H1415   1.108   .     S
C1138  H1413   1.108   .     S
C1138  H1412   1.110   .     S
C1138  H1414   1.110   .     S
C1139  C1209   1.531   .     S
C1139  H1420   1.109   .     S
C1139  H1263   1.110   .     S
C1139  C1141   1.532   .     S
C1140  O727    1.278   1_565 A
C1140  C1206   1.417   .     S
C1140  O680    1.278   1_565 A
C1141  H1418   1.109   .     S
C1141  H1417   1.107   .     S
C1141  H1419   1.111   .     S
C1142  H1267   1.105   .     S
C1142  C1143   1.528   .     S
C1142  H1268   1.108   .     S
C1142  C1210   1.532   .     S
C1143  H1266   1.110   .     S
C1143  H1264   1.110   .     S
C1143  H1265   1.111   .     S
C1144  H1274   1.107   .     S
C1144  H1272   1.104   .     S
C1144  C1145   1.523   .     S
C1144  C1211   1.529   .     S
C1145  H1271   1.110   .     S
C1145  H1270   1.109   .     S
C1145  H1269   1.109   .     S
C1146  C1212   1.532   .     S
C1146  H1278   1.105   .     S
C1146  C1147   1.528   .     S
C1146  H1279   1.108   .     S
C1147  H1277   1.110   .     S
C1147  H1276   1.111   .     S
C1147  H1275   1.109   .     S
C1148  H1285   1.107   .     S
C1148  C1149   1.528   .     S
C1148  H1283   1.107   .     S
C1148  C1213   1.527   .     S
C1149  H1282   1.110   .     S
C1149  H1281   1.110   .     S
C1149  H1280   1.110   .     S
C1150  H1290   1.107   .     S
C1150  C1152   1.522   .     S
C1150  H1289   1.104   .     S
C1150  C1214   1.530   .     S
C1151  O1425   1.275   .     S
C1152  H1286   1.109   .     S
C1152  H1288   1.109   .     S
C1152  H1287   1.110   .     S
C1153  H1294   1.106   .     S
C1153  C1154   1.527   .     S
C1153  H1296   1.107   .     S
C1153  C1215   1.529   .     S
C1154  H1292   1.110   .     S
C1154  H1293   1.110   .     S
C1154  H1291   1.110   .     S
C1155  H1300   1.103   .     S
C1155  C1156   1.533   .     S
C1155  C1216   1.538   .     S
C1155  H1301   1.109   .     S
C1156  H1297   1.109   .     S
C1156  H1299   1.110   .     S
C1156  H1298   1.111   .     S
C1157  H1305   1.108   .     S
C1157  C1218   1.531   .     S
C1157  H1307   1.109   .     S
C1157  C1158   1.529   .     S
C1158  H1303   1.109   .     S
C1158  H1304   1.110   .     S
C1158  H1302   1.109   .     S
C1159  C1160   1.528   .     S
C1159  H1311   1.108   .     S
C1159  C1219   1.530   .     S
C1159  H1312   1.110   .     S
C1160  H1308   1.109   .     S
C1160  H1309   1.110   .     S
C1160  H1310   1.110   .     S
C1161  H1316   1.109   .     S
C1161  C1163   1.530   .     S
C1161  H1318   1.110   .     S
C1161  C1220   1.530   .     S
C1162  O1430   1.275   .     S
C1163  H1314   1.109   .     S
C1163  H1315   1.110   .     S
C1163  H1313   1.109   .     S
C1164  C1221   1.535   .     S
C1164  C1165   1.530   .     S
C1164  H1323   1.109   .     S
C1164  H1322   1.102   .     S
C1165  H1320   1.110   .     S
C1165  H1319   1.107   .     S
C1165  H1321   1.111   .     S
C1166  H1329   1.110   .     S
C1166  C1167   1.530   .     S
C1166  C1222   1.531   .     S
C1166  H1327   1.109   .     S
C1167  H1325   1.109   .     S
C1167  H1326   1.110   .     S
C1167  H1324   1.108   .     S
C1168  O1427   1.278   .     S
C1169  O1433   1.278   .     S
C1170  O1467   1.273   .     A
C1170  C1230   1.458   .     S
C1170  O1434   1.274   .     A
C1171  O1468   1.271   .     A
C1171  C1231   1.460   .     S
C1171  O1435   1.277   .     A
C1172  C1223   1.459   .     S
C1172  O1464   1.273   .     A
C1172  O1436   1.274   .     A
C1173  C796    1.417   1_655 S
C1173  C1117   1.195   1_556 S
C1174  O1466   1.276   .     A
C1174  C1224   1.458   .     S
C1174  O1437   1.271   .     A
C1175  C1225   1.455   .     S
C1175  O1438   1.272   .     A
C1175  O1462   1.273   .     A
C1176  O1463   1.274   .     A
C1176  C1226   1.456   .     S
C1176  O1439   1.273   .     A
C1177  O1440   1.270   .     A
C1177  C1227   1.460   .     S
C1177  O1460   1.279   .     A
C1178  O1461   1.271   .     A
C1178  O1441   1.276   .     A
C1178  C1229   1.458   .     S
C1179  O1458   1.274   .     A
C1179  C1238   1.459   .     S
C1179  O1442   1.274   .     A
C1180  C1240   1.458   .     S
C1180  O1444   1.276   .     A
C1180  O1459   1.271   .     A
C1181  O1445   1.273   .     A
C1181  C1232   1.458   .     S
C1181  O1456   1.274   .     A
C1182  C1233   1.460   .     S
C1182  O1457   1.277   .     A
C1182  O1446   1.271   .     A
C1183  C1234   1.460   .     S
C1183  O1453   1.270   .     A
C1183  O1447   1.279   .     A
C1184  C418    1.417   1_565 S
C1184  C1195   1.195   1_554 S
C1185  C1235   1.458   .     S
C1185  O1455   1.276   .     A
C1185  O1448   1.271   .     A
C1186  C1236   1.455   .     S
C1186  O1451   1.272   .     A
C1186  O1449   1.273   .     A
C1187  C1237   1.456   .     S
C1187  O1452   1.273   .     A
C1187  O1450   1.274   .     A
C1188  C1241   1.532   .     S
C1188  C1200   1.414   .     A
C1188  C1235   1.417   .     A
C1189  C1199   1.414   .     A
C1189  C1234   1.421   .     A
C1189  C1243   1.529   .     S
C1190  C1245   1.532   .     S
C1190  C1198   1.415   .     A
C1190  C1233   1.418   .     A
C1191  C1232   1.416   .     A
C1191  C1247   1.527   .     S
C1191  C1197   1.415   .     A
C1192  C1240   1.417   .     A
C1192  C1249   1.529   .     S
C1192  C1204   1.414   .     A
C1193  C1238   1.421   .     A
C1193  C1203   1.418   .     A
C1193  C1252   1.534   .     S
C1194  C1237   1.416   .     A
C1194  C1202   1.413   .     A
C1194  C1254   1.527   .     S
C1195  C407    1.417   1_565 S
C1195  C1184   1.195   1_556 S
C1196  C1201   1.413   .     A
C1196  C1256   1.531   .     S
C1196  C1236   1.416   .     A
C1197  C1226   1.416   .     A
C1197  C1258   1.530   .     S
C1198  C1225   1.417   .     A
C1198  C1260   1.530   .     S
C1199  C1224   1.415   .     A
C1200  C1223   1.418   .     A
C1201  C1231   1.419   .     A
C1202  C1230   1.414   .     A
C1203  C1229   1.418   .     A
C1204  C1227   1.417   .     A
C1205  C1224   1.417   .     A
C1205  C1218   1.414   .     A
C1206  C1217   1.195   .     T
C1207  C1216   1.418   .     A
C1207  C1223   1.421   .     A
C1208  C1226   1.416   .     A
C1208  C1215   1.413   .     A
C1209  C1225   1.416   .     A
C1209  C1214   1.413   .     A
C1210  C1229   1.417   .     A
C1210  C1222   1.414   .     A
C1211  C1221   1.414   .     A
C1211  C1227   1.421   .     A
C1212  C1220   1.415   .     A
C1212  C1231   1.418   .     A
C1213  C1219   1.415   .     A
C1213  C1230   1.416   .     A
C1214  C1233   1.419   .     A
C1215  C1232   1.414   .     A
C1216  C1235   1.418   .     A
C1218  C1234   1.417   .     A
C1219  C1237   1.416   .     A
C1220  C1236   1.417   .     A
C1221  C1240   1.415   .     A
C1222  C1238   1.418   .     A
C1228  C1239   1.195   .     T
C1239  C878    1.417   1_655 S
C1241  C1242   1.528   .     S
C1241  H1355   1.105   .     S
C1241  H1366   1.108   .     S
C1242  H1261   1.110   .     S
C1242  H1333   1.111   .     S
C1242  H1344   1.110   .     S
C1243  C1244   1.523   .     S
C1243  H1262   1.107   .     S
C1243  H1410   1.104   .     S
C1244  H1377   1.109   .     S
C1244  H1388   1.109   .     S
C1244  H1399   1.110   .     S
C1245  H1317   1.108   .     S
C1245  C1246   1.528   .     S
C1245  H1306   1.105   .     S
C1246  H1273   1.109   .     S
C1246  H1284   1.111   .     S
C1246  H1295   1.110   .     S
C1247  H1334   1.107   .     S
C1247  H1332   1.107   .     S
C1247  C1248   1.528   .     S
C1248  H1331   1.110   .     S
C1248  H1328   1.110   .     S
C1248  H1330   1.110   .     S
C1249  H1338   1.106   .     S
C1249  C1251   1.526   .     S
C1249  H1339   1.107   .     S
C1250  O1465   1.275   .     S
C1250  O1472   1.275   .     S
C1251  H1337   1.110   .     S
C1251  H1336   1.110   .     S
C1251  H1335   1.110   .     S
C1252  H1345   1.109   .     S
C1252  C1253   1.528   .     S
C1252  H1343   1.106   .     S
C1253  H1340   1.103   .     S
C1253  H1341   1.110   .     S
C1253  H1342   1.108   .     S
C1254  H1349   1.108   .     S
C1254  C1255   1.530   .     S
C1254  H1350   1.109   .     S
C1255  H1347   1.108   .     S
C1255  H1348   1.110   .     S
C1255  H1346   1.110   .     S
C1256  H1356   1.110   .     S
C1256  C1257   1.532   .     S
C1256  H1354   1.109   .     S
C1257  H1351   1.107   .     S
C1257  H1353   1.110   .     S
C1257  H1352   1.109   .     S
C1258  H1360   1.108   .     S
C1258  H1361   1.110   .     S
C1258  C1259   1.528   .     S
C1259  H1358   1.110   .     S
C1259  H1359   1.110   .     S
C1259  H1357   1.109   .     S
C1260  H1365   1.109   .     S
C1260  H1367   1.110   .     S
O1421  Zn1476  1.934   .     S
O1421  Zn1473  1.938   .     S
O1421  Zn1480  1.933   .     S
O1422  Zn1479  1.916   .     S
O1423  Zn1474  1.917   .     S
O1424  Zn1488  1.917   .     S
O1425  Zn1483  1.916   .     S
O1426  C418    1.275   1_565 A
O1426  Zn1482  1.916   .     S
O1427  Zn1485  1.917   .     S
O1428  Zn1484  1.917   .     S
O1428  C797    1.278   1_655 A
O1429  C407    1.275   1_565 A
O1429  Zn1487  1.916   .     S
O1430  Zn1486  1.916   .     S
O1431  C796    1.278   1_655 A
O1431  Zn1481  1.917   .     S
O1432  Zn1485  1.938   .     S
O1432  Zn1475  1.934   .     S
O1432  Zn1479  1.934   .     S
O1433  Zn1473  1.917   .     S
O1434  Zn1480  1.936   .     S
O1435  Zn1107  1.936   1_655 S
O1436  Zn730   1.935   1_565 S
O1437  Zn1488  1.935   .     S
O1438  Zn1104  1.936   1_655 S
O1439  Zn1475  1.936   .     S
O1440  Zn1478  1.935   .     S
O1441  Zn733   1.935   1_565 S
O1442  Zn1479  1.937   .     S
O1443  Zn1474  1.938   .     S
O1443  Zn1478  1.938   .     S
O1443  Zn1486  1.934   .     S
O1444  Zn1108  1.937   1_655 S
O1445  Zn1477  1.934   .     S
O1446  Zn734   1.934   1_565 S
O1447  Zn1103  1.937   1_655 S
O1448  Zn1476  1.937   .     S
O1449  Zn744   1.934   1_565 S
O1450  Zn1474  1.934   .     S
O1451  Zn1487  1.936   .     S
O1452  Zn1486  1.936   .     S
O1453  Zn1481  1.935   .     S
O1454  Zn1477  1.938   .     S
O1454  Zn1488  1.938   .     S
O1454  Zn1483  1.934   .     S
O1455  Zn1473  1.935   .     S
O1456  Zn1483  1.936   .     S
O1457  Zn1482  1.936   .     S
O1458  Zn1485  1.935   .     S
O1459  Zn1484  1.935   .     S
O1460  Zn1486  1.937   .     S
O1461  Zn1487  1.937   .     S
O1462  Zn1484  1.934   .     S
O1463  Zn1485  1.934   .     S
O1464  Zn1482  1.937   .     S
O1465  Zn1476  1.916   .     S
O1466  Zn1483  1.937   .     S
O1467  Zn1473  1.934   .     S
O1468  Zn1481  1.934   .     S
O1469  Zn1475  1.916   .     S
O1470  Zn1478  1.917   .     S
O1471  Zn1477  1.917   .     S
O1472  Zn1480  1.916   .     S
Zn1481 O1060   1.938   1_655 S
Zn1482 O699    1.934   1_565 S
Zn1484 O1049   1.938   1_655 S
Zn1487 O710    1.934   1_565 S
