data_str_m3_o1_o18_pcu_sym.47
_audit_creation_date              2020-01-03
_audit_creation_method            'Materials Studio'
_symmetry_space_group_name_H-M    'P1'
_symmetry_Int_Tables_number       1
_symmetry_cell_setting            triclinic
loop_
_symmetry_equiv_pos_as_xyz
  x,y,z
_cell_length_a                    29.6678
_cell_length_b                    31.9941
_cell_length_c                    31.0102
_cell_angle_alpha                 90.3013
_cell_angle_beta                  67.2787
_cell_angle_gamma                 89.7636
loop_
_atom_site_label
_atom_site_type_symbol
_atom_site_fract_x
_atom_site_fract_y
_atom_site_fract_z
_atom_site_U_iso_or_equiv
_atom_site_adp_type
_atom_site_occupancy
O1     O     0.12846   0.22775   0.25001   0.00000  Uiso   1.00
O2     O     0.20488   0.10558   0.25000   0.00000  Uiso   1.00
O3     O     0.20490   0.22774   0.25000   0.00000  Uiso   1.00
O4     O     0.12843   0.10559   0.25000   0.00000  Uiso   1.00
C5     C     0.16716   0.24655   0.24872   0.00000  Uiso   1.00
C6     C     0.16617   0.08678   0.25129   0.00000  Uiso   1.00
O7     O     0.10661   0.16667   0.31613   0.00000  Uiso   1.00
O8     O     0.22672   0.16666   0.18388   0.00000  Uiso   1.00
O9     O     0.18305   0.16666   0.31612   0.00000  Uiso   1.00
O10    O     0.15028   0.16667   0.18388   0.00000  Uiso   1.00
C11    C     0.13603   0.16650   0.33807   0.00000  Uiso   1.00
C12    C     0.19733   0.16587   0.16194   0.00000  Uiso   1.00
Zn13   Zn    0.11562   0.16667   0.25000   0.00000  Uiso   1.00
Zn14   Zn    0.21771   0.16666   0.25000   0.00000  Uiso   1.00
C15    C     0.11749   0.16057   0.38852   0.00000  Uiso   1.00
C16    C     0.21677   0.16284   0.11105   0.00000  Uiso   1.00
C17    C     0.06155   0.12819   0.45893   0.00000  Uiso   1.00
C18    C     0.28037   0.17369   0.03496   0.00000  Uiso   1.00
C19    C     0.07262   0.14139   0.41315   0.00000  Uiso   1.00
C20    C     0.26513   0.17307   0.08345   0.00000  Uiso   1.00
C21    C     0.15005   0.16767   0.41018   0.00000  Uiso   1.00
C22    C     0.18486   0.15076   0.09008   0.00000  Uiso   1.00
C23    C     0.14204   0.15094   0.45391   0.00000  Uiso   1.00
C24    C     0.19919   0.15098   0.04161   0.00000  Uiso   1.00
C25    C     0.09608   0.13263   0.47941   0.00000  Uiso   1.00
C26    C     0.24740   0.16389   0.01394   0.00000  Uiso   1.00
C27    C     0.17845   0.15249   0.47291   0.00000  Uiso   1.00
C28    C     0.16555   0.14210   0.02044   0.00000  Uiso   1.00
C29    C     0.11937   0.12367   0.04518   0.00000  Uiso   1.00
C30    C     0.22755   0.16319   0.44566   0.00000  Uiso   1.00
C31    C     0.08557   0.11856   0.02463   0.00000  Uiso   1.00
C32    C     0.26156   0.16814   0.46589   0.00000  Uiso   1.00
H33    H     0.14776   0.14366   0.11250   0.00000  Uiso   1.00
H34    H     0.18240   0.18561   0.39152   0.00000  Uiso   1.00
H35    H     0.29041   0.18211   0.09931   0.00000  Uiso   1.00
H36    H     0.04715   0.13528   0.39660   0.00000  Uiso   1.00
H37    H     0.02677   0.11328   0.47773   0.00000  Uiso   1.00
H38    H     0.31726   0.18349   0.01405   0.00000  Uiso   1.00
H39    H     0.10894   0.11146   0.08002   0.00000  Uiso   1.00
H40    H     0.24107   0.16695   0.40824   0.00000  Uiso   1.00
C41    C     0.18734   0.31097   0.27642   0.00000  Uiso   1.00
C42    C     0.14603   0.02237   0.22355   0.00000  Uiso   1.00
H43    H     0.20181   0.29318   0.29795   0.00000  Uiso   1.00
H44    H     0.13157   0.04016   0.20201   0.00000  Uiso   1.00
C45    C     0.18586   0.02059   0.27965   0.00000  Uiso   1.00
C46    C     0.14753   0.31275   0.22031   0.00000  Uiso   1.00
C47    C     0.16550   0.04262   0.25239   0.00000  Uiso   1.00
C48    C     0.16785   0.29071   0.24760   0.00000  Uiso   1.00
C49    C     0.31844   0.13479   0.22898   0.00000  Uiso   1.00
C50    C     0.01489   0.19853   0.27104   0.00000  Uiso   1.00
C51    C     0.03275   0.13494   0.22937   0.00000  Uiso   1.00
C52    C     0.30058   0.19839   0.27064   0.00000  Uiso   1.00
H53    H     0.05810   0.10983   0.21248   0.00000  Uiso   1.00
H54    H     0.27524   0.22349   0.28754   0.00000  Uiso   1.00
N55    N     0.04759   0.16668   0.25001   0.00000  Uiso   1.00
N56    N     0.28574   0.16666   0.24999   0.00000  Uiso   1.00
H57    H     0.05081   0.10401   0.04447   0.00000  Uiso   1.00
H58    H     0.29859   0.17698   0.44407   0.00000  Uiso   1.00
N59    N     0.20290   0.04099   0.31193   0.00000  Uiso   1.00
O60    O     0.17728   0.07094   0.33900   0.00000  Uiso   1.00
O61    O     0.23993   0.02561   0.31936   0.00000  Uiso   1.00
N62    N     0.13052   0.29233   0.18800   0.00000  Uiso   1.00
O63    O     0.15604   0.26223   0.16111   0.00000  Uiso   1.00
O64    O     0.09361   0.30779   0.18042   0.00000  Uiso   1.00
N65    N     0.30537   0.10110   0.20576   0.00000  Uiso   1.00
O66    O     0.31424   0.06279   0.21417   0.00000  Uiso   1.00
O67    O     0.29574   0.10861   0.16906   0.00000  Uiso   1.00
N68    N     0.02795   0.23219   0.29430   0.00000  Uiso   1.00
O69    O     0.01910   0.27051   0.28591   0.00000  Uiso   1.00
O70    O     0.03756   0.22464   0.33100   0.00000  Uiso   1.00
O71    O     0.46179   0.22775   0.25001   0.00000  Uiso   1.00
O72    O     0.53821   0.10558   0.25000   0.00000  Uiso   1.00
O73    O     0.53823   0.22774   0.25000   0.00000  Uiso   1.00
O74    O     0.46177   0.10559   0.25000   0.00000  Uiso   1.00
C75    C     0.50049   0.24655   0.24872   0.00000  Uiso   1.00
C76    C     0.49951   0.08678   0.25129   0.00000  Uiso   1.00
O77    O     0.43994   0.16667   0.31613   0.00000  Uiso   1.00
O78    O     0.56006   0.16666   0.18388   0.00000  Uiso   1.00
O79    O     0.51639   0.16666   0.31612   0.00000  Uiso   1.00
O80    O     0.48361   0.16667   0.18388   0.00000  Uiso   1.00
C81    C     0.46936   0.16650   0.33807   0.00000  Uiso   1.00
C82    C     0.53066   0.16587   0.16194   0.00000  Uiso   1.00
Zn83   Zn    0.44896   0.16667   0.25000   0.00000  Uiso   1.00
Zn84   Zn    0.55104   0.16666   0.25000   0.00000  Uiso   1.00
C85    C     0.45083   0.16057   0.38852   0.00000  Uiso   1.00
C86    C     0.55011   0.16284   0.11105   0.00000  Uiso   1.00
C87    C     0.39488   0.12819   0.45893   0.00000  Uiso   1.00
C88    C     0.61370   0.17369   0.03496   0.00000  Uiso   1.00
C89    C     0.40596   0.14139   0.41315   0.00000  Uiso   1.00
C90    C     0.59847   0.17307   0.08345   0.00000  Uiso   1.00
C91    C     0.48339   0.16767   0.41018   0.00000  Uiso   1.00
C92    C     0.51819   0.15076   0.09008   0.00000  Uiso   1.00
C93    C     0.47537   0.15094   0.45391   0.00000  Uiso   1.00
C94    C     0.53253   0.15098   0.04161   0.00000  Uiso   1.00
C95    C     0.42941   0.13263   0.47941   0.00000  Uiso   1.00
C96    C     0.58073   0.16389   0.01394   0.00000  Uiso   1.00
C97    C     0.51178   0.15249   0.47291   0.00000  Uiso   1.00
C98    C     0.49888   0.14210   0.02044   0.00000  Uiso   1.00
C99    C     0.45271   0.12367   0.04518   0.00000  Uiso   1.00
C100   C     0.56088   0.16319   0.44566   0.00000  Uiso   1.00
C101   C     0.41890   0.11856   0.02463   0.00000  Uiso   1.00
C102   C     0.59490   0.16814   0.46589   0.00000  Uiso   1.00
H103   H     0.48110   0.14366   0.11250   0.00000  Uiso   1.00
H104   H     0.51573   0.18561   0.39152   0.00000  Uiso   1.00
H105   H     0.62374   0.18211   0.09931   0.00000  Uiso   1.00
H106   H     0.38049   0.13528   0.39660   0.00000  Uiso   1.00
H107   H     0.36010   0.11328   0.47773   0.00000  Uiso   1.00
H108   H     0.65059   0.18349   0.01405   0.00000  Uiso   1.00
H109   H     0.44227   0.11146   0.08002   0.00000  Uiso   1.00
H110   H     0.57441   0.16695   0.40824   0.00000  Uiso   1.00
C111   C     0.52068   0.31097   0.27642   0.00000  Uiso   1.00
C112   C     0.47937   0.02237   0.22355   0.00000  Uiso   1.00
H113   H     0.53515   0.29318   0.29795   0.00000  Uiso   1.00
H114   H     0.46491   0.04016   0.20201   0.00000  Uiso   1.00
C115   C     0.51919   0.02059   0.27965   0.00000  Uiso   1.00
C116   C     0.48086   0.31275   0.22031   0.00000  Uiso   1.00
C117   C     0.49883   0.04262   0.25239   0.00000  Uiso   1.00
C118   C     0.50119   0.29071   0.24760   0.00000  Uiso   1.00
C119   C     0.65177   0.13479   0.22898   0.00000  Uiso   1.00
C120   C     0.34822   0.19853   0.27104   0.00000  Uiso   1.00
C121   C     0.36608   0.13494   0.22937   0.00000  Uiso   1.00
C122   C     0.63391   0.19839   0.27064   0.00000  Uiso   1.00
H123   H     0.39143   0.10983   0.21248   0.00000  Uiso   1.00
H124   H     0.60857   0.22349   0.28754   0.00000  Uiso   1.00
N125   N     0.38093   0.16668   0.25001   0.00000  Uiso   1.00
N126   N     0.61907   0.16666   0.24999   0.00000  Uiso   1.00
H127   H     0.38414   0.10401   0.04447   0.00000  Uiso   1.00
H128   H     0.63192   0.17698   0.44407   0.00000  Uiso   1.00
N129   N     0.53624   0.04099   0.31193   0.00000  Uiso   1.00
O130   O     0.51061   0.07094   0.33900   0.00000  Uiso   1.00
O131   O     0.57327   0.02561   0.31936   0.00000  Uiso   1.00
N132   N     0.46385   0.29233   0.18800   0.00000  Uiso   1.00
O133   O     0.48937   0.26223   0.16111   0.00000  Uiso   1.00
O134   O     0.42694   0.30779   0.18042   0.00000  Uiso   1.00
N135   N     0.63870   0.10110   0.20576   0.00000  Uiso   1.00
O136   O     0.64758   0.06279   0.21417   0.00000  Uiso   1.00
O137   O     0.62908   0.10861   0.16906   0.00000  Uiso   1.00
N138   N     0.36128   0.23219   0.29430   0.00000  Uiso   1.00
O139   O     0.35243   0.27051   0.28591   0.00000  Uiso   1.00
O140   O     0.37089   0.22464   0.33100   0.00000  Uiso   1.00
O141   O     0.79512   0.22775   0.25001   0.00000  Uiso   1.00
O142   O     0.87154   0.10558   0.25000   0.00000  Uiso   1.00
O143   O     0.87157   0.22774   0.25000   0.00000  Uiso   1.00
O144   O     0.79510   0.10559   0.25000   0.00000  Uiso   1.00
C145   C     0.83383   0.24655   0.24872   0.00000  Uiso   1.00
C146   C     0.83284   0.08678   0.25129   0.00000  Uiso   1.00
O147   O     0.77328   0.16667   0.31613   0.00000  Uiso   1.00
O148   O     0.89339   0.16666   0.18388   0.00000  Uiso   1.00
O149   O     0.84972   0.16666   0.31612   0.00000  Uiso   1.00
O150   O     0.81695   0.16667   0.18388   0.00000  Uiso   1.00
C151   C     0.80269   0.16650   0.33807   0.00000  Uiso   1.00
C152   C     0.86400   0.16587   0.16194   0.00000  Uiso   1.00
Zn153  Zn    0.78229   0.16667   0.25000   0.00000  Uiso   1.00
Zn154  Zn    0.88438   0.16666   0.25000   0.00000  Uiso   1.00
C155   C     0.78416   0.16057   0.38852   0.00000  Uiso   1.00
C156   C     0.88344   0.16284   0.11105   0.00000  Uiso   1.00
C157   C     0.72821   0.12819   0.45893   0.00000  Uiso   1.00
C158   C     0.94703   0.17369   0.03496   0.00000  Uiso   1.00
C159   C     0.73929   0.14139   0.41315   0.00000  Uiso   1.00
C160   C     0.93180   0.17307   0.08345   0.00000  Uiso   1.00
C161   C     0.81672   0.16767   0.41018   0.00000  Uiso   1.00
C162   C     0.85152   0.15076   0.09008   0.00000  Uiso   1.00
C163   C     0.80871   0.15094   0.45391   0.00000  Uiso   1.00
C164   C     0.86586   0.15098   0.04161   0.00000  Uiso   1.00
C165   C     0.76275   0.13263   0.47941   0.00000  Uiso   1.00
C166   C     0.91407   0.16389   0.01394   0.00000  Uiso   1.00
C167   C     0.84511   0.15249   0.47291   0.00000  Uiso   1.00
C168   C     0.83221   0.14210   0.02044   0.00000  Uiso   1.00
C169   C     0.78604   0.12367   0.04518   0.00000  Uiso   1.00
C170   C     0.89421   0.16319   0.44566   0.00000  Uiso   1.00
C171   C     0.75223   0.11856   0.02463   0.00000  Uiso   1.00
C172   C     0.92823   0.16814   0.46589   0.00000  Uiso   1.00
H173   H     0.81443   0.14366   0.11250   0.00000  Uiso   1.00
H174   H     0.84906   0.18561   0.39152   0.00000  Uiso   1.00
H175   H     0.95707   0.18211   0.09931   0.00000  Uiso   1.00
H176   H     0.71382   0.13528   0.39660   0.00000  Uiso   1.00
H177   H     0.69343   0.11328   0.47773   0.00000  Uiso   1.00
H178   H     0.98392   0.18349   0.01405   0.00000  Uiso   1.00
H179   H     0.77561   0.11146   0.08002   0.00000  Uiso   1.00
H180   H     0.90774   0.16695   0.40824   0.00000  Uiso   1.00
C181   C     0.85401   0.31097   0.27642   0.00000  Uiso   1.00
C182   C     0.81270   0.02237   0.22355   0.00000  Uiso   1.00
H183   H     0.86848   0.29318   0.29795   0.00000  Uiso   1.00
H184   H     0.79824   0.04016   0.20201   0.00000  Uiso   1.00
C185   C     0.85252   0.02059   0.27965   0.00000  Uiso   1.00
C186   C     0.81419   0.31275   0.22031   0.00000  Uiso   1.00
C187   C     0.83217   0.04262   0.25239   0.00000  Uiso   1.00
C188   C     0.83452   0.29071   0.24760   0.00000  Uiso   1.00
C189   C     0.98510   0.13479   0.22898   0.00000  Uiso   1.00
C190   C     0.68156   0.19853   0.27104   0.00000  Uiso   1.00
C191   C     0.69942   0.13494   0.22937   0.00000  Uiso   1.00
C192   C     0.96725   0.19839   0.27064   0.00000  Uiso   1.00
H193   H     0.72476   0.10983   0.21248   0.00000  Uiso   1.00
H194   H     0.94190   0.22349   0.28754   0.00000  Uiso   1.00
N195   N     0.71426   0.16668   0.25001   0.00000  Uiso   1.00
N196   N     0.95241   0.16666   0.24999   0.00000  Uiso   1.00
H197   H     0.71747   0.10401   0.04447   0.00000  Uiso   1.00
H198   H     0.96526   0.17698   0.44407   0.00000  Uiso   1.00
N199   N     0.86957   0.04099   0.31193   0.00000  Uiso   1.00
O200   O     0.84394   0.07094   0.33900   0.00000  Uiso   1.00
O201   O     0.90660   0.02561   0.31936   0.00000  Uiso   1.00
N202   N     0.79719   0.29233   0.18800   0.00000  Uiso   1.00
O203   O     0.82270   0.26223   0.16111   0.00000  Uiso   1.00
O204   O     0.76028   0.30779   0.18042   0.00000  Uiso   1.00
N205   N     0.97204   0.10110   0.20576   0.00000  Uiso   1.00
O206   O     0.98091   0.06279   0.21417   0.00000  Uiso   1.00
O207   O     0.96241   0.10861   0.16906   0.00000  Uiso   1.00
N208   N     0.69461   0.23219   0.29430   0.00000  Uiso   1.00
O209   O     0.68577   0.27051   0.28591   0.00000  Uiso   1.00
O210   O     0.70423   0.22464   0.33100   0.00000  Uiso   1.00
O211   O     0.12846   0.56108   0.25001   0.00000  Uiso   1.00
O212   O     0.20488   0.43892   0.25000   0.00000  Uiso   1.00
O213   O     0.20490   0.56107   0.25000   0.00000  Uiso   1.00
O214   O     0.12843   0.43893   0.25000   0.00000  Uiso   1.00
C215   C     0.16716   0.57989   0.24872   0.00000  Uiso   1.00
C216   C     0.16617   0.42011   0.25129   0.00000  Uiso   1.00
O217   O     0.10661   0.50001   0.31613   0.00000  Uiso   1.00
O218   O     0.22672   0.49999   0.18388   0.00000  Uiso   1.00
O219   O     0.18305   0.50000   0.31612   0.00000  Uiso   1.00
O220   O     0.15028   0.50000   0.18388   0.00000  Uiso   1.00
C221   C     0.13603   0.49983   0.33807   0.00000  Uiso   1.00
C222   C     0.19733   0.49921   0.16194   0.00000  Uiso   1.00
Zn223  Zn    0.11562   0.50001   0.25000   0.00000  Uiso   1.00
Zn224  Zn    0.21771   0.49999   0.25000   0.00000  Uiso   1.00
C225   C     0.11749   0.49390   0.38852   0.00000  Uiso   1.00
C226   C     0.21677   0.49618   0.11105   0.00000  Uiso   1.00
C227   C     0.06155   0.46152   0.45893   0.00000  Uiso   1.00
C228   C     0.28037   0.50703   0.03496   0.00000  Uiso   1.00
C229   C     0.07262   0.47472   0.41315   0.00000  Uiso   1.00
C230   C     0.26513   0.50640   0.08345   0.00000  Uiso   1.00
C231   C     0.15005   0.50100   0.41018   0.00000  Uiso   1.00
C232   C     0.18486   0.48409   0.09008   0.00000  Uiso   1.00
C233   C     0.14204   0.48427   0.45391   0.00000  Uiso   1.00
C234   C     0.19919   0.48432   0.04161   0.00000  Uiso   1.00
C235   C     0.09608   0.46596   0.47941   0.00000  Uiso   1.00
C236   C     0.24740   0.49722   0.01394   0.00000  Uiso   1.00
C237   C     0.17845   0.48582   0.47291   0.00000  Uiso   1.00
C238   C     0.16555   0.47544   0.02044   0.00000  Uiso   1.00
C239   C     0.11937   0.45700   0.04518   0.00000  Uiso   1.00
C240   C     0.22755   0.49652   0.44566   0.00000  Uiso   1.00
C241   C     0.08557   0.45189   0.02463   0.00000  Uiso   1.00
C242   C     0.26156   0.50147   0.46589   0.00000  Uiso   1.00
H243   H     0.14776   0.47699   0.11250   0.00000  Uiso   1.00
H244   H     0.18240   0.51894   0.39152   0.00000  Uiso   1.00
H245   H     0.29041   0.51545   0.09931   0.00000  Uiso   1.00
H246   H     0.04715   0.46861   0.39660   0.00000  Uiso   1.00
H247   H     0.02677   0.44662   0.47773   0.00000  Uiso   1.00
H248   H     0.31726   0.51682   0.01405   0.00000  Uiso   1.00
H249   H     0.10894   0.44479   0.08002   0.00000  Uiso   1.00
H250   H     0.24107   0.50029   0.40824   0.00000  Uiso   1.00
C251   C     0.18734   0.64430   0.27642   0.00000  Uiso   1.00
C252   C     0.14603   0.35570   0.22355   0.00000  Uiso   1.00
H253   H     0.20181   0.62651   0.29795   0.00000  Uiso   1.00
H254   H     0.13157   0.37350   0.20201   0.00000  Uiso   1.00
C255   C     0.18586   0.35392   0.27965   0.00000  Uiso   1.00
C256   C     0.14753   0.64608   0.22031   0.00000  Uiso   1.00
C257   C     0.16550   0.37596   0.25239   0.00000  Uiso   1.00
C258   C     0.16785   0.62405   0.24760   0.00000  Uiso   1.00
C259   C     0.31844   0.46813   0.22898   0.00000  Uiso   1.00
C260   C     0.01489   0.53186   0.27104   0.00000  Uiso   1.00
C261   C     0.03275   0.46827   0.22937   0.00000  Uiso   1.00
C262   C     0.30058   0.53172   0.27064   0.00000  Uiso   1.00
H263   H     0.05810   0.44317   0.21248   0.00000  Uiso   1.00
H264   H     0.27524   0.55683   0.28754   0.00000  Uiso   1.00
N265   N     0.04759   0.50001   0.25001   0.00000  Uiso   1.00
N266   N     0.28574   0.49999   0.24999   0.00000  Uiso   1.00
H267   H     0.05081   0.43734   0.04447   0.00000  Uiso   1.00
H268   H     0.29859   0.51031   0.44407   0.00000  Uiso   1.00
N269   N     0.20290   0.37433   0.31193   0.00000  Uiso   1.00
O270   O     0.17728   0.40428   0.33900   0.00000  Uiso   1.00
O271   O     0.23993   0.35894   0.31936   0.00000  Uiso   1.00
N272   N     0.13052   0.62567   0.18800   0.00000  Uiso   1.00
O273   O     0.15604   0.59556   0.16111   0.00000  Uiso   1.00
O274   O     0.09361   0.64112   0.18042   0.00000  Uiso   1.00
N275   N     0.30537   0.43443   0.20576   0.00000  Uiso   1.00
O276   O     0.31424   0.39613   0.21417   0.00000  Uiso   1.00
O277   O     0.29574   0.44194   0.16906   0.00000  Uiso   1.00
N278   N     0.02795   0.56553   0.29430   0.00000  Uiso   1.00
O279   O     0.01910   0.60385   0.28591   0.00000  Uiso   1.00
O280   O     0.03756   0.55797   0.33100   0.00000  Uiso   1.00
O281   O     0.46179   0.56108   0.25001   0.00000  Uiso   1.00
O282   O     0.53821   0.43892   0.25000   0.00000  Uiso   1.00
O283   O     0.53823   0.56107   0.25000   0.00000  Uiso   1.00
O284   O     0.46177   0.43893   0.25000   0.00000  Uiso   1.00
C285   C     0.50049   0.57989   0.24872   0.00000  Uiso   1.00
C286   C     0.49951   0.42011   0.25129   0.00000  Uiso   1.00
O287   O     0.43994   0.50001   0.31613   0.00000  Uiso   1.00
O288   O     0.56006   0.49999   0.18388   0.00000  Uiso   1.00
O289   O     0.51639   0.50000   0.31612   0.00000  Uiso   1.00
O290   O     0.48361   0.50000   0.18388   0.00000  Uiso   1.00
C291   C     0.46936   0.49983   0.33807   0.00000  Uiso   1.00
C292   C     0.53066   0.49921   0.16194   0.00000  Uiso   1.00
Zn293  Zn    0.44896   0.50001   0.25000   0.00000  Uiso   1.00
Zn294  Zn    0.55104   0.49999   0.25000   0.00000  Uiso   1.00
C295   C     0.45083   0.49390   0.38852   0.00000  Uiso   1.00
C296   C     0.55011   0.49618   0.11105   0.00000  Uiso   1.00
C297   C     0.39488   0.46152   0.45893   0.00000  Uiso   1.00
C298   C     0.61370   0.50703   0.03496   0.00000  Uiso   1.00
C299   C     0.40596   0.47472   0.41315   0.00000  Uiso   1.00
C300   C     0.59847   0.50640   0.08345   0.00000  Uiso   1.00
C301   C     0.48339   0.50100   0.41018   0.00000  Uiso   1.00
C302   C     0.51819   0.48409   0.09008   0.00000  Uiso   1.00
C303   C     0.47537   0.48427   0.45391   0.00000  Uiso   1.00
C304   C     0.53253   0.48432   0.04161   0.00000  Uiso   1.00
C305   C     0.42941   0.46596   0.47941   0.00000  Uiso   1.00
C306   C     0.58073   0.49722   0.01394   0.00000  Uiso   1.00
C307   C     0.51178   0.48582   0.47291   0.00000  Uiso   1.00
C308   C     0.49888   0.47544   0.02044   0.00000  Uiso   1.00
C309   C     0.45271   0.45700   0.04518   0.00000  Uiso   1.00
C310   C     0.56088   0.49652   0.44566   0.00000  Uiso   1.00
C311   C     0.41890   0.45189   0.02463   0.00000  Uiso   1.00
C312   C     0.59490   0.50147   0.46589   0.00000  Uiso   1.00
H313   H     0.48110   0.47699   0.11250   0.00000  Uiso   1.00
H314   H     0.51573   0.51894   0.39152   0.00000  Uiso   1.00
H315   H     0.62374   0.51545   0.09931   0.00000  Uiso   1.00
H316   H     0.38049   0.46861   0.39660   0.00000  Uiso   1.00
H317   H     0.36010   0.44662   0.47773   0.00000  Uiso   1.00
H318   H     0.65059   0.51682   0.01405   0.00000  Uiso   1.00
H319   H     0.44227   0.44479   0.08002   0.00000  Uiso   1.00
H320   H     0.57441   0.50029   0.40824   0.00000  Uiso   1.00
C321   C     0.52068   0.64430   0.27642   0.00000  Uiso   1.00
C322   C     0.47937   0.35570   0.22355   0.00000  Uiso   1.00
H323   H     0.53515   0.62651   0.29795   0.00000  Uiso   1.00
H324   H     0.46491   0.37350   0.20201   0.00000  Uiso   1.00
C325   C     0.51919   0.35392   0.27965   0.00000  Uiso   1.00
C326   C     0.48086   0.64608   0.22031   0.00000  Uiso   1.00
C327   C     0.49883   0.37596   0.25239   0.00000  Uiso   1.00
C328   C     0.50119   0.62405   0.24760   0.00000  Uiso   1.00
C329   C     0.65177   0.46813   0.22898   0.00000  Uiso   1.00
C330   C     0.34822   0.53186   0.27104   0.00000  Uiso   1.00
C331   C     0.36608   0.46827   0.22937   0.00000  Uiso   1.00
C332   C     0.63391   0.53172   0.27064   0.00000  Uiso   1.00
H333   H     0.39143   0.44317   0.21248   0.00000  Uiso   1.00
H334   H     0.60857   0.55683   0.28754   0.00000  Uiso   1.00
N335   N     0.38093   0.50001   0.25001   0.00000  Uiso   1.00
N336   N     0.61907   0.49999   0.24999   0.00000  Uiso   1.00
H337   H     0.38414   0.43734   0.04447   0.00000  Uiso   1.00
H338   H     0.63192   0.51031   0.44407   0.00000  Uiso   1.00
N339   N     0.53624   0.37433   0.31193   0.00000  Uiso   1.00
O340   O     0.51061   0.40428   0.33900   0.00000  Uiso   1.00
O341   O     0.57327   0.35894   0.31936   0.00000  Uiso   1.00
N342   N     0.46385   0.62567   0.18800   0.00000  Uiso   1.00
O343   O     0.48937   0.59556   0.16111   0.00000  Uiso   1.00
O344   O     0.42694   0.64112   0.18042   0.00000  Uiso   1.00
N345   N     0.63870   0.43443   0.20576   0.00000  Uiso   1.00
O346   O     0.64758   0.39613   0.21417   0.00000  Uiso   1.00
O347   O     0.62908   0.44194   0.16906   0.00000  Uiso   1.00
N348   N     0.36128   0.56553   0.29430   0.00000  Uiso   1.00
O349   O     0.35243   0.60385   0.28591   0.00000  Uiso   1.00
O350   O     0.37089   0.55797   0.33100   0.00000  Uiso   1.00
O351   O     0.79512   0.56108   0.25001   0.00000  Uiso   1.00
O352   O     0.87154   0.43892   0.25000   0.00000  Uiso   1.00
O353   O     0.87157   0.56107   0.25000   0.00000  Uiso   1.00
O354   O     0.79510   0.43893   0.25000   0.00000  Uiso   1.00
C355   C     0.83383   0.57989   0.24872   0.00000  Uiso   1.00
C356   C     0.83284   0.42011   0.25129   0.00000  Uiso   1.00
O357   O     0.77328   0.50001   0.31613   0.00000  Uiso   1.00
O358   O     0.89339   0.49999   0.18388   0.00000  Uiso   1.00
O359   O     0.84972   0.50000   0.31612   0.00000  Uiso   1.00
O360   O     0.81695   0.50000   0.18388   0.00000  Uiso   1.00
C361   C     0.80269   0.49983   0.33807   0.00000  Uiso   1.00
C362   C     0.86400   0.49921   0.16194   0.00000  Uiso   1.00
Zn363  Zn    0.78229   0.50001   0.25000   0.00000  Uiso   1.00
Zn364  Zn    0.88438   0.49999   0.25000   0.00000  Uiso   1.00
C365   C     0.78416   0.49390   0.38852   0.00000  Uiso   1.00
C366   C     0.88344   0.49618   0.11105   0.00000  Uiso   1.00
C367   C     0.72821   0.46152   0.45893   0.00000  Uiso   1.00
C368   C     0.94703   0.50703   0.03496   0.00000  Uiso   1.00
C369   C     0.73929   0.47472   0.41315   0.00000  Uiso   1.00
C370   C     0.93180   0.50640   0.08345   0.00000  Uiso   1.00
C371   C     0.81672   0.50100   0.41018   0.00000  Uiso   1.00
C372   C     0.85152   0.48409   0.09008   0.00000  Uiso   1.00
C373   C     0.80871   0.48427   0.45391   0.00000  Uiso   1.00
C374   C     0.86586   0.48432   0.04161   0.00000  Uiso   1.00
C375   C     0.76275   0.46596   0.47941   0.00000  Uiso   1.00
C376   C     0.91407   0.49722   0.01394   0.00000  Uiso   1.00
C377   C     0.84511   0.48582   0.47291   0.00000  Uiso   1.00
C378   C     0.83221   0.47544   0.02044   0.00000  Uiso   1.00
C379   C     0.78604   0.45700   0.04518   0.00000  Uiso   1.00
C380   C     0.89421   0.49652   0.44566   0.00000  Uiso   1.00
C381   C     0.75223   0.45189   0.02463   0.00000  Uiso   1.00
C382   C     0.92823   0.50147   0.46589   0.00000  Uiso   1.00
H383   H     0.81443   0.47699   0.11250   0.00000  Uiso   1.00
H384   H     0.84906   0.51894   0.39152   0.00000  Uiso   1.00
H385   H     0.95707   0.51545   0.09931   0.00000  Uiso   1.00
H386   H     0.71382   0.46861   0.39660   0.00000  Uiso   1.00
H387   H     0.69343   0.44662   0.47773   0.00000  Uiso   1.00
H388   H     0.98392   0.51682   0.01405   0.00000  Uiso   1.00
H389   H     0.77561   0.44479   0.08002   0.00000  Uiso   1.00
H390   H     0.90774   0.50029   0.40824   0.00000  Uiso   1.00
C391   C     0.85401   0.64430   0.27642   0.00000  Uiso   1.00
C392   C     0.81270   0.35570   0.22355   0.00000  Uiso   1.00
H393   H     0.86848   0.62651   0.29795   0.00000  Uiso   1.00
H394   H     0.79824   0.37350   0.20201   0.00000  Uiso   1.00
C395   C     0.85252   0.35392   0.27965   0.00000  Uiso   1.00
C396   C     0.81419   0.64608   0.22031   0.00000  Uiso   1.00
C397   C     0.83217   0.37596   0.25239   0.00000  Uiso   1.00
C398   C     0.83452   0.62405   0.24760   0.00000  Uiso   1.00
C399   C     0.98510   0.46813   0.22898   0.00000  Uiso   1.00
C400   C     0.68156   0.53186   0.27104   0.00000  Uiso   1.00
C401   C     0.69942   0.46827   0.22937   0.00000  Uiso   1.00
C402   C     0.96725   0.53172   0.27064   0.00000  Uiso   1.00
H403   H     0.72476   0.44317   0.21248   0.00000  Uiso   1.00
H404   H     0.94190   0.55683   0.28754   0.00000  Uiso   1.00
N405   N     0.71426   0.50001   0.25001   0.00000  Uiso   1.00
N406   N     0.95241   0.49999   0.24999   0.00000  Uiso   1.00
H407   H     0.71747   0.43734   0.04447   0.00000  Uiso   1.00
H408   H     0.96526   0.51031   0.44407   0.00000  Uiso   1.00
N409   N     0.86957   0.37433   0.31193   0.00000  Uiso   1.00
O410   O     0.84394   0.40428   0.33900   0.00000  Uiso   1.00
O411   O     0.90660   0.35894   0.31936   0.00000  Uiso   1.00
N412   N     0.79719   0.62567   0.18800   0.00000  Uiso   1.00
O413   O     0.82270   0.59556   0.16111   0.00000  Uiso   1.00
O414   O     0.76028   0.64112   0.18042   0.00000  Uiso   1.00
N415   N     0.97204   0.43443   0.20576   0.00000  Uiso   1.00
O416   O     0.98091   0.39613   0.21417   0.00000  Uiso   1.00
O417   O     0.96241   0.44194   0.16906   0.00000  Uiso   1.00
N418   N     0.69461   0.56553   0.29430   0.00000  Uiso   1.00
O419   O     0.68577   0.60385   0.28591   0.00000  Uiso   1.00
O420   O     0.70423   0.55797   0.33100   0.00000  Uiso   1.00
O421   O     0.12846   0.89442   0.25001   0.00000  Uiso   1.00
O422   O     0.20488   0.77225   0.25000   0.00000  Uiso   1.00
O423   O     0.20490   0.89441   0.25000   0.00000  Uiso   1.00
O424   O     0.12843   0.77226   0.25000   0.00000  Uiso   1.00
C425   C     0.16716   0.91322   0.24872   0.00000  Uiso   1.00
C426   C     0.16617   0.75345   0.25129   0.00000  Uiso   1.00
O427   O     0.10661   0.83334   0.31613   0.00000  Uiso   1.00
O428   O     0.22672   0.83333   0.18388   0.00000  Uiso   1.00
O429   O     0.18305   0.83333   0.31612   0.00000  Uiso   1.00
O430   O     0.15028   0.83334   0.18388   0.00000  Uiso   1.00
C431   C     0.13603   0.83317   0.33807   0.00000  Uiso   1.00
C432   C     0.19733   0.83254   0.16194   0.00000  Uiso   1.00
Zn433  Zn    0.11562   0.83334   0.25000   0.00000  Uiso   1.00
Zn434  Zn    0.21771   0.83333   0.25000   0.00000  Uiso   1.00
C435   C     0.11749   0.82724   0.38852   0.00000  Uiso   1.00
C436   C     0.21677   0.82951   0.11105   0.00000  Uiso   1.00
C437   C     0.06155   0.79486   0.45893   0.00000  Uiso   1.00
C438   C     0.28037   0.84036   0.03496   0.00000  Uiso   1.00
C439   C     0.07262   0.80806   0.41315   0.00000  Uiso   1.00
C440   C     0.26513   0.83973   0.08345   0.00000  Uiso   1.00
C441   C     0.15005   0.83434   0.41018   0.00000  Uiso   1.00
C442   C     0.18486   0.81742   0.09008   0.00000  Uiso   1.00
C443   C     0.14204   0.81761   0.45391   0.00000  Uiso   1.00
C444   C     0.19919   0.81765   0.04161   0.00000  Uiso   1.00
C445   C     0.09608   0.79930   0.47941   0.00000  Uiso   1.00
C446   C     0.24740   0.83055   0.01394   0.00000  Uiso   1.00
C447   C     0.17845   0.81915   0.47291   0.00000  Uiso   1.00
C448   C     0.16555   0.80877   0.02044   0.00000  Uiso   1.00
C449   C     0.11937   0.79034   0.04518   0.00000  Uiso   1.00
C450   C     0.22755   0.82986   0.44566   0.00000  Uiso   1.00
C451   C     0.08557   0.78522   0.02463   0.00000  Uiso   1.00
C452   C     0.26156   0.83480   0.46589   0.00000  Uiso   1.00
H453   H     0.14776   0.81033   0.11250   0.00000  Uiso   1.00
H454   H     0.18240   0.85228   0.39152   0.00000  Uiso   1.00
H455   H     0.29041   0.84878   0.09931   0.00000  Uiso   1.00
H456   H     0.04715   0.80195   0.39660   0.00000  Uiso   1.00
H457   H     0.02677   0.77995   0.47773   0.00000  Uiso   1.00
H458   H     0.31726   0.85015   0.01405   0.00000  Uiso   1.00
H459   H     0.10894   0.77813   0.08002   0.00000  Uiso   1.00
H460   H     0.24107   0.83362   0.40824   0.00000  Uiso   1.00
C461   C     0.18734   0.97763   0.27642   0.00000  Uiso   1.00
C462   C     0.14603   0.68904   0.22355   0.00000  Uiso   1.00
H463   H     0.20181   0.95984   0.29795   0.00000  Uiso   1.00
H464   H     0.13157   0.70683   0.20201   0.00000  Uiso   1.00
C465   C     0.18586   0.68725   0.27965   0.00000  Uiso   1.00
C466   C     0.14753   0.97941   0.22031   0.00000  Uiso   1.00
C467   C     0.16550   0.70929   0.25239   0.00000  Uiso   1.00
C468   C     0.16785   0.95738   0.24760   0.00000  Uiso   1.00
C469   C     0.31844   0.80146   0.22898   0.00000  Uiso   1.00
C470   C     0.01489   0.86519   0.27104   0.00000  Uiso   1.00
C471   C     0.03275   0.80160   0.22937   0.00000  Uiso   1.00
C472   C     0.30058   0.86506   0.27064   0.00000  Uiso   1.00
H473   H     0.05810   0.77650   0.21248   0.00000  Uiso   1.00
H474   H     0.27524   0.89016   0.28754   0.00000  Uiso   1.00
N475   N     0.04759   0.83334   0.25001   0.00000  Uiso   1.00
N476   N     0.28574   0.83332   0.24999   0.00000  Uiso   1.00
H477   H     0.05081   0.77068   0.04447   0.00000  Uiso   1.00
H478   H     0.29859   0.84364   0.44407   0.00000  Uiso   1.00
N479   N     0.20290   0.70766   0.31193   0.00000  Uiso   1.00
O480   O     0.17728   0.73761   0.33900   0.00000  Uiso   1.00
O481   O     0.23993   0.69228   0.31936   0.00000  Uiso   1.00
N482   N     0.13052   0.95900   0.18800   0.00000  Uiso   1.00
O483   O     0.15604   0.92890   0.16111   0.00000  Uiso   1.00
O484   O     0.09361   0.97445   0.18042   0.00000  Uiso   1.00
N485   N     0.30537   0.76776   0.20576   0.00000  Uiso   1.00
O486   O     0.31424   0.72946   0.21417   0.00000  Uiso   1.00
O487   O     0.29574   0.77528   0.16906   0.00000  Uiso   1.00
N488   N     0.02795   0.89886   0.29430   0.00000  Uiso   1.00
O489   O     0.01910   0.93718   0.28591   0.00000  Uiso   1.00
O490   O     0.03756   0.89130   0.33100   0.00000  Uiso   1.00
O491   O     0.46179   0.89442   0.25001   0.00000  Uiso   1.00
O492   O     0.53821   0.77225   0.25000   0.00000  Uiso   1.00
O493   O     0.53823   0.89441   0.25000   0.00000  Uiso   1.00
O494   O     0.46177   0.77226   0.25000   0.00000  Uiso   1.00
C495   C     0.50049   0.91322   0.24872   0.00000  Uiso   1.00
C496   C     0.49951   0.75345   0.25129   0.00000  Uiso   1.00
O497   O     0.43994   0.83334   0.31613   0.00000  Uiso   1.00
O498   O     0.56006   0.83333   0.18388   0.00000  Uiso   1.00
O499   O     0.51639   0.83333   0.31612   0.00000  Uiso   1.00
O500   O     0.48361   0.83334   0.18388   0.00000  Uiso   1.00
C501   C     0.46936   0.83317   0.33807   0.00000  Uiso   1.00
C502   C     0.53066   0.83254   0.16194   0.00000  Uiso   1.00
Zn503  Zn    0.44896   0.83334   0.25000   0.00000  Uiso   1.00
Zn504  Zn    0.55104   0.83333   0.25000   0.00000  Uiso   1.00
C505   C     0.45083   0.82724   0.38852   0.00000  Uiso   1.00
C506   C     0.55011   0.82951   0.11105   0.00000  Uiso   1.00
C507   C     0.39488   0.79486   0.45893   0.00000  Uiso   1.00
C508   C     0.61370   0.84036   0.03496   0.00000  Uiso   1.00
C509   C     0.40596   0.80806   0.41315   0.00000  Uiso   1.00
C510   C     0.59847   0.83973   0.08345   0.00000  Uiso   1.00
C511   C     0.48339   0.83434   0.41018   0.00000  Uiso   1.00
C512   C     0.51819   0.81742   0.09008   0.00000  Uiso   1.00
C513   C     0.47537   0.81761   0.45391   0.00000  Uiso   1.00
C514   C     0.53253   0.81765   0.04161   0.00000  Uiso   1.00
C515   C     0.42941   0.79930   0.47941   0.00000  Uiso   1.00
C516   C     0.58073   0.83055   0.01394   0.00000  Uiso   1.00
C517   C     0.51178   0.81915   0.47291   0.00000  Uiso   1.00
C518   C     0.49888   0.80877   0.02044   0.00000  Uiso   1.00
C519   C     0.45271   0.79034   0.04518   0.00000  Uiso   1.00
C520   C     0.56088   0.82986   0.44566   0.00000  Uiso   1.00
C521   C     0.41890   0.78522   0.02463   0.00000  Uiso   1.00
C522   C     0.59490   0.83480   0.46589   0.00000  Uiso   1.00
H523   H     0.48110   0.81033   0.11250   0.00000  Uiso   1.00
H524   H     0.51573   0.85228   0.39152   0.00000  Uiso   1.00
H525   H     0.62374   0.84878   0.09931   0.00000  Uiso   1.00
H526   H     0.38049   0.80195   0.39660   0.00000  Uiso   1.00
H527   H     0.36010   0.77995   0.47773   0.00000  Uiso   1.00
H528   H     0.65059   0.85015   0.01405   0.00000  Uiso   1.00
H529   H     0.44227   0.77813   0.08002   0.00000  Uiso   1.00
H530   H     0.57441   0.83362   0.40824   0.00000  Uiso   1.00
C531   C     0.52068   0.97763   0.27642   0.00000  Uiso   1.00
C532   C     0.47937   0.68904   0.22355   0.00000  Uiso   1.00
H533   H     0.53515   0.95984   0.29795   0.00000  Uiso   1.00
H534   H     0.46491   0.70683   0.20201   0.00000  Uiso   1.00
C535   C     0.51919   0.68725   0.27965   0.00000  Uiso   1.00
C536   C     0.48086   0.97941   0.22031   0.00000  Uiso   1.00
C537   C     0.49883   0.70929   0.25239   0.00000  Uiso   1.00
C538   C     0.50119   0.95738   0.24760   0.00000  Uiso   1.00
C539   C     0.65177   0.80146   0.22898   0.00000  Uiso   1.00
C540   C     0.34822   0.86519   0.27104   0.00000  Uiso   1.00
C541   C     0.36608   0.80160   0.22937   0.00000  Uiso   1.00
C542   C     0.63391   0.86506   0.27064   0.00000  Uiso   1.00
H543   H     0.39143   0.77650   0.21248   0.00000  Uiso   1.00
H544   H     0.60857   0.89016   0.28754   0.00000  Uiso   1.00
N545   N     0.38093   0.83334   0.25001   0.00000  Uiso   1.00
N546   N     0.61907   0.83332   0.24999   0.00000  Uiso   1.00
H547   H     0.38414   0.77068   0.04447   0.00000  Uiso   1.00
H548   H     0.63192   0.84364   0.44407   0.00000  Uiso   1.00
N549   N     0.53624   0.70766   0.31193   0.00000  Uiso   1.00
O550   O     0.51061   0.73761   0.33900   0.00000  Uiso   1.00
O551   O     0.57327   0.69228   0.31936   0.00000  Uiso   1.00
N552   N     0.46385   0.95900   0.18800   0.00000  Uiso   1.00
O553   O     0.48937   0.92890   0.16111   0.00000  Uiso   1.00
O554   O     0.42694   0.97445   0.18042   0.00000  Uiso   1.00
N555   N     0.63870   0.76776   0.20576   0.00000  Uiso   1.00
O556   O     0.64758   0.72946   0.21417   0.00000  Uiso   1.00
O557   O     0.62908   0.77528   0.16906   0.00000  Uiso   1.00
N558   N     0.36128   0.89886   0.29430   0.00000  Uiso   1.00
O559   O     0.35243   0.93718   0.28591   0.00000  Uiso   1.00
O560   O     0.37089   0.89130   0.33100   0.00000  Uiso   1.00
O561   O     0.79512   0.89442   0.25001   0.00000  Uiso   1.00
O562   O     0.87154   0.77225   0.25000   0.00000  Uiso   1.00
O563   O     0.87157   0.89441   0.25000   0.00000  Uiso   1.00
O564   O     0.79510   0.77226   0.25000   0.00000  Uiso   1.00
C565   C     0.83383   0.91322   0.24872   0.00000  Uiso   1.00
C566   C     0.83284   0.75345   0.25129   0.00000  Uiso   1.00
O567   O     0.77328   0.83334   0.31613   0.00000  Uiso   1.00
O568   O     0.89339   0.83333   0.18388   0.00000  Uiso   1.00
O569   O     0.84972   0.83333   0.31612   0.00000  Uiso   1.00
O570   O     0.81695   0.83334   0.18388   0.00000  Uiso   1.00
C571   C     0.80269   0.83317   0.33807   0.00000  Uiso   1.00
C572   C     0.86400   0.83254   0.16194   0.00000  Uiso   1.00
Zn573  Zn    0.78229   0.83334   0.25000   0.00000  Uiso   1.00
Zn574  Zn    0.88438   0.83333   0.25000   0.00000  Uiso   1.00
C575   C     0.78416   0.82724   0.38852   0.00000  Uiso   1.00
C576   C     0.88344   0.82951   0.11105   0.00000  Uiso   1.00
C577   C     0.72821   0.79486   0.45893   0.00000  Uiso   1.00
C578   C     0.94703   0.84036   0.03496   0.00000  Uiso   1.00
C579   C     0.73929   0.80806   0.41315   0.00000  Uiso   1.00
C580   C     0.93180   0.83973   0.08345   0.00000  Uiso   1.00
C581   C     0.81672   0.83434   0.41018   0.00000  Uiso   1.00
C582   C     0.85152   0.81742   0.09008   0.00000  Uiso   1.00
C583   C     0.80871   0.81761   0.45391   0.00000  Uiso   1.00
C584   C     0.86586   0.81765   0.04161   0.00000  Uiso   1.00
C585   C     0.76275   0.79930   0.47941   0.00000  Uiso   1.00
C586   C     0.91407   0.83055   0.01394   0.00000  Uiso   1.00
C587   C     0.84511   0.81915   0.47291   0.00000  Uiso   1.00
C588   C     0.83221   0.80877   0.02044   0.00000  Uiso   1.00
C589   C     0.78604   0.79034   0.04518   0.00000  Uiso   1.00
C590   C     0.89421   0.82986   0.44566   0.00000  Uiso   1.00
C591   C     0.75223   0.78522   0.02463   0.00000  Uiso   1.00
C592   C     0.92823   0.83480   0.46589   0.00000  Uiso   1.00
H593   H     0.81443   0.81033   0.11250   0.00000  Uiso   1.00
H594   H     0.84906   0.85228   0.39152   0.00000  Uiso   1.00
H595   H     0.95707   0.84878   0.09931   0.00000  Uiso   1.00
H596   H     0.71382   0.80195   0.39660   0.00000  Uiso   1.00
H597   H     0.69343   0.77995   0.47773   0.00000  Uiso   1.00
H598   H     0.98392   0.85015   0.01405   0.00000  Uiso   1.00
H599   H     0.77561   0.77813   0.08002   0.00000  Uiso   1.00
H600   H     0.90774   0.83362   0.40824   0.00000  Uiso   1.00
C601   C     0.85401   0.97763   0.27642   0.00000  Uiso   1.00
C602   C     0.81270   0.68904   0.22355   0.00000  Uiso   1.00
H603   H     0.86848   0.95984   0.29795   0.00000  Uiso   1.00
H604   H     0.79824   0.70683   0.20201   0.00000  Uiso   1.00
C605   C     0.85252   0.68725   0.27965   0.00000  Uiso   1.00
C606   C     0.81419   0.97941   0.22031   0.00000  Uiso   1.00
C607   C     0.83217   0.70929   0.25239   0.00000  Uiso   1.00
C608   C     0.83452   0.95738   0.24760   0.00000  Uiso   1.00
C609   C     0.98510   0.80146   0.22898   0.00000  Uiso   1.00
C610   C     0.68156   0.86519   0.27104   0.00000  Uiso   1.00
C611   C     0.69942   0.80160   0.22937   0.00000  Uiso   1.00
C612   C     0.96725   0.86506   0.27064   0.00000  Uiso   1.00
H613   H     0.72476   0.77650   0.21248   0.00000  Uiso   1.00
H614   H     0.94190   0.89016   0.28754   0.00000  Uiso   1.00
N615   N     0.71426   0.83334   0.25001   0.00000  Uiso   1.00
N616   N     0.95241   0.83332   0.24999   0.00000  Uiso   1.00
H617   H     0.71747   0.77068   0.04447   0.00000  Uiso   1.00
H618   H     0.96526   0.84364   0.44407   0.00000  Uiso   1.00
N619   N     0.86957   0.70766   0.31193   0.00000  Uiso   1.00
O620   O     0.84394   0.73761   0.33900   0.00000  Uiso   1.00
O621   O     0.90660   0.69228   0.31936   0.00000  Uiso   1.00
N622   N     0.79719   0.95900   0.18800   0.00000  Uiso   1.00
O623   O     0.82270   0.92890   0.16111   0.00000  Uiso   1.00
O624   O     0.76028   0.97445   0.18042   0.00000  Uiso   1.00
N625   N     0.97204   0.76776   0.20576   0.00000  Uiso   1.00
O626   O     0.98091   0.72946   0.21417   0.00000  Uiso   1.00
O627   O     0.96241   0.77528   0.16906   0.00000  Uiso   1.00
N628   N     0.69461   0.89886   0.29430   0.00000  Uiso   1.00
O629   O     0.68577   0.93718   0.28591   0.00000  Uiso   1.00
O630   O     0.70423   0.89130   0.33100   0.00000  Uiso   1.00
O631   O     0.12846   0.22775   0.75001   0.00000  Uiso   1.00
O632   O     0.20488   0.10558   0.75000   0.00000  Uiso   1.00
O633   O     0.20490   0.22774   0.75000   0.00000  Uiso   1.00
O634   O     0.12843   0.10559   0.75000   0.00000  Uiso   1.00
C635   C     0.16716   0.24655   0.74872   0.00000  Uiso   1.00
C636   C     0.16617   0.08678   0.75129   0.00000  Uiso   1.00
O637   O     0.10661   0.16667   0.81613   0.00000  Uiso   1.00
O638   O     0.22672   0.16666   0.68388   0.00000  Uiso   1.00
O639   O     0.18305   0.16666   0.81612   0.00000  Uiso   1.00
O640   O     0.15028   0.16667   0.68388   0.00000  Uiso   1.00
C641   C     0.13603   0.16650   0.83807   0.00000  Uiso   1.00
C642   C     0.19733   0.16587   0.66194   0.00000  Uiso   1.00
Zn643  Zn    0.11562   0.16667   0.75000   0.00000  Uiso   1.00
Zn644  Zn    0.21771   0.16666   0.75000   0.00000  Uiso   1.00
C645   C     0.11749   0.16057   0.88852   0.00000  Uiso   1.00
C646   C     0.21677   0.16284   0.61105   0.00000  Uiso   1.00
C647   C     0.06155   0.12819   0.95893   0.00000  Uiso   1.00
C648   C     0.28037   0.17369   0.53496   0.00000  Uiso   1.00
C649   C     0.07262   0.14139   0.91315   0.00000  Uiso   1.00
C650   C     0.26513   0.17307   0.58345   0.00000  Uiso   1.00
C651   C     0.15005   0.16767   0.91018   0.00000  Uiso   1.00
C652   C     0.18486   0.15076   0.59008   0.00000  Uiso   1.00
C653   C     0.14204   0.15094   0.95391   0.00000  Uiso   1.00
C654   C     0.19919   0.15098   0.54161   0.00000  Uiso   1.00
C655   C     0.09608   0.13263   0.97941   0.00000  Uiso   1.00
C656   C     0.24740   0.16389   0.51394   0.00000  Uiso   1.00
C657   C     0.17845   0.15249   0.97291   0.00000  Uiso   1.00
C658   C     0.16555   0.14210   0.52044   0.00000  Uiso   1.00
C659   C     0.11937   0.12367   0.54518   0.00000  Uiso   1.00
C660   C     0.22755   0.16319   0.94566   0.00000  Uiso   1.00
C661   C     0.08557   0.11856   0.52463   0.00000  Uiso   1.00
C662   C     0.26156   0.16814   0.96589   0.00000  Uiso   1.00
H663   H     0.14776   0.14366   0.61250   0.00000  Uiso   1.00
H664   H     0.18240   0.18561   0.89152   0.00000  Uiso   1.00
H665   H     0.29041   0.18211   0.59931   0.00000  Uiso   1.00
H666   H     0.04715   0.13528   0.89660   0.00000  Uiso   1.00
H667   H     0.02677   0.11328   0.97773   0.00000  Uiso   1.00
H668   H     0.31726   0.18349   0.51405   0.00000  Uiso   1.00
H669   H     0.10894   0.11146   0.58002   0.00000  Uiso   1.00
H670   H     0.24107   0.16695   0.90824   0.00000  Uiso   1.00
C671   C     0.18734   0.31097   0.77642   0.00000  Uiso   1.00
C672   C     0.14603   0.02237   0.72355   0.00000  Uiso   1.00
H673   H     0.20181   0.29318   0.79795   0.00000  Uiso   1.00
H674   H     0.13157   0.04016   0.70201   0.00000  Uiso   1.00
C675   C     0.18586   0.02059   0.77965   0.00000  Uiso   1.00
C676   C     0.14753   0.31275   0.72031   0.00000  Uiso   1.00
C677   C     0.16550   0.04262   0.75239   0.00000  Uiso   1.00
C678   C     0.16785   0.29071   0.74760   0.00000  Uiso   1.00
C679   C     0.31844   0.13479   0.72898   0.00000  Uiso   1.00
C680   C     0.01489   0.19853   0.77104   0.00000  Uiso   1.00
C681   C     0.03275   0.13494   0.72937   0.00000  Uiso   1.00
C682   C     0.30058   0.19839   0.77064   0.00000  Uiso   1.00
H683   H     0.05810   0.10983   0.71248   0.00000  Uiso   1.00
H684   H     0.27524   0.22349   0.78754   0.00000  Uiso   1.00
N685   N     0.04759   0.16668   0.75001   0.00000  Uiso   1.00
N686   N     0.28574   0.16666   0.74999   0.00000  Uiso   1.00
H687   H     0.05081   0.10401   0.54447   0.00000  Uiso   1.00
H688   H     0.29859   0.17698   0.94407   0.00000  Uiso   1.00
N689   N     0.20290   0.04099   0.81193   0.00000  Uiso   1.00
O690   O     0.17728   0.07094   0.83900   0.00000  Uiso   1.00
O691   O     0.23993   0.02561   0.81936   0.00000  Uiso   1.00
N692   N     0.13052   0.29233   0.68800   0.00000  Uiso   1.00
O693   O     0.15604   0.26223   0.66111   0.00000  Uiso   1.00
O694   O     0.09361   0.30779   0.68042   0.00000  Uiso   1.00
N695   N     0.30537   0.10110   0.70576   0.00000  Uiso   1.00
O696   O     0.31424   0.06279   0.71417   0.00000  Uiso   1.00
O697   O     0.29574   0.10861   0.66906   0.00000  Uiso   1.00
N698   N     0.02795   0.23219   0.79430   0.00000  Uiso   1.00
O699   O     0.01910   0.27051   0.78591   0.00000  Uiso   1.00
O700   O     0.03756   0.22464   0.83100   0.00000  Uiso   1.00
O701   O     0.46179   0.22775   0.75001   0.00000  Uiso   1.00
O702   O     0.53821   0.10558   0.75000   0.00000  Uiso   1.00
O703   O     0.53823   0.22774   0.75000   0.00000  Uiso   1.00
O704   O     0.46177   0.10559   0.75000   0.00000  Uiso   1.00
C705   C     0.50049   0.24655   0.74872   0.00000  Uiso   1.00
C706   C     0.49951   0.08678   0.75129   0.00000  Uiso   1.00
O707   O     0.43994   0.16667   0.81613   0.00000  Uiso   1.00
O708   O     0.56006   0.16666   0.68388   0.00000  Uiso   1.00
O709   O     0.51639   0.16666   0.81612   0.00000  Uiso   1.00
O710   O     0.48361   0.16667   0.68388   0.00000  Uiso   1.00
C711   C     0.46936   0.16650   0.83807   0.00000  Uiso   1.00
C712   C     0.53066   0.16587   0.66194   0.00000  Uiso   1.00
Zn713  Zn    0.44896   0.16667   0.75000   0.00000  Uiso   1.00
Zn714  Zn    0.55104   0.16666   0.75000   0.00000  Uiso   1.00
C715   C     0.45083   0.16057   0.88852   0.00000  Uiso   1.00
C716   C     0.55011   0.16284   0.61105   0.00000  Uiso   1.00
C717   C     0.39488   0.12819   0.95893   0.00000  Uiso   1.00
C718   C     0.61370   0.17369   0.53496   0.00000  Uiso   1.00
C719   C     0.40596   0.14139   0.91315   0.00000  Uiso   1.00
C720   C     0.59847   0.17307   0.58345   0.00000  Uiso   1.00
C721   C     0.48339   0.16767   0.91018   0.00000  Uiso   1.00
C722   C     0.51819   0.15076   0.59008   0.00000  Uiso   1.00
C723   C     0.47537   0.15094   0.95391   0.00000  Uiso   1.00
C724   C     0.53253   0.15098   0.54161   0.00000  Uiso   1.00
C725   C     0.42941   0.13263   0.97941   0.00000  Uiso   1.00
C726   C     0.58073   0.16389   0.51394   0.00000  Uiso   1.00
C727   C     0.51178   0.15249   0.97291   0.00000  Uiso   1.00
C728   C     0.49888   0.14210   0.52044   0.00000  Uiso   1.00
C729   C     0.45271   0.12367   0.54518   0.00000  Uiso   1.00
C730   C     0.56088   0.16319   0.94566   0.00000  Uiso   1.00
C731   C     0.41890   0.11856   0.52463   0.00000  Uiso   1.00
C732   C     0.59490   0.16814   0.96589   0.00000  Uiso   1.00
H733   H     0.48110   0.14366   0.61250   0.00000  Uiso   1.00
H734   H     0.51573   0.18561   0.89152   0.00000  Uiso   1.00
H735   H     0.62374   0.18211   0.59931   0.00000  Uiso   1.00
H736   H     0.38049   0.13528   0.89660   0.00000  Uiso   1.00
H737   H     0.36010   0.11328   0.97773   0.00000  Uiso   1.00
H738   H     0.65059   0.18349   0.51405   0.00000  Uiso   1.00
H739   H     0.44227   0.11146   0.58002   0.00000  Uiso   1.00
H740   H     0.57441   0.16695   0.90824   0.00000  Uiso   1.00
C741   C     0.52068   0.31097   0.77642   0.00000  Uiso   1.00
C742   C     0.47937   0.02237   0.72355   0.00000  Uiso   1.00
H743   H     0.53515   0.29318   0.79795   0.00000  Uiso   1.00
H744   H     0.46491   0.04016   0.70201   0.00000  Uiso   1.00
C745   C     0.51919   0.02059   0.77965   0.00000  Uiso   1.00
C746   C     0.48086   0.31275   0.72031   0.00000  Uiso   1.00
C747   C     0.49883   0.04262   0.75239   0.00000  Uiso   1.00
C748   C     0.50119   0.29071   0.74760   0.00000  Uiso   1.00
C749   C     0.65177   0.13479   0.72898   0.00000  Uiso   1.00
C750   C     0.34822   0.19853   0.77104   0.00000  Uiso   1.00
C751   C     0.36608   0.13494   0.72937   0.00000  Uiso   1.00
C752   C     0.63391   0.19839   0.77064   0.00000  Uiso   1.00
H753   H     0.39143   0.10983   0.71248   0.00000  Uiso   1.00
H754   H     0.60857   0.22349   0.78754   0.00000  Uiso   1.00
N755   N     0.38093   0.16668   0.75001   0.00000  Uiso   1.00
N756   N     0.61907   0.16666   0.74999   0.00000  Uiso   1.00
H757   H     0.38414   0.10401   0.54447   0.00000  Uiso   1.00
H758   H     0.63192   0.17698   0.94407   0.00000  Uiso   1.00
N759   N     0.53624   0.04099   0.81193   0.00000  Uiso   1.00
O760   O     0.51061   0.07094   0.83900   0.00000  Uiso   1.00
O761   O     0.57327   0.02561   0.81936   0.00000  Uiso   1.00
N762   N     0.46385   0.29233   0.68800   0.00000  Uiso   1.00
O763   O     0.48937   0.26223   0.66111   0.00000  Uiso   1.00
O764   O     0.42694   0.30779   0.68042   0.00000  Uiso   1.00
N765   N     0.63870   0.10110   0.70576   0.00000  Uiso   1.00
O766   O     0.64758   0.06279   0.71417   0.00000  Uiso   1.00
O767   O     0.62908   0.10861   0.66906   0.00000  Uiso   1.00
N768   N     0.36128   0.23219   0.79430   0.00000  Uiso   1.00
O769   O     0.35243   0.27051   0.78591   0.00000  Uiso   1.00
O770   O     0.37089   0.22464   0.83100   0.00000  Uiso   1.00
O771   O     0.79512   0.22775   0.75001   0.00000  Uiso   1.00
O772   O     0.87154   0.10558   0.75000   0.00000  Uiso   1.00
O773   O     0.87157   0.22774   0.75000   0.00000  Uiso   1.00
O774   O     0.79510   0.10559   0.75000   0.00000  Uiso   1.00
C775   C     0.83383   0.24655   0.74872   0.00000  Uiso   1.00
C776   C     0.83284   0.08678   0.75129   0.00000  Uiso   1.00
O777   O     0.77328   0.16667   0.81613   0.00000  Uiso   1.00
O778   O     0.89339   0.16666   0.68388   0.00000  Uiso   1.00
O779   O     0.84972   0.16666   0.81612   0.00000  Uiso   1.00
O780   O     0.81695   0.16667   0.68388   0.00000  Uiso   1.00
C781   C     0.80269   0.16650   0.83807   0.00000  Uiso   1.00
C782   C     0.86400   0.16587   0.66194   0.00000  Uiso   1.00
Zn783  Zn    0.78229   0.16667   0.75000   0.00000  Uiso   1.00
Zn784  Zn    0.88438   0.16666   0.75000   0.00000  Uiso   1.00
C785   C     0.78416   0.16057   0.88852   0.00000  Uiso   1.00
C786   C     0.88344   0.16284   0.61105   0.00000  Uiso   1.00
C787   C     0.72821   0.12819   0.95893   0.00000  Uiso   1.00
C788   C     0.94703   0.17369   0.53496   0.00000  Uiso   1.00
C789   C     0.73929   0.14139   0.91315   0.00000  Uiso   1.00
C790   C     0.93180   0.17307   0.58345   0.00000  Uiso   1.00
C791   C     0.81672   0.16767   0.91018   0.00000  Uiso   1.00
C792   C     0.85152   0.15076   0.59008   0.00000  Uiso   1.00
C793   C     0.80871   0.15094   0.95391   0.00000  Uiso   1.00
C794   C     0.86586   0.15098   0.54161   0.00000  Uiso   1.00
C795   C     0.76275   0.13263   0.97941   0.00000  Uiso   1.00
C796   C     0.91407   0.16389   0.51394   0.00000  Uiso   1.00
C797   C     0.84511   0.15249   0.97291   0.00000  Uiso   1.00
C798   C     0.83221   0.14210   0.52044   0.00000  Uiso   1.00
C799   C     0.78604   0.12367   0.54518   0.00000  Uiso   1.00
C800   C     0.89421   0.16319   0.94566   0.00000  Uiso   1.00
C801   C     0.75223   0.11856   0.52463   0.00000  Uiso   1.00
C802   C     0.92823   0.16814   0.96589   0.00000  Uiso   1.00
H803   H     0.81443   0.14366   0.61250   0.00000  Uiso   1.00
H804   H     0.84906   0.18561   0.89152   0.00000  Uiso   1.00
H805   H     0.95707   0.18211   0.59931   0.00000  Uiso   1.00
H806   H     0.71382   0.13528   0.89660   0.00000  Uiso   1.00
H807   H     0.69343   0.11328   0.97773   0.00000  Uiso   1.00
H808   H     0.98392   0.18349   0.51405   0.00000  Uiso   1.00
H809   H     0.77561   0.11146   0.58002   0.00000  Uiso   1.00
H810   H     0.90774   0.16695   0.90824   0.00000  Uiso   1.00
C811   C     0.85401   0.31097   0.77642   0.00000  Uiso   1.00
C812   C     0.81270   0.02237   0.72355   0.00000  Uiso   1.00
H813   H     0.86848   0.29318   0.79795   0.00000  Uiso   1.00
H814   H     0.79824   0.04016   0.70201   0.00000  Uiso   1.00
C815   C     0.85252   0.02059   0.77965   0.00000  Uiso   1.00
C816   C     0.81419   0.31275   0.72031   0.00000  Uiso   1.00
C817   C     0.83217   0.04262   0.75239   0.00000  Uiso   1.00
C818   C     0.83452   0.29071   0.74760   0.00000  Uiso   1.00
C819   C     0.98510   0.13479   0.72898   0.00000  Uiso   1.00
C820   C     0.68156   0.19853   0.77104   0.00000  Uiso   1.00
C821   C     0.69942   0.13494   0.72937   0.00000  Uiso   1.00
C822   C     0.96725   0.19839   0.77064   0.00000  Uiso   1.00
H823   H     0.72476   0.10983   0.71248   0.00000  Uiso   1.00
H824   H     0.94190   0.22349   0.78754   0.00000  Uiso   1.00
N825   N     0.71426   0.16668   0.75001   0.00000  Uiso   1.00
N826   N     0.95241   0.16666   0.74999   0.00000  Uiso   1.00
H827   H     0.71747   0.10401   0.54447   0.00000  Uiso   1.00
H828   H     0.96526   0.17698   0.94407   0.00000  Uiso   1.00
N829   N     0.86957   0.04099   0.81193   0.00000  Uiso   1.00
O830   O     0.84394   0.07094   0.83900   0.00000  Uiso   1.00
O831   O     0.90660   0.02561   0.81936   0.00000  Uiso   1.00
N832   N     0.79719   0.29233   0.68800   0.00000  Uiso   1.00
O833   O     0.82270   0.26223   0.66111   0.00000  Uiso   1.00
O834   O     0.76028   0.30779   0.68042   0.00000  Uiso   1.00
N835   N     0.97204   0.10110   0.70576   0.00000  Uiso   1.00
O836   O     0.98091   0.06279   0.71417   0.00000  Uiso   1.00
O837   O     0.96241   0.10861   0.66906   0.00000  Uiso   1.00
N838   N     0.69461   0.23219   0.79430   0.00000  Uiso   1.00
O839   O     0.68577   0.27051   0.78591   0.00000  Uiso   1.00
O840   O     0.70423   0.22464   0.83100   0.00000  Uiso   1.00
O841   O     0.12846   0.56108   0.75001   0.00000  Uiso   1.00
O842   O     0.20488   0.43892   0.75000   0.00000  Uiso   1.00
O843   O     0.20490   0.56107   0.75000   0.00000  Uiso   1.00
O844   O     0.12843   0.43893   0.75000   0.00000  Uiso   1.00
C845   C     0.16716   0.57989   0.74872   0.00000  Uiso   1.00
C846   C     0.16617   0.42011   0.75129   0.00000  Uiso   1.00
O847   O     0.10661   0.50001   0.81613   0.00000  Uiso   1.00
O848   O     0.22672   0.49999   0.68388   0.00000  Uiso   1.00
O849   O     0.18305   0.50000   0.81612   0.00000  Uiso   1.00
O850   O     0.15028   0.50000   0.68388   0.00000  Uiso   1.00
C851   C     0.13603   0.49983   0.83807   0.00000  Uiso   1.00
C852   C     0.19733   0.49921   0.66194   0.00000  Uiso   1.00
Zn853  Zn    0.11562   0.50001   0.75000   0.00000  Uiso   1.00
Zn854  Zn    0.21771   0.49999   0.75000   0.00000  Uiso   1.00
C855   C     0.11749   0.49390   0.88852   0.00000  Uiso   1.00
C856   C     0.21677   0.49618   0.61105   0.00000  Uiso   1.00
C857   C     0.06155   0.46152   0.95893   0.00000  Uiso   1.00
C858   C     0.28037   0.50703   0.53496   0.00000  Uiso   1.00
C859   C     0.07262   0.47472   0.91315   0.00000  Uiso   1.00
C860   C     0.26513   0.50640   0.58345   0.00000  Uiso   1.00
C861   C     0.15005   0.50100   0.91018   0.00000  Uiso   1.00
C862   C     0.18486   0.48409   0.59008   0.00000  Uiso   1.00
C863   C     0.14204   0.48427   0.95391   0.00000  Uiso   1.00
C864   C     0.19919   0.48432   0.54161   0.00000  Uiso   1.00
C865   C     0.09608   0.46596   0.97941   0.00000  Uiso   1.00
C866   C     0.24740   0.49722   0.51394   0.00000  Uiso   1.00
C867   C     0.17845   0.48582   0.97291   0.00000  Uiso   1.00
C868   C     0.16555   0.47544   0.52044   0.00000  Uiso   1.00
C869   C     0.11937   0.45700   0.54518   0.00000  Uiso   1.00
C870   C     0.22755   0.49652   0.94566   0.00000  Uiso   1.00
C871   C     0.08557   0.45189   0.52463   0.00000  Uiso   1.00
C872   C     0.26156   0.50147   0.96589   0.00000  Uiso   1.00
H873   H     0.14776   0.47699   0.61250   0.00000  Uiso   1.00
H874   H     0.18240   0.51894   0.89152   0.00000  Uiso   1.00
H875   H     0.29041   0.51545   0.59931   0.00000  Uiso   1.00
H876   H     0.04715   0.46861   0.89660   0.00000  Uiso   1.00
H877   H     0.02677   0.44662   0.97773   0.00000  Uiso   1.00
H878   H     0.31726   0.51682   0.51405   0.00000  Uiso   1.00
H879   H     0.10894   0.44479   0.58002   0.00000  Uiso   1.00
H880   H     0.24107   0.50029   0.90824   0.00000  Uiso   1.00
C881   C     0.18734   0.64430   0.77642   0.00000  Uiso   1.00
C882   C     0.14603   0.35570   0.72355   0.00000  Uiso   1.00
H883   H     0.20181   0.62651   0.79795   0.00000  Uiso   1.00
H884   H     0.13157   0.37350   0.70201   0.00000  Uiso   1.00
C885   C     0.18586   0.35392   0.77965   0.00000  Uiso   1.00
C886   C     0.14753   0.64608   0.72031   0.00000  Uiso   1.00
C887   C     0.16550   0.37596   0.75239   0.00000  Uiso   1.00
C888   C     0.16785   0.62405   0.74760   0.00000  Uiso   1.00
C889   C     0.31844   0.46813   0.72898   0.00000  Uiso   1.00
C890   C     0.01489   0.53186   0.77104   0.00000  Uiso   1.00
C891   C     0.03275   0.46827   0.72937   0.00000  Uiso   1.00
C892   C     0.30058   0.53172   0.77064   0.00000  Uiso   1.00
H893   H     0.05810   0.44317   0.71248   0.00000  Uiso   1.00
H894   H     0.27524   0.55683   0.78754   0.00000  Uiso   1.00
N895   N     0.04759   0.50001   0.75001   0.00000  Uiso   1.00
N896   N     0.28574   0.49999   0.74999   0.00000  Uiso   1.00
H897   H     0.05081   0.43734   0.54447   0.00000  Uiso   1.00
H898   H     0.29859   0.51031   0.94407   0.00000  Uiso   1.00
N899   N     0.20290   0.37433   0.81193   0.00000  Uiso   1.00
O900   O     0.17728   0.40428   0.83900   0.00000  Uiso   1.00
O901   O     0.23993   0.35894   0.81936   0.00000  Uiso   1.00
N902   N     0.13052   0.62567   0.68800   0.00000  Uiso   1.00
O903   O     0.15604   0.59556   0.66111   0.00000  Uiso   1.00
O904   O     0.09361   0.64112   0.68042   0.00000  Uiso   1.00
N905   N     0.30537   0.43443   0.70576   0.00000  Uiso   1.00
O906   O     0.31424   0.39613   0.71417   0.00000  Uiso   1.00
O907   O     0.29574   0.44194   0.66906   0.00000  Uiso   1.00
N908   N     0.02795   0.56553   0.79430   0.00000  Uiso   1.00
O909   O     0.01910   0.60385   0.78591   0.00000  Uiso   1.00
O910   O     0.03756   0.55797   0.83100   0.00000  Uiso   1.00
O911   O     0.46179   0.56108   0.75001   0.00000  Uiso   1.00
O912   O     0.53821   0.43892   0.75000   0.00000  Uiso   1.00
O913   O     0.53823   0.56107   0.75000   0.00000  Uiso   1.00
O914   O     0.46177   0.43893   0.75000   0.00000  Uiso   1.00
C915   C     0.50049   0.57989   0.74872   0.00000  Uiso   1.00
C916   C     0.49951   0.42011   0.75129   0.00000  Uiso   1.00
O917   O     0.43994   0.50001   0.81613   0.00000  Uiso   1.00
O918   O     0.56006   0.49999   0.68388   0.00000  Uiso   1.00
O919   O     0.51639   0.50000   0.81612   0.00000  Uiso   1.00
O920   O     0.48361   0.50000   0.68388   0.00000  Uiso   1.00
C921   C     0.46936   0.49983   0.83807   0.00000  Uiso   1.00
C922   C     0.53066   0.49921   0.66194   0.00000  Uiso   1.00
Zn923  Zn    0.44896   0.50001   0.75000   0.00000  Uiso   1.00
Zn924  Zn    0.55104   0.49999   0.75000   0.00000  Uiso   1.00
C925   C     0.45083   0.49390   0.88852   0.00000  Uiso   1.00
C926   C     0.55011   0.49618   0.61105   0.00000  Uiso   1.00
C927   C     0.39488   0.46152   0.95893   0.00000  Uiso   1.00
C928   C     0.61370   0.50703   0.53496   0.00000  Uiso   1.00
C929   C     0.40596   0.47472   0.91315   0.00000  Uiso   1.00
C930   C     0.59847   0.50640   0.58345   0.00000  Uiso   1.00
C931   C     0.48339   0.50100   0.91018   0.00000  Uiso   1.00
C932   C     0.51819   0.48409   0.59008   0.00000  Uiso   1.00
C933   C     0.47537   0.48427   0.95391   0.00000  Uiso   1.00
C934   C     0.53253   0.48432   0.54161   0.00000  Uiso   1.00
C935   C     0.42941   0.46596   0.97941   0.00000  Uiso   1.00
C936   C     0.58073   0.49722   0.51394   0.00000  Uiso   1.00
C937   C     0.51178   0.48582   0.97291   0.00000  Uiso   1.00
C938   C     0.49888   0.47544   0.52044   0.00000  Uiso   1.00
C939   C     0.45271   0.45700   0.54518   0.00000  Uiso   1.00
C940   C     0.56088   0.49652   0.94566   0.00000  Uiso   1.00
C941   C     0.41890   0.45189   0.52463   0.00000  Uiso   1.00
C942   C     0.59490   0.50147   0.96589   0.00000  Uiso   1.00
H943   H     0.48110   0.47699   0.61250   0.00000  Uiso   1.00
H944   H     0.51573   0.51894   0.89152   0.00000  Uiso   1.00
H945   H     0.62374   0.51545   0.59931   0.00000  Uiso   1.00
H946   H     0.38049   0.46861   0.89660   0.00000  Uiso   1.00
H947   H     0.36010   0.44662   0.97773   0.00000  Uiso   1.00
H948   H     0.65059   0.51682   0.51405   0.00000  Uiso   1.00
H949   H     0.44227   0.44479   0.58002   0.00000  Uiso   1.00
H950   H     0.57441   0.50029   0.90824   0.00000  Uiso   1.00
C951   C     0.52068   0.64430   0.77642   0.00000  Uiso   1.00
C952   C     0.47937   0.35570   0.72355   0.00000  Uiso   1.00
H953   H     0.53515   0.62651   0.79795   0.00000  Uiso   1.00
H954   H     0.46491   0.37350   0.70201   0.00000  Uiso   1.00
C955   C     0.51919   0.35392   0.77965   0.00000  Uiso   1.00
C956   C     0.48086   0.64608   0.72031   0.00000  Uiso   1.00
C957   C     0.49883   0.37596   0.75239   0.00000  Uiso   1.00
C958   C     0.50119   0.62405   0.74760   0.00000  Uiso   1.00
C959   C     0.65177   0.46813   0.72898   0.00000  Uiso   1.00
C960   C     0.34822   0.53186   0.77104   0.00000  Uiso   1.00
C961   C     0.36608   0.46827   0.72937   0.00000  Uiso   1.00
C962   C     0.63391   0.53172   0.77064   0.00000  Uiso   1.00
H963   H     0.39143   0.44317   0.71248   0.00000  Uiso   1.00
H964   H     0.60857   0.55683   0.78754   0.00000  Uiso   1.00
N965   N     0.38093   0.50001   0.75001   0.00000  Uiso   1.00
N966   N     0.61907   0.49999   0.74999   0.00000  Uiso   1.00
H967   H     0.38414   0.43734   0.54447   0.00000  Uiso   1.00
H968   H     0.63192   0.51031   0.94407   0.00000  Uiso   1.00
N969   N     0.53624   0.37433   0.81193   0.00000  Uiso   1.00
O970   O     0.51061   0.40428   0.83900   0.00000  Uiso   1.00
O971   O     0.57327   0.35894   0.81936   0.00000  Uiso   1.00
N972   N     0.46385   0.62567   0.68800   0.00000  Uiso   1.00
O973   O     0.48937   0.59556   0.66111   0.00000  Uiso   1.00
O974   O     0.42694   0.64112   0.68042   0.00000  Uiso   1.00
N975   N     0.63870   0.43443   0.70576   0.00000  Uiso   1.00
O976   O     0.64758   0.39613   0.71417   0.00000  Uiso   1.00
O977   O     0.62908   0.44194   0.66906   0.00000  Uiso   1.00
N978   N     0.36128   0.56553   0.79430   0.00000  Uiso   1.00
O979   O     0.35243   0.60385   0.78591   0.00000  Uiso   1.00
O980   O     0.37089   0.55797   0.83100   0.00000  Uiso   1.00
O981   O     0.79512   0.56108   0.75001   0.00000  Uiso   1.00
O982   O     0.87154   0.43892   0.75000   0.00000  Uiso   1.00
O983   O     0.87157   0.56107   0.75000   0.00000  Uiso   1.00
O984   O     0.79510   0.43893   0.75000   0.00000  Uiso   1.00
C985   C     0.83383   0.57989   0.74872   0.00000  Uiso   1.00
C986   C     0.83284   0.42011   0.75129   0.00000  Uiso   1.00
O987   O     0.77328   0.50001   0.81613   0.00000  Uiso   1.00
O988   O     0.89339   0.49999   0.68388   0.00000  Uiso   1.00
O989   O     0.84972   0.50000   0.81612   0.00000  Uiso   1.00
O990   O     0.81695   0.50000   0.68388   0.00000  Uiso   1.00
C991   C     0.80269   0.49983   0.83807   0.00000  Uiso   1.00
C992   C     0.86400   0.49921   0.66194   0.00000  Uiso   1.00
Zn993  Zn    0.78229   0.50001   0.75000   0.00000  Uiso   1.00
Zn994  Zn    0.88438   0.49999   0.75000   0.00000  Uiso   1.00
C995   C     0.78416   0.49390   0.88852   0.00000  Uiso   1.00
C996   C     0.88344   0.49618   0.61105   0.00000  Uiso   1.00
C997   C     0.72821   0.46152   0.95893   0.00000  Uiso   1.00
C998   C     0.94703   0.50703   0.53496   0.00000  Uiso   1.00
C999   C     0.73929   0.47472   0.91315   0.00000  Uiso   1.00
C1000  C     0.93180   0.50640   0.58345   0.00000  Uiso   1.00
C1001  C     0.81672   0.50100   0.91018   0.00000  Uiso   1.00
C1002  C     0.85152   0.48409   0.59008   0.00000  Uiso   1.00
C1003  C     0.80871   0.48427   0.95391   0.00000  Uiso   1.00
C1004  C     0.86586   0.48432   0.54161   0.00000  Uiso   1.00
C1005  C     0.76275   0.46596   0.97941   0.00000  Uiso   1.00
C1006  C     0.91407   0.49722   0.51394   0.00000  Uiso   1.00
C1007  C     0.84511   0.48582   0.97291   0.00000  Uiso   1.00
C1008  C     0.83221   0.47544   0.52044   0.00000  Uiso   1.00
C1009  C     0.78604   0.45700   0.54518   0.00000  Uiso   1.00
C1010  C     0.89421   0.49652   0.94566   0.00000  Uiso   1.00
C1011  C     0.75223   0.45189   0.52463   0.00000  Uiso   1.00
C1012  C     0.92823   0.50147   0.96589   0.00000  Uiso   1.00
H1013  H     0.81443   0.47699   0.61250   0.00000  Uiso   1.00
H1014  H     0.84906   0.51894   0.89152   0.00000  Uiso   1.00
H1015  H     0.95707   0.51545   0.59931   0.00000  Uiso   1.00
H1016  H     0.71382   0.46861   0.89660   0.00000  Uiso   1.00
H1017  H     0.69343   0.44662   0.97773   0.00000  Uiso   1.00
H1018  H     0.98392   0.51682   0.51405   0.00000  Uiso   1.00
H1019  H     0.77561   0.44479   0.58002   0.00000  Uiso   1.00
H1020  H     0.90774   0.50029   0.90824   0.00000  Uiso   1.00
C1021  C     0.85401   0.64430   0.77642   0.00000  Uiso   1.00
C1022  C     0.81270   0.35570   0.72355   0.00000  Uiso   1.00
H1023  H     0.86848   0.62651   0.79795   0.00000  Uiso   1.00
H1024  H     0.79824   0.37350   0.70201   0.00000  Uiso   1.00
C1025  C     0.85252   0.35392   0.77965   0.00000  Uiso   1.00
C1026  C     0.81419   0.64608   0.72031   0.00000  Uiso   1.00
C1027  C     0.83217   0.37596   0.75239   0.00000  Uiso   1.00
C1028  C     0.83452   0.62405   0.74760   0.00000  Uiso   1.00
C1029  C     0.98510   0.46813   0.72898   0.00000  Uiso   1.00
C1030  C     0.68156   0.53186   0.77104   0.00000  Uiso   1.00
C1031  C     0.69942   0.46827   0.72937   0.00000  Uiso   1.00
C1032  C     0.96725   0.53172   0.77064   0.00000  Uiso   1.00
H1033  H     0.72476   0.44317   0.71248   0.00000  Uiso   1.00
H1034  H     0.94190   0.55683   0.78754   0.00000  Uiso   1.00
N1035  N     0.71426   0.50001   0.75001   0.00000  Uiso   1.00
N1036  N     0.95241   0.49999   0.74999   0.00000  Uiso   1.00
H1037  H     0.71747   0.43734   0.54447   0.00000  Uiso   1.00
H1038  H     0.96526   0.51031   0.94407   0.00000  Uiso   1.00
N1039  N     0.86957   0.37433   0.81193   0.00000  Uiso   1.00
O1040  O     0.84394   0.40428   0.83900   0.00000  Uiso   1.00
O1041  O     0.90660   0.35894   0.81936   0.00000  Uiso   1.00
N1042  N     0.79719   0.62567   0.68800   0.00000  Uiso   1.00
O1043  O     0.82270   0.59556   0.66111   0.00000  Uiso   1.00
O1044  O     0.76028   0.64112   0.68042   0.00000  Uiso   1.00
N1045  N     0.97204   0.43443   0.70576   0.00000  Uiso   1.00
O1046  O     0.98091   0.39613   0.71417   0.00000  Uiso   1.00
O1047  O     0.96241   0.44194   0.66906   0.00000  Uiso   1.00
N1048  N     0.69461   0.56553   0.79430   0.00000  Uiso   1.00
O1049  O     0.68577   0.60385   0.78591   0.00000  Uiso   1.00
O1050  O     0.70423   0.55797   0.83100   0.00000  Uiso   1.00
O1051  O     0.12846   0.89442   0.75001   0.00000  Uiso   1.00
O1052  O     0.20488   0.77225   0.75000   0.00000  Uiso   1.00
O1053  O     0.20490   0.89441   0.75000   0.00000  Uiso   1.00
O1054  O     0.12843   0.77226   0.75000   0.00000  Uiso   1.00
C1055  C     0.16716   0.91322   0.74872   0.00000  Uiso   1.00
C1056  C     0.16617   0.75345   0.75129   0.00000  Uiso   1.00
O1057  O     0.10661   0.83334   0.81613   0.00000  Uiso   1.00
O1058  O     0.22672   0.83333   0.68388   0.00000  Uiso   1.00
O1059  O     0.18305   0.83333   0.81612   0.00000  Uiso   1.00
O1060  O     0.15028   0.83334   0.68388   0.00000  Uiso   1.00
C1061  C     0.13603   0.83317   0.83807   0.00000  Uiso   1.00
C1062  C     0.19733   0.83254   0.66194   0.00000  Uiso   1.00
Zn1063 Zn    0.11562   0.83334   0.75000   0.00000  Uiso   1.00
Zn1064 Zn    0.21771   0.83333   0.75000   0.00000  Uiso   1.00
C1065  C     0.11749   0.82724   0.88852   0.00000  Uiso   1.00
C1066  C     0.21677   0.82951   0.61105   0.00000  Uiso   1.00
C1067  C     0.06155   0.79486   0.95893   0.00000  Uiso   1.00
C1068  C     0.28037   0.84036   0.53496   0.00000  Uiso   1.00
C1069  C     0.07262   0.80806   0.91315   0.00000  Uiso   1.00
C1070  C     0.26513   0.83973   0.58345   0.00000  Uiso   1.00
C1071  C     0.15005   0.83434   0.91018   0.00000  Uiso   1.00
C1072  C     0.18486   0.81742   0.59008   0.00000  Uiso   1.00
C1073  C     0.14204   0.81761   0.95391   0.00000  Uiso   1.00
C1074  C     0.19919   0.81765   0.54161   0.00000  Uiso   1.00
C1075  C     0.09608   0.79930   0.97941   0.00000  Uiso   1.00
C1076  C     0.24740   0.83055   0.51394   0.00000  Uiso   1.00
C1077  C     0.17845   0.81915   0.97291   0.00000  Uiso   1.00
C1078  C     0.16555   0.80877   0.52044   0.00000  Uiso   1.00
C1079  C     0.11937   0.79034   0.54518   0.00000  Uiso   1.00
C1080  C     0.22755   0.82986   0.94566   0.00000  Uiso   1.00
C1081  C     0.08557   0.78522   0.52463   0.00000  Uiso   1.00
C1082  C     0.26156   0.83480   0.96589   0.00000  Uiso   1.00
H1083  H     0.14776   0.81033   0.61250   0.00000  Uiso   1.00
H1084  H     0.18240   0.85228   0.89152   0.00000  Uiso   1.00
H1085  H     0.29041   0.84878   0.59931   0.00000  Uiso   1.00
H1086  H     0.04715   0.80195   0.89660   0.00000  Uiso   1.00
H1087  H     0.02677   0.77995   0.97773   0.00000  Uiso   1.00
H1088  H     0.31726   0.85015   0.51405   0.00000  Uiso   1.00
H1089  H     0.10894   0.77813   0.58002   0.00000  Uiso   1.00
H1090  H     0.24107   0.83362   0.90824   0.00000  Uiso   1.00
C1091  C     0.18734   0.97763   0.77642   0.00000  Uiso   1.00
C1092  C     0.14603   0.68904   0.72355   0.00000  Uiso   1.00
H1093  H     0.20181   0.95984   0.79795   0.00000  Uiso   1.00
H1094  H     0.13157   0.70683   0.70201   0.00000  Uiso   1.00
C1095  C     0.18586   0.68725   0.77965   0.00000  Uiso   1.00
C1096  C     0.14753   0.97941   0.72031   0.00000  Uiso   1.00
C1097  C     0.16550   0.70929   0.75239   0.00000  Uiso   1.00
C1098  C     0.16785   0.95738   0.74760   0.00000  Uiso   1.00
C1099  C     0.31844   0.80146   0.72898   0.00000  Uiso   1.00
C1100  C     0.01489   0.86519   0.77104   0.00000  Uiso   1.00
C1101  C     0.03275   0.80160   0.72937   0.00000  Uiso   1.00
C1102  C     0.30058   0.86506   0.77064   0.00000  Uiso   1.00
H1103  H     0.05810   0.77650   0.71248   0.00000  Uiso   1.00
H1104  H     0.27524   0.89016   0.78754   0.00000  Uiso   1.00
N1105  N     0.04759   0.83334   0.75001   0.00000  Uiso   1.00
N1106  N     0.28574   0.83332   0.74999   0.00000  Uiso   1.00
H1107  H     0.05081   0.77068   0.54447   0.00000  Uiso   1.00
H1108  H     0.29859   0.84364   0.94407   0.00000  Uiso   1.00
N1109  N     0.20290   0.70766   0.81193   0.00000  Uiso   1.00
O1110  O     0.17728   0.73761   0.83900   0.00000  Uiso   1.00
O1111  O     0.23993   0.69228   0.81936   0.00000  Uiso   1.00
N1112  N     0.13052   0.95900   0.68800   0.00000  Uiso   1.00
O1113  O     0.15604   0.92890   0.66111   0.00000  Uiso   1.00
O1114  O     0.09361   0.97445   0.68042   0.00000  Uiso   1.00
N1115  N     0.30537   0.76776   0.70576   0.00000  Uiso   1.00
O1116  O     0.31424   0.72946   0.71417   0.00000  Uiso   1.00
O1117  O     0.29574   0.77528   0.66906   0.00000  Uiso   1.00
N1118  N     0.02795   0.89886   0.79430   0.00000  Uiso   1.00
O1119  O     0.01910   0.93718   0.78591   0.00000  Uiso   1.00
O1120  O     0.03756   0.89130   0.83100   0.00000  Uiso   1.00
O1121  O     0.46179   0.89442   0.75001   0.00000  Uiso   1.00
O1122  O     0.53821   0.77225   0.75000   0.00000  Uiso   1.00
O1123  O     0.53823   0.89441   0.75000   0.00000  Uiso   1.00
O1124  O     0.46177   0.77226   0.75000   0.00000  Uiso   1.00
C1125  C     0.50049   0.91322   0.74872   0.00000  Uiso   1.00
C1126  C     0.49951   0.75345   0.75129   0.00000  Uiso   1.00
O1127  O     0.43994   0.83334   0.81613   0.00000  Uiso   1.00
O1128  O     0.56006   0.83333   0.68388   0.00000  Uiso   1.00
O1129  O     0.51639   0.83333   0.81612   0.00000  Uiso   1.00
O1130  O     0.48361   0.83334   0.68388   0.00000  Uiso   1.00
C1131  C     0.46936   0.83317   0.83807   0.00000  Uiso   1.00
C1132  C     0.53066   0.83254   0.66194   0.00000  Uiso   1.00
Zn1133 Zn    0.44896   0.83334   0.75000   0.00000  Uiso   1.00
Zn1134 Zn    0.55104   0.83333   0.75000   0.00000  Uiso   1.00
C1135  C     0.45083   0.82724   0.88852   0.00000  Uiso   1.00
C1136  C     0.55011   0.82951   0.61105   0.00000  Uiso   1.00
C1137  C     0.39488   0.79486   0.95893   0.00000  Uiso   1.00
C1138  C     0.61370   0.84036   0.53496   0.00000  Uiso   1.00
C1139  C     0.40596   0.80806   0.91315   0.00000  Uiso   1.00
C1140  C     0.59847   0.83973   0.58345   0.00000  Uiso   1.00
C1141  C     0.48339   0.83434   0.91018   0.00000  Uiso   1.00
C1142  C     0.51819   0.81742   0.59008   0.00000  Uiso   1.00
C1143  C     0.47537   0.81761   0.95391   0.00000  Uiso   1.00
C1144  C     0.53253   0.81765   0.54161   0.00000  Uiso   1.00
C1145  C     0.42941   0.79930   0.97941   0.00000  Uiso   1.00
C1146  C     0.58073   0.83055   0.51394   0.00000  Uiso   1.00
C1147  C     0.51178   0.81915   0.97291   0.00000  Uiso   1.00
C1148  C     0.49888   0.80877   0.52044   0.00000  Uiso   1.00
C1149  C     0.45271   0.79034   0.54518   0.00000  Uiso   1.00
C1150  C     0.56088   0.82986   0.94566   0.00000  Uiso   1.00
C1151  C     0.41890   0.78522   0.52463   0.00000  Uiso   1.00
C1152  C     0.59490   0.83480   0.96589   0.00000  Uiso   1.00
H1153  H     0.48110   0.81033   0.61250   0.00000  Uiso   1.00
H1154  H     0.51573   0.85228   0.89152   0.00000  Uiso   1.00
H1155  H     0.62374   0.84878   0.59931   0.00000  Uiso   1.00
H1156  H     0.38049   0.80195   0.89660   0.00000  Uiso   1.00
H1157  H     0.36010   0.77995   0.97773   0.00000  Uiso   1.00
H1158  H     0.65059   0.85015   0.51405   0.00000  Uiso   1.00
H1159  H     0.44227   0.77813   0.58002   0.00000  Uiso   1.00
H1160  H     0.57441   0.83362   0.90824   0.00000  Uiso   1.00
C1161  C     0.52068   0.97763   0.77642   0.00000  Uiso   1.00
C1162  C     0.47937   0.68904   0.72355   0.00000  Uiso   1.00
H1163  H     0.53515   0.95984   0.79795   0.00000  Uiso   1.00
H1164  H     0.46491   0.70683   0.70201   0.00000  Uiso   1.00
C1165  C     0.51919   0.68725   0.77965   0.00000  Uiso   1.00
C1166  C     0.48086   0.97941   0.72031   0.00000  Uiso   1.00
C1167  C     0.49883   0.70929   0.75239   0.00000  Uiso   1.00
C1168  C     0.50119   0.95738   0.74760   0.00000  Uiso   1.00
C1169  C     0.65177   0.80146   0.72898   0.00000  Uiso   1.00
C1170  C     0.34822   0.86519   0.77104   0.00000  Uiso   1.00
C1171  C     0.36608   0.80160   0.72937   0.00000  Uiso   1.00
C1172  C     0.63391   0.86506   0.77064   0.00000  Uiso   1.00
H1173  H     0.39143   0.77650   0.71248   0.00000  Uiso   1.00
H1174  H     0.60857   0.89016   0.78754   0.00000  Uiso   1.00
N1175  N     0.38093   0.83334   0.75001   0.00000  Uiso   1.00
N1176  N     0.61907   0.83332   0.74999   0.00000  Uiso   1.00
H1177  H     0.38414   0.77068   0.54447   0.00000  Uiso   1.00
H1178  H     0.63192   0.84364   0.94407   0.00000  Uiso   1.00
N1179  N     0.53624   0.70766   0.81193   0.00000  Uiso   1.00
O1180  O     0.51061   0.73761   0.83900   0.00000  Uiso   1.00
O1181  O     0.57327   0.69228   0.81936   0.00000  Uiso   1.00
N1182  N     0.46385   0.95900   0.68800   0.00000  Uiso   1.00
O1183  O     0.48937   0.92890   0.66111   0.00000  Uiso   1.00
O1184  O     0.42694   0.97445   0.68042   0.00000  Uiso   1.00
N1185  N     0.63870   0.76776   0.70576   0.00000  Uiso   1.00
O1186  O     0.64758   0.72946   0.71417   0.00000  Uiso   1.00
O1187  O     0.62908   0.77528   0.66906   0.00000  Uiso   1.00
N1188  N     0.36128   0.89886   0.79430   0.00000  Uiso   1.00
O1189  O     0.35243   0.93718   0.78591   0.00000  Uiso   1.00
O1190  O     0.37089   0.89130   0.83100   0.00000  Uiso   1.00
O1191  O     0.79512   0.89442   0.75001   0.00000  Uiso   1.00
O1192  O     0.87154   0.77225   0.75000   0.00000  Uiso   1.00
O1193  O     0.87157   0.89441   0.75000   0.00000  Uiso   1.00
O1194  O     0.79510   0.77226   0.75000   0.00000  Uiso   1.00
C1195  C     0.83383   0.91322   0.74872   0.00000  Uiso   1.00
C1196  C     0.83284   0.75345   0.75129   0.00000  Uiso   1.00
O1197  O     0.77328   0.83334   0.81613   0.00000  Uiso   1.00
O1198  O     0.89339   0.83333   0.68388   0.00000  Uiso   1.00
O1199  O     0.84972   0.83333   0.81612   0.00000  Uiso   1.00
O1200  O     0.81695   0.83334   0.68388   0.00000  Uiso   1.00
C1201  C     0.80269   0.83317   0.83807   0.00000  Uiso   1.00
C1202  C     0.86400   0.83254   0.66194   0.00000  Uiso   1.00
Zn1203 Zn    0.78229   0.83334   0.75000   0.00000  Uiso   1.00
Zn1204 Zn    0.88438   0.83333   0.75000   0.00000  Uiso   1.00
C1205  C     0.78416   0.82724   0.88852   0.00000  Uiso   1.00
C1206  C     0.88344   0.82951   0.61105   0.00000  Uiso   1.00
C1207  C     0.72821   0.79486   0.95893   0.00000  Uiso   1.00
C1208  C     0.94703   0.84036   0.53496   0.00000  Uiso   1.00
C1209  C     0.73929   0.80806   0.91315   0.00000  Uiso   1.00
C1210  C     0.93180   0.83973   0.58345   0.00000  Uiso   1.00
C1211  C     0.81672   0.83434   0.91018   0.00000  Uiso   1.00
C1212  C     0.85152   0.81742   0.59008   0.00000  Uiso   1.00
C1213  C     0.80871   0.81761   0.95391   0.00000  Uiso   1.00
C1214  C     0.86586   0.81765   0.54161   0.00000  Uiso   1.00
C1215  C     0.76275   0.79930   0.97941   0.00000  Uiso   1.00
C1216  C     0.91407   0.83055   0.51394   0.00000  Uiso   1.00
C1217  C     0.84511   0.81915   0.97291   0.00000  Uiso   1.00
C1218  C     0.83221   0.80877   0.52044   0.00000  Uiso   1.00
C1219  C     0.78604   0.79034   0.54518   0.00000  Uiso   1.00
C1220  C     0.89421   0.82986   0.94566   0.00000  Uiso   1.00
C1221  C     0.75223   0.78522   0.52463   0.00000  Uiso   1.00
C1222  C     0.92823   0.83480   0.96589   0.00000  Uiso   1.00
H1223  H     0.81443   0.81033   0.61250   0.00000  Uiso   1.00
H1224  H     0.84906   0.85228   0.89152   0.00000  Uiso   1.00
H1225  H     0.95707   0.84878   0.59931   0.00000  Uiso   1.00
H1226  H     0.71382   0.80195   0.89660   0.00000  Uiso   1.00
H1227  H     0.69343   0.77995   0.97773   0.00000  Uiso   1.00
H1228  H     0.98392   0.85015   0.51405   0.00000  Uiso   1.00
H1229  H     0.77561   0.77813   0.58002   0.00000  Uiso   1.00
H1230  H     0.90774   0.83362   0.90824   0.00000  Uiso   1.00
C1231  C     0.85401   0.97763   0.77642   0.00000  Uiso   1.00
C1232  C     0.81270   0.68904   0.72355   0.00000  Uiso   1.00
H1233  H     0.86848   0.95984   0.79795   0.00000  Uiso   1.00
H1234  H     0.79824   0.70683   0.70201   0.00000  Uiso   1.00
C1235  C     0.85252   0.68725   0.77965   0.00000  Uiso   1.00
C1236  C     0.81419   0.97941   0.72031   0.00000  Uiso   1.00
C1237  C     0.83217   0.70929   0.75239   0.00000  Uiso   1.00
C1238  C     0.83452   0.95738   0.74760   0.00000  Uiso   1.00
C1239  C     0.98510   0.80146   0.72898   0.00000  Uiso   1.00
C1240  C     0.68156   0.86519   0.77104   0.00000  Uiso   1.00
C1241  C     0.69942   0.80160   0.72937   0.00000  Uiso   1.00
C1242  C     0.96725   0.86506   0.77064   0.00000  Uiso   1.00
H1243  H     0.72476   0.77650   0.71248   0.00000  Uiso   1.00
H1244  H     0.94190   0.89016   0.78754   0.00000  Uiso   1.00
N1245  N     0.71426   0.83334   0.75001   0.00000  Uiso   1.00
N1246  N     0.95241   0.83332   0.74999   0.00000  Uiso   1.00
H1247  H     0.71747   0.77068   0.54447   0.00000  Uiso   1.00
H1248  H     0.96526   0.84364   0.94407   0.00000  Uiso   1.00
N1249  N     0.86957   0.70766   0.81193   0.00000  Uiso   1.00
O1250  O     0.84394   0.73761   0.83900   0.00000  Uiso   1.00
O1251  O     0.90660   0.69228   0.81936   0.00000  Uiso   1.00
N1252  N     0.79719   0.95900   0.68800   0.00000  Uiso   1.00
O1253  O     0.82270   0.92890   0.66111   0.00000  Uiso   1.00
O1254  O     0.76028   0.97445   0.68042   0.00000  Uiso   1.00
N1255  N     0.97204   0.76776   0.70576   0.00000  Uiso   1.00
O1256  O     0.98091   0.72946   0.71417   0.00000  Uiso   1.00
O1257  O     0.96241   0.77528   0.66906   0.00000  Uiso   1.00
N1258  N     0.69461   0.89886   0.79430   0.00000  Uiso   1.00
O1259  O     0.68577   0.93718   0.78591   0.00000  Uiso   1.00
O1260  O     0.70423   0.89130   0.83100   0.00000  Uiso   1.00
loop_
_geom_bond_atom_site_label_1
_geom_bond_atom_site_label_2
_geom_bond_distance
_geom_bond_site_symmetry_2
_ccdc_geom_bond_type
O1     C5      1.285   .     A
O1     Zn13    1.992   .     S
O2     C6      1.285   .     A
O2     Zn14    1.992   .     S
O3     C5      1.283   .     A
O3     Zn14    1.989   .     S
O4     C6      1.283   .     A
O4     Zn13    1.989   .     S
C5     C48     1.413   .     S
C6     C47     1.413   .     S
O7     C11     1.298   .     A
O7     Zn13    1.963   .     S
O8     C12     1.297   .     A
O8     Zn14    1.963   .     S
O9     Zn14    1.906   .     S
O9     C11     1.295   .     A
O10    C12     1.295   .     A
O10    Zn13    1.906   .     S
C11    C15     1.458   .     S
C12    C16     1.459   .     S
Zn13   N55     2.018   .     S
Zn14   N56     2.018   .     S
C15    C21     1.392   .     A
C15    C19     1.399   .     A
C16    C20     1.399   .     A
C16    C22     1.395   .     A
C17    C25     1.406   .     A
C17    H37     1.084   .     S
C17    C19     1.396   .     A
C18    C26     1.404   .     A
C18    H38     1.083   .     S
C18    C20     1.393   .     A
C19    H36     1.083   .     S
C20    H35     1.083   .     S
C21    C23     1.393   .     A
C21    H34     1.079   .     S
C22    C24     1.395   .     A
C22    H33     1.076   .     S
C23    C27     1.417   .     A
C23    C25     1.416   .     A
C24    C26     1.419   .     A
C24    C28     1.419   .     A
C25    C661    1.392   .     S
C26    C662    1.391   1_554 S
C27    C30     1.418   .     A
C27    C658    1.414   .     S
C28    C29     1.419   .     A
C28    C657    1.414   1_554 S
C29    C31     1.390   .     A
C29    H39     1.078   .     S
C30    H40     1.079   .     S
C30    C32     1.388   .     A
C31    H57     1.084   .     S
C31    C655    1.392   1_554 S
C32    H58     1.084   .     S
C32    C656    1.391   .     S
C41    H43     1.085   .     S
C41    C48     1.396   .     A
C41    C255    1.377   .     S
C42    H44     1.085   .     S
C42    C47     1.396   .     A
C42    C466    1.377   1_545 S
C45    C47     1.405   .     A
C45    N59     1.439   .     S
C45    C461    1.377   1_545 S
C46    N62     1.439   .     S
C46    C48     1.405   .     A
C46    C252    1.377   .     S
C49    N56     1.379   .     A
C49    N65     1.429   .     S
C49    C121    1.418   .     S
C50    N55     1.379   .     A
C50    N68     1.429   .     S
C50    C192    1.418   1_455 S
C51    N55     1.360   .     A
C51    H53     1.082   .     S
C51    C189    1.418   1_455 S
C52    N56     1.360   .     A
C52    H54     1.082   .     S
C52    C120    1.418   .     S
N59    O60     1.301   .     A
N59    O61     1.302   .     A
N62    O63     1.301   .     A
N62    O64     1.302   .     A
N65    O66     1.301   .     A
N65    O67     1.299   .     A
N68    O70     1.299   .     A
N68    O69     1.301   .     A
O71    C75     1.285   .     A
O71    Zn83    1.992   .     S
O72    C76     1.285   .     A
O72    Zn84    1.992   .     S
O73    C75     1.283   .     A
O73    Zn84    1.989   .     S
O74    C76     1.283   .     A
O74    Zn83    1.989   .     S
C75    C118    1.413   .     S
C76    C117    1.413   .     S
O77    C81     1.298   .     A
O77    Zn83    1.963   .     S
O78    C82     1.297   .     A
O78    Zn84    1.963   .     S
O79    Zn84    1.906   .     S
O79    C81     1.295   .     A
O80    C82     1.295   .     A
O80    Zn83    1.906   .     S
C81    C85     1.458   .     S
C82    C86     1.459   .     S
Zn83   N125    2.018   .     S
Zn84   N126    2.018   .     S
C85    C91     1.392   .     A
C85    C89     1.399   .     A
C86    C90     1.399   .     A
C86    C92     1.395   .     A
C87    C95     1.406   .     A
C87    H107    1.084   .     S
C87    C89     1.396   .     A
C88    C96     1.404   .     A
C88    H108    1.083   .     S
C88    C90     1.393   .     A
C89    H106    1.083   .     S
C90    H105    1.083   .     S
C91    C93     1.393   .     A
C91    H104    1.079   .     S
C92    C94     1.395   .     A
C92    H103    1.076   .     S
C93    C97     1.417   .     A
C93    C95     1.416   .     A
C94    C96     1.419   .     A
C94    C98     1.419   .     A
C95    C731    1.392   .     S
C96    C732    1.391   1_554 S
C97    C100    1.418   .     A
C97    C728    1.414   .     S
C98    C99     1.419   .     A
C98    C727    1.414   1_554 S
C99    C101    1.390   .     A
C99    H109    1.078   .     S
C100   H110    1.079   .     S
C100   C102    1.388   .     A
C101   H127    1.084   .     S
C101   C725    1.392   1_554 S
C102   H128    1.084   .     S
C102   C726    1.391   .     S
C111   H113    1.085   .     S
C111   C118    1.396   .     A
C111   C325    1.377   .     S
C112   H114    1.085   .     S
C112   C117    1.396   .     A
C112   C536    1.377   1_545 S
C115   C117    1.405   .     A
C115   N129    1.439   .     S
C115   C531    1.377   1_545 S
C116   N132    1.439   .     S
C116   C118    1.405   .     A
C116   C322    1.377   .     S
C119   N126    1.379   .     A
C119   N135    1.429   .     S
C119   C191    1.418   .     S
C120   N125    1.379   .     A
C120   N138    1.429   .     S
C121   N125    1.360   .     A
C121   H123    1.082   .     S
C122   N126    1.360   .     A
C122   H124    1.082   .     S
C122   C190    1.418   .     S
N129   O130    1.301   .     A
N129   O131    1.302   .     A
N132   O133    1.301   .     A
N132   O134    1.302   .     A
N135   O136    1.301   .     A
N135   O137    1.299   .     A
N138   O140    1.299   .     A
N138   O139    1.301   .     A
O141   C145    1.285   .     A
O141   Zn153   1.992   .     S
O142   C146    1.285   .     A
O142   Zn154   1.992   .     S
O143   C145    1.283   .     A
O143   Zn154   1.989   .     S
O144   C146    1.283   .     A
O144   Zn153   1.989   .     S
C145   C188    1.413   .     S
C146   C187    1.413   .     S
O147   C151    1.298   .     A
O147   Zn153   1.963   .     S
O148   C152    1.297   .     A
O148   Zn154   1.963   .     S
O149   Zn154   1.906   .     S
O149   C151    1.295   .     A
O150   C152    1.295   .     A
O150   Zn153   1.906   .     S
C151   C155    1.458   .     S
C152   C156    1.459   .     S
Zn153  N195    2.018   .     S
Zn154  N196    2.018   .     S
C155   C161    1.392   .     A
C155   C159    1.399   .     A
C156   C160    1.399   .     A
C156   C162    1.395   .     A
C157   C165    1.406   .     A
C157   H177    1.084   .     S
C157   C159    1.396   .     A
C158   C166    1.404   .     A
C158   H178    1.083   .     S
C158   C160    1.393   .     A
C159   H176    1.083   .     S
C160   H175    1.083   .     S
C161   C163    1.393   .     A
C161   H174    1.079   .     S
C162   C164    1.395   .     A
C162   H173    1.076   .     S
C163   C167    1.417   .     A
C163   C165    1.416   .     A
C164   C166    1.419   .     A
C164   C168    1.419   .     A
C165   C801    1.392   .     S
C166   C802    1.391   1_554 S
C167   C170    1.418   .     A
C167   C798    1.414   .     S
C168   C169    1.419   .     A
C168   C797    1.414   1_554 S
C169   C171    1.390   .     A
C169   H179    1.078   .     S
C170   H180    1.079   .     S
C170   C172    1.388   .     A
C171   H197    1.084   .     S
C171   C795    1.392   1_554 S
C172   H198    1.084   .     S
C172   C796    1.391   .     S
C181   H183    1.085   .     S
C181   C188    1.396   .     A
C181   C395    1.377   .     S
C182   H184    1.085   .     S
C182   C187    1.396   .     A
C182   C606    1.377   1_545 S
C185   C187    1.405   .     A
C185   N199    1.439   .     S
C185   C601    1.377   1_545 S
C186   N202    1.439   .     S
C186   C188    1.405   .     A
C186   C392    1.377   .     S
C189   N196    1.379   .     A
C189   N205    1.429   .     S
C189   C51     1.418   1_655 S
C190   N195    1.379   .     A
C190   N208    1.429   .     S
C191   N195    1.360   .     A
C191   H193    1.082   .     S
C192   N196    1.360   .     A
C192   H194    1.082   .     S
C192   C50     1.418   1_655 S
N199   O200    1.301   .     A
N199   O201    1.302   .     A
N202   O203    1.301   .     A
N202   O204    1.302   .     A
N205   O206    1.301   .     A
N205   O207    1.299   .     A
N208   O210    1.299   .     A
N208   O209    1.301   .     A
O211   C215    1.285   .     A
O211   Zn223   1.992   .     S
O212   C216    1.285   .     A
O212   Zn224   1.992   .     S
O213   C215    1.283   .     A
O213   Zn224   1.989   .     S
O214   C216    1.283   .     A
O214   Zn223   1.989   .     S
C215   C258    1.413   .     S
C216   C257    1.413   .     S
O217   C221    1.298   .     A
O217   Zn223   1.963   .     S
O218   C222    1.297   .     A
O218   Zn224   1.963   .     S
O219   Zn224   1.906   .     S
O219   C221    1.295   .     A
O220   C222    1.295   .     A
O220   Zn223   1.906   .     S
C221   C225    1.458   .     S
C222   C226    1.459   .     S
Zn223  N265    2.018   .     S
Zn224  N266    2.018   .     S
C225   C231    1.392   .     A
C225   C229    1.399   .     A
C226   C230    1.399   .     A
C226   C232    1.395   .     A
C227   C235    1.406   .     A
C227   H247    1.084   .     S
C227   C229    1.396   .     A
C228   C236    1.404   .     A
C228   H248    1.083   .     S
C228   C230    1.393   .     A
C229   H246    1.083   .     S
C230   H245    1.083   .     S
C231   C233    1.393   .     A
C231   H244    1.079   .     S
C232   C234    1.395   .     A
C232   H243    1.076   .     S
C233   C237    1.417   .     A
C233   C235    1.416   .     A
C234   C236    1.419   .     A
C234   C238    1.419   .     A
C235   C871    1.392   .     S
C236   C872    1.391   1_554 S
C237   C240    1.418   .     A
C237   C868    1.414   .     S
C238   C239    1.419   .     A
C238   C867    1.414   1_554 S
C239   C241    1.390   .     A
C239   H249    1.078   .     S
C240   H250    1.079   .     S
C240   C242    1.388   .     A
C241   H267    1.084   .     S
C241   C865    1.392   1_554 S
C242   H268    1.084   .     S
C242   C866    1.391   .     S
C251   H253    1.085   .     S
C251   C258    1.396   .     A
C251   C465    1.377   .     S
C252   H254    1.085   .     S
C252   C257    1.396   .     A
C255   C257    1.405   .     A
C255   N269    1.439   .     S
C256   N272    1.439   .     S
C256   C258    1.405   .     A
C256   C462    1.377   .     S
C259   N266    1.379   .     A
C259   N275    1.429   .     S
C259   C331    1.418   .     S
C260   N265    1.379   .     A
C260   N278    1.429   .     S
C260   C402    1.418   1_455 S
C261   N265    1.360   .     A
C261   H263    1.082   .     S
C261   C399    1.418   1_455 S
C262   N266    1.360   .     A
C262   H264    1.082   .     S
C262   C330    1.418   .     S
N269   O270    1.301   .     A
N269   O271    1.302   .     A
N272   O273    1.301   .     A
N272   O274    1.302   .     A
N275   O276    1.301   .     A
N275   O277    1.299   .     A
N278   O280    1.299   .     A
N278   O279    1.301   .     A
O281   C285    1.285   .     A
O281   Zn293   1.992   .     S
O282   C286    1.285   .     A
O282   Zn294   1.992   .     S
O283   C285    1.283   .     A
O283   Zn294   1.989   .     S
O284   C286    1.283   .     A
O284   Zn293   1.989   .     S
C285   C328    1.413   .     S
C286   C327    1.413   .     S
O287   C291    1.298   .     A
O287   Zn293   1.963   .     S
O288   C292    1.297   .     A
O288   Zn294   1.963   .     S
O289   Zn294   1.906   .     S
O289   C291    1.295   .     A
O290   C292    1.295   .     A
O290   Zn293   1.906   .     S
C291   C295    1.458   .     S
C292   C296    1.459   .     S
Zn293  N335    2.018   .     S
Zn294  N336    2.018   .     S
C295   C301    1.392   .     A
C295   C299    1.399   .     A
C296   C300    1.399   .     A
C296   C302    1.395   .     A
C297   C305    1.406   .     A
C297   H317    1.084   .     S
C297   C299    1.396   .     A
C298   C306    1.404   .     A
C298   H318    1.083   .     S
C298   C300    1.393   .     A
C299   H316    1.083   .     S
C300   H315    1.083   .     S
C301   C303    1.393   .     A
C301   H314    1.079   .     S
C302   C304    1.395   .     A
C302   H313    1.076   .     S
C303   C307    1.417   .     A
C303   C305    1.416   .     A
C304   C306    1.419   .     A
C304   C308    1.419   .     A
C305   C941    1.392   .     S
C306   C942    1.391   1_554 S
C307   C310    1.418   .     A
C307   C938    1.414   .     S
C308   C309    1.419   .     A
C308   C937    1.414   1_554 S
C309   C311    1.390   .     A
C309   H319    1.078   .     S
C310   H320    1.079   .     S
C310   C312    1.388   .     A
C311   H337    1.084   .     S
C311   C935    1.392   1_554 S
C312   H338    1.084   .     S
C312   C936    1.391   .     S
C321   H323    1.085   .     S
C321   C328    1.396   .     A
C321   C535    1.377   .     S
C322   H324    1.085   .     S
C322   C327    1.396   .     A
C325   C327    1.405   .     A
C325   N339    1.439   .     S
C326   N342    1.439   .     S
C326   C328    1.405   .     A
C326   C532    1.377   .     S
C329   N336    1.379   .     A
C329   N345    1.429   .     S
C329   C401    1.418   .     S
C330   N335    1.379   .     A
C330   N348    1.429   .     S
C331   N335    1.360   .     A
C331   H333    1.082   .     S
C332   N336    1.360   .     A
C332   H334    1.082   .     S
C332   C400    1.418   .     S
N339   O340    1.301   .     A
N339   O341    1.302   .     A
N342   O343    1.301   .     A
N342   O344    1.302   .     A
N345   O346    1.301   .     A
N345   O347    1.299   .     A
N348   O350    1.299   .     A
N348   O349    1.301   .     A
O351   C355    1.285   .     A
O351   Zn363   1.992   .     S
O352   C356    1.285   .     A
O352   Zn364   1.992   .     S
O353   C355    1.283   .     A
O353   Zn364   1.989   .     S
O354   C356    1.283   .     A
O354   Zn363   1.989   .     S
C355   C398    1.413   .     S
C356   C397    1.413   .     S
O357   C361    1.298   .     A
O357   Zn363   1.963   .     S
O358   C362    1.297   .     A
O358   Zn364   1.963   .     S
O359   Zn364   1.906   .     S
O359   C361    1.295   .     A
O360   C362    1.295   .     A
O360   Zn363   1.906   .     S
C361   C365    1.458   .     S
C362   C366    1.459   .     S
Zn363  N405    2.018   .     S
Zn364  N406    2.018   .     S
C365   C371    1.392   .     A
C365   C369    1.399   .     A
C366   C370    1.399   .     A
C366   C372    1.395   .     A
C367   C375    1.406   .     A
C367   H387    1.084   .     S
C367   C369    1.396   .     A
C368   C376    1.404   .     A
C368   H388    1.083   .     S
C368   C370    1.393   .     A
C369   H386    1.083   .     S
C370   H385    1.083   .     S
C371   C373    1.393   .     A
C371   H384    1.079   .     S
C372   C374    1.395   .     A
C372   H383    1.076   .     S
C373   C377    1.417   .     A
C373   C375    1.416   .     A
C374   C376    1.419   .     A
C374   C378    1.419   .     A
C375   C1011   1.392   .     S
C376   C1012   1.391   1_554 S
C377   C380    1.418   .     A
C377   C1008   1.414   .     S
C378   C379    1.419   .     A
C378   C1007   1.414   1_554 S
C379   C381    1.390   .     A
C379   H389    1.078   .     S
C380   H390    1.079   .     S
C380   C382    1.388   .     A
C381   H407    1.084   .     S
C381   C1005   1.392   1_554 S
C382   H408    1.084   .     S
C382   C1006   1.391   .     S
C391   H393    1.085   .     S
C391   C398    1.396   .     A
C391   C605    1.377   .     S
C392   H394    1.085   .     S
C392   C397    1.396   .     A
C395   C397    1.405   .     A
C395   N409    1.439   .     S
C396   N412    1.439   .     S
C396   C398    1.405   .     A
C396   C602    1.377   .     S
C399   N406    1.379   .     A
C399   N415    1.429   .     S
C399   C261    1.418   1_655 S
C400   N405    1.379   .     A
C400   N418    1.429   .     S
C401   N405    1.360   .     A
C401   H403    1.082   .     S
C402   N406    1.360   .     A
C402   H404    1.082   .     S
C402   C260    1.418   1_655 S
N409   O410    1.301   .     A
N409   O411    1.302   .     A
N412   O413    1.301   .     A
N412   O414    1.302   .     A
N415   O416    1.301   .     A
N415   O417    1.299   .     A
N418   O420    1.299   .     A
N418   O419    1.301   .     A
O421   C425    1.285   .     A
O421   Zn433   1.992   .     S
O422   C426    1.285   .     A
O422   Zn434   1.992   .     S
O423   C425    1.283   .     A
O423   Zn434   1.989   .     S
O424   C426    1.283   .     A
O424   Zn433   1.989   .     S
C425   C468    1.413   .     S
C426   C467    1.413   .     S
O427   C431    1.298   .     A
O427   Zn433   1.963   .     S
O428   C432    1.297   .     A
O428   Zn434   1.963   .     S
O429   Zn434   1.906   .     S
O429   C431    1.295   .     A
O430   C432    1.295   .     A
O430   Zn433   1.906   .     S
C431   C435    1.458   .     S
C432   C436    1.459   .     S
Zn433  N475    2.018   .     S
Zn434  N476    2.018   .     S
C435   C441    1.392   .     A
C435   C439    1.399   .     A
C436   C440    1.399   .     A
C436   C442    1.395   .     A
C437   C445    1.406   .     A
C437   H457    1.084   .     S
C437   C439    1.396   .     A
C438   C446    1.404   .     A
C438   H458    1.083   .     S
C438   C440    1.393   .     A
C439   H456    1.083   .     S
C440   H455    1.083   .     S
C441   C443    1.393   .     A
C441   H454    1.079   .     S
C442   C444    1.395   .     A
C442   H453    1.076   .     S
C443   C447    1.417   .     A
C443   C445    1.416   .     A
C444   C446    1.419   .     A
C444   C448    1.419   .     A
C445   C1081   1.392   .     S
C446   C1082   1.391   1_554 S
C447   C450    1.418   .     A
C447   C1078   1.414   .     S
C448   C449    1.419   .     A
C448   C1077   1.414   1_554 S
C449   C451    1.390   .     A
C449   H459    1.078   .     S
C450   H460    1.079   .     S
C450   C452    1.388   .     A
C451   H477    1.084   .     S
C451   C1075   1.392   1_554 S
C452   H478    1.084   .     S
C452   C1076   1.391   .     S
C461   H463    1.085   .     S
C461   C468    1.396   .     A
C461   C45     1.377   1_565 S
C462   H464    1.085   .     S
C462   C467    1.396   .     A
C465   C467    1.405   .     A
C465   N479    1.439   .     S
C466   N482    1.439   .     S
C466   C468    1.405   .     A
C466   C42     1.377   1_565 S
C469   N476    1.379   .     A
C469   N485    1.429   .     S
C469   C541    1.418   .     S
C470   N475    1.379   .     A
C470   N488    1.429   .     S
C470   C612    1.418   1_455 S
C471   N475    1.360   .     A
C471   H473    1.082   .     S
C471   C609    1.418   1_455 S
C472   N476    1.360   .     A
C472   H474    1.082   .     S
C472   C540    1.418   .     S
N479   O480    1.301   .     A
N479   O481    1.302   .     A
N482   O483    1.301   .     A
N482   O484    1.302   .     A
N485   O486    1.301   .     A
N485   O487    1.299   .     A
N488   O490    1.299   .     A
N488   O489    1.301   .     A
O491   C495    1.285   .     A
O491   Zn503   1.992   .     S
O492   C496    1.285   .     A
O492   Zn504   1.992   .     S
O493   C495    1.283   .     A
O493   Zn504   1.989   .     S
O494   C496    1.283   .     A
O494   Zn503   1.989   .     S
C495   C538    1.413   .     S
C496   C537    1.413   .     S
O497   C501    1.298   .     A
O497   Zn503   1.963   .     S
O498   C502    1.297   .     A
O498   Zn504   1.963   .     S
O499   Zn504   1.906   .     S
O499   C501    1.295   .     A
O500   C502    1.295   .     A
O500   Zn503   1.906   .     S
C501   C505    1.458   .     S
C502   C506    1.459   .     S
Zn503  N545    2.018   .     S
Zn504  N546    2.018   .     S
C505   C511    1.392   .     A
C505   C509    1.399   .     A
C506   C510    1.399   .     A
C506   C512    1.395   .     A
C507   C515    1.406   .     A
C507   H527    1.084   .     S
C507   C509    1.396   .     A
C508   C516    1.404   .     A
C508   H528    1.083   .     S
C508   C510    1.393   .     A
C509   H526    1.083   .     S
C510   H525    1.083   .     S
C511   C513    1.393   .     A
C511   H524    1.079   .     S
C512   C514    1.395   .     A
C512   H523    1.076   .     S
C513   C517    1.417   .     A
C513   C515    1.416   .     A
C514   C516    1.419   .     A
C514   C518    1.419   .     A
C515   C1151   1.392   .     S
C516   C1152   1.391   1_554 S
C517   C520    1.418   .     A
C517   C1148   1.414   .     S
C518   C519    1.419   .     A
C518   C1147   1.414   1_554 S
C519   C521    1.390   .     A
C519   H529    1.078   .     S
C520   H530    1.079   .     S
C520   C522    1.388   .     A
C521   H547    1.084   .     S
C521   C1145   1.392   1_554 S
C522   H548    1.084   .     S
C522   C1146   1.391   .     S
C531   H533    1.085   .     S
C531   C538    1.396   .     A
C531   C115    1.377   1_565 S
C532   H534    1.085   .     S
C532   C537    1.396   .     A
C535   C537    1.405   .     A
C535   N549    1.439   .     S
C536   N552    1.439   .     S
C536   C538    1.405   .     A
C536   C112    1.377   1_565 S
C539   N546    1.379   .     A
C539   N555    1.429   .     S
C539   C611    1.418   .     S
C540   N545    1.379   .     A
C540   N558    1.429   .     S
C541   N545    1.360   .     A
C541   H543    1.082   .     S
C542   N546    1.360   .     A
C542   H544    1.082   .     S
C542   C610    1.418   .     S
N549   O550    1.301   .     A
N549   O551    1.302   .     A
N552   O553    1.301   .     A
N552   O554    1.302   .     A
N555   O556    1.301   .     A
N555   O557    1.299   .     A
N558   O560    1.299   .     A
N558   O559    1.301   .     A
O561   C565    1.285   .     A
O561   Zn573   1.992   .     S
O562   C566    1.285   .     A
O562   Zn574   1.992   .     S
O563   C565    1.283   .     A
O563   Zn574   1.989   .     S
O564   C566    1.283   .     A
O564   Zn573   1.989   .     S
C565   C608    1.413   .     S
C566   C607    1.413   .     S
O567   C571    1.298   .     A
O567   Zn573   1.963   .     S
O568   C572    1.297   .     A
O568   Zn574   1.963   .     S
O569   Zn574   1.906   .     S
O569   C571    1.295   .     A
O570   C572    1.295   .     A
O570   Zn573   1.906   .     S
C571   C575    1.458   .     S
C572   C576    1.459   .     S
Zn573  N615    2.018   .     S
Zn574  N616    2.018   .     S
C575   C581    1.392   .     A
C575   C579    1.399   .     A
C576   C580    1.399   .     A
C576   C582    1.395   .     A
C577   C585    1.406   .     A
C577   H597    1.084   .     S
C577   C579    1.396   .     A
C578   C586    1.404   .     A
C578   H598    1.083   .     S
C578   C580    1.393   .     A
C579   H596    1.083   .     S
C580   H595    1.083   .     S
C581   C583    1.393   .     A
C581   H594    1.079   .     S
C582   C584    1.395   .     A
C582   H593    1.076   .     S
C583   C587    1.417   .     A
C583   C585    1.416   .     A
C584   C586    1.419   .     A
C584   C588    1.419   .     A
C585   C1221   1.392   .     S
C586   C1222   1.391   1_554 S
C587   C590    1.418   .     A
C587   C1218   1.414   .     S
C588   C589    1.419   .     A
C588   C1217   1.414   1_554 S
C589   C591    1.390   .     A
C589   H599    1.078   .     S
C590   H600    1.079   .     S
C590   C592    1.388   .     A
C591   H617    1.084   .     S
C591   C1215   1.392   1_554 S
C592   H618    1.084   .     S
C592   C1216   1.391   .     S
C601   H603    1.085   .     S
C601   C608    1.396   .     A
C601   C185    1.377   1_565 S
C602   H604    1.085   .     S
C602   C607    1.396   .     A
C605   C607    1.405   .     A
C605   N619    1.439   .     S
C606   N622    1.439   .     S
C606   C608    1.405   .     A
C606   C182    1.377   1_565 S
C609   N616    1.379   .     A
C609   N625    1.429   .     S
C609   C471    1.418   1_655 S
C610   N615    1.379   .     A
C610   N628    1.429   .     S
C611   N615    1.360   .     A
C611   H613    1.082   .     S
C612   N616    1.360   .     A
C612   H614    1.082   .     S
C612   C470    1.418   1_655 S
N619   O620    1.301   .     A
N619   O621    1.302   .     A
N622   O623    1.301   .     A
N622   O624    1.302   .     A
N625   O626    1.301   .     A
N625   O627    1.299   .     A
N628   O630    1.299   .     A
N628   O629    1.301   .     A
O631   C635    1.285   .     A
O631   Zn643   1.992   .     S
O632   C636    1.285   .     A
O632   Zn644   1.992   .     S
O633   C635    1.283   .     A
O633   Zn644   1.989   .     S
O634   C636    1.283   .     A
O634   Zn643   1.989   .     S
C635   C678    1.413   .     S
C636   C677    1.413   .     S
O637   C641    1.298   .     A
O637   Zn643   1.963   .     S
O638   C642    1.297   .     A
O638   Zn644   1.963   .     S
O639   Zn644   1.906   .     S
O639   C641    1.295   .     A
O640   C642    1.295   .     A
O640   Zn643   1.906   .     S
C641   C645    1.458   .     S
C642   C646    1.459   .     S
Zn643  N685    2.018   .     S
Zn644  N686    2.018   .     S
C645   C651    1.392   .     A
C645   C649    1.399   .     A
C646   C650    1.399   .     A
C646   C652    1.395   .     A
C647   C655    1.406   .     A
C647   H667    1.084   .     S
C647   C649    1.396   .     A
C648   C656    1.404   .     A
C648   H668    1.083   .     S
C648   C650    1.393   .     A
C649   H666    1.083   .     S
C650   H665    1.083   .     S
C651   C653    1.393   .     A
C651   H664    1.079   .     S
C652   C654    1.395   .     A
C652   H663    1.076   .     S
C653   C657    1.417   .     A
C653   C655    1.416   .     A
C654   C656    1.419   .     A
C654   C658    1.419   .     A
C655   C31     1.392   1_556 S
C657   C660    1.418   .     A
C657   C28     1.414   1_556 S
C658   C659    1.419   .     A
C659   C661    1.390   .     A
C659   H669    1.078   .     S
C660   H670    1.079   .     S
C660   C662    1.388   .     A
C661   H687    1.084   .     S
C662   H688    1.084   .     S
C662   C26     1.391   1_556 S
C671   H673    1.085   .     S
C671   C678    1.396   .     A
C671   C885    1.377   .     S
C672   H674    1.085   .     S
C672   C677    1.396   .     A
C672   C1096   1.377   1_545 S
C675   C677    1.405   .     A
C675   N689    1.439   .     S
C675   C1091   1.377   1_545 S
C676   N692    1.439   .     S
C676   C678    1.405   .     A
C676   C882    1.377   .     S
C679   N686    1.379   .     A
C679   N695    1.429   .     S
C679   C751    1.418   .     S
C680   N685    1.379   .     A
C680   N698    1.429   .     S
C680   C822    1.418   1_455 S
C681   N685    1.360   .     A
C681   H683    1.082   .     S
C681   C819    1.418   1_455 S
C682   N686    1.360   .     A
C682   H684    1.082   .     S
C682   C750    1.418   .     S
N689   O690    1.301   .     A
N689   O691    1.302   .     A
N692   O693    1.301   .     A
N692   O694    1.302   .     A
N695   O696    1.301   .     A
N695   O697    1.299   .     A
N698   O700    1.299   .     A
N698   O699    1.301   .     A
O701   C705    1.285   .     A
O701   Zn713   1.992   .     S
O702   C706    1.285   .     A
O702   Zn714   1.992   .     S
O703   C705    1.283   .     A
O703   Zn714   1.989   .     S
O704   C706    1.283   .     A
O704   Zn713   1.989   .     S
C705   C748    1.413   .     S
C706   C747    1.413   .     S
O707   C711    1.298   .     A
O707   Zn713   1.963   .     S
O708   C712    1.297   .     A
O708   Zn714   1.963   .     S
O709   Zn714   1.906   .     S
O709   C711    1.295   .     A
O710   C712    1.295   .     A
O710   Zn713   1.906   .     S
C711   C715    1.458   .     S
C712   C716    1.459   .     S
Zn713  N755    2.018   .     S
Zn714  N756    2.018   .     S
C715   C721    1.392   .     A
C715   C719    1.399   .     A
C716   C720    1.399   .     A
C716   C722    1.395   .     A
C717   C725    1.406   .     A
C717   H737    1.084   .     S
C717   C719    1.396   .     A
C718   C726    1.404   .     A
C718   H738    1.083   .     S
C718   C720    1.393   .     A
C719   H736    1.083   .     S
C720   H735    1.083   .     S
C721   C723    1.393   .     A
C721   H734    1.079   .     S
C722   C724    1.395   .     A
C722   H733    1.076   .     S
C723   C727    1.417   .     A
C723   C725    1.416   .     A
C724   C726    1.419   .     A
C724   C728    1.419   .     A
C725   C101    1.392   1_556 S
C727   C730    1.418   .     A
C727   C98     1.414   1_556 S
C728   C729    1.419   .     A
C729   C731    1.390   .     A
C729   H739    1.078   .     S
C730   H740    1.079   .     S
C730   C732    1.388   .     A
C731   H757    1.084   .     S
C732   H758    1.084   .     S
C732   C96     1.391   1_556 S
C741   H743    1.085   .     S
C741   C748    1.396   .     A
C741   C955    1.377   .     S
C742   H744    1.085   .     S
C742   C747    1.396   .     A
C742   C1166   1.377   1_545 S
C745   C747    1.405   .     A
C745   N759    1.439   .     S
C745   C1161   1.377   1_545 S
C746   N762    1.439   .     S
C746   C748    1.405   .     A
C746   C952    1.377   .     S
C749   N756    1.379   .     A
C749   N765    1.429   .     S
C749   C821    1.418   .     S
C750   N755    1.379   .     A
C750   N768    1.429   .     S
C751   N755    1.360   .     A
C751   H753    1.082   .     S
C752   N756    1.360   .     A
C752   H754    1.082   .     S
C752   C820    1.418   .     S
N759   O760    1.301   .     A
N759   O761    1.302   .     A
N762   O763    1.301   .     A
N762   O764    1.302   .     A
N765   O766    1.301   .     A
N765   O767    1.299   .     A
N768   O770    1.299   .     A
N768   O769    1.301   .     A
O771   C775    1.285   .     A
O771   Zn783   1.992   .     S
O772   C776    1.285   .     A
O772   Zn784   1.992   .     S
O773   C775    1.283   .     A
O773   Zn784   1.989   .     S
O774   C776    1.283   .     A
O774   Zn783   1.989   .     S
C775   C818    1.413   .     S
C776   C817    1.413   .     S
O777   C781    1.298   .     A
O777   Zn783   1.963   .     S
O778   C782    1.297   .     A
O778   Zn784   1.963   .     S
O779   Zn784   1.906   .     S
O779   C781    1.295   .     A
O780   C782    1.295   .     A
O780   Zn783   1.906   .     S
C781   C785    1.458   .     S
C782   C786    1.459   .     S
Zn783  N825    2.018   .     S
Zn784  N826    2.018   .     S
C785   C791    1.392   .     A
C785   C789    1.399   .     A
C786   C790    1.399   .     A
C786   C792    1.395   .     A
C787   C795    1.406   .     A
C787   H807    1.084   .     S
C787   C789    1.396   .     A
C788   C796    1.404   .     A
C788   H808    1.083   .     S
C788   C790    1.393   .     A
C789   H806    1.083   .     S
C790   H805    1.083   .     S
C791   C793    1.393   .     A
C791   H804    1.079   .     S
C792   C794    1.395   .     A
C792   H803    1.076   .     S
C793   C797    1.417   .     A
C793   C795    1.416   .     A
C794   C796    1.419   .     A
C794   C798    1.419   .     A
C795   C171    1.392   1_556 S
C797   C800    1.418   .     A
C797   C168    1.414   1_556 S
C798   C799    1.419   .     A
C799   C801    1.390   .     A
C799   H809    1.078   .     S
C800   H810    1.079   .     S
C800   C802    1.388   .     A
C801   H827    1.084   .     S
C802   H828    1.084   .     S
C802   C166    1.391   1_556 S
C811   H813    1.085   .     S
C811   C818    1.396   .     A
C811   C1025   1.377   .     S
C812   H814    1.085   .     S
C812   C817    1.396   .     A
C812   C1236   1.377   1_545 S
C815   C817    1.405   .     A
C815   N829    1.439   .     S
C815   C1231   1.377   1_545 S
C816   N832    1.439   .     S
C816   C818    1.405   .     A
C816   C1022   1.377   .     S
C819   N826    1.379   .     A
C819   N835    1.429   .     S
C819   C681    1.418   1_655 S
C820   N825    1.379   .     A
C820   N838    1.429   .     S
C821   N825    1.360   .     A
C821   H823    1.082   .     S
C822   N826    1.360   .     A
C822   H824    1.082   .     S
C822   C680    1.418   1_655 S
N829   O830    1.301   .     A
N829   O831    1.302   .     A
N832   O833    1.301   .     A
N832   O834    1.302   .     A
N835   O836    1.301   .     A
N835   O837    1.299   .     A
N838   O840    1.299   .     A
N838   O839    1.301   .     A
O841   C845    1.285   .     A
O841   Zn853   1.992   .     S
O842   C846    1.285   .     A
O842   Zn854   1.992   .     S
O843   C845    1.283   .     A
O843   Zn854   1.989   .     S
O844   C846    1.283   .     A
O844   Zn853   1.989   .     S
C845   C888    1.413   .     S
C846   C887    1.413   .     S
O847   C851    1.298   .     A
O847   Zn853   1.963   .     S
O848   C852    1.297   .     A
O848   Zn854   1.963   .     S
O849   Zn854   1.906   .     S
O849   C851    1.295   .     A
O850   C852    1.295   .     A
O850   Zn853   1.906   .     S
C851   C855    1.458   .     S
C852   C856    1.459   .     S
Zn853  N895    2.018   .     S
Zn854  N896    2.018   .     S
C855   C861    1.392   .     A
C855   C859    1.399   .     A
C856   C860    1.399   .     A
C856   C862    1.395   .     A
C857   C865    1.406   .     A
C857   H877    1.084   .     S
C857   C859    1.396   .     A
C858   C866    1.404   .     A
C858   H878    1.083   .     S
C858   C860    1.393   .     A
C859   H876    1.083   .     S
C860   H875    1.083   .     S
C861   C863    1.393   .     A
C861   H874    1.079   .     S
C862   C864    1.395   .     A
C862   H873    1.076   .     S
C863   C867    1.417   .     A
C863   C865    1.416   .     A
C864   C866    1.419   .     A
C864   C868    1.419   .     A
C865   C241    1.392   1_556 S
C867   C870    1.418   .     A
C867   C238    1.414   1_556 S
C868   C869    1.419   .     A
C869   C871    1.390   .     A
C869   H879    1.078   .     S
C870   H880    1.079   .     S
C870   C872    1.388   .     A
C871   H897    1.084   .     S
C872   H898    1.084   .     S
C872   C236    1.391   1_556 S
C881   H883    1.085   .     S
C881   C888    1.396   .     A
C881   C1095   1.377   .     S
C882   H884    1.085   .     S
C882   C887    1.396   .     A
C885   C887    1.405   .     A
C885   N899    1.439   .     S
C886   N902    1.439   .     S
C886   C888    1.405   .     A
C886   C1092   1.377   .     S
C889   N896    1.379   .     A
C889   N905    1.429   .     S
C889   C961    1.418   .     S
C890   N895    1.379   .     A
C890   N908    1.429   .     S
C890   C1032   1.418   1_455 S
C891   N895    1.360   .     A
C891   H893    1.082   .     S
C891   C1029   1.418   1_455 S
C892   N896    1.360   .     A
C892   H894    1.082   .     S
C892   C960    1.418   .     S
N899   O900    1.301   .     A
N899   O901    1.302   .     A
N902   O903    1.301   .     A
N902   O904    1.302   .     A
N905   O906    1.301   .     A
N905   O907    1.299   .     A
N908   O910    1.299   .     A
N908   O909    1.301   .     A
O911   C915    1.285   .     A
O911   Zn923   1.992   .     S
O912   C916    1.285   .     A
O912   Zn924   1.992   .     S
O913   C915    1.283   .     A
O913   Zn924   1.989   .     S
O914   C916    1.283   .     A
O914   Zn923   1.989   .     S
C915   C958    1.413   .     S
C916   C957    1.413   .     S
O917   C921    1.298   .     A
O917   Zn923   1.963   .     S
O918   C922    1.297   .     A
O918   Zn924   1.963   .     S
O919   Zn924   1.906   .     S
O919   C921    1.295   .     A
O920   C922    1.295   .     A
O920   Zn923   1.906   .     S
C921   C925    1.458   .     S
C922   C926    1.459   .     S
Zn923  N965    2.018   .     S
Zn924  N966    2.018   .     S
C925   C931    1.392   .     A
C925   C929    1.399   .     A
C926   C930    1.399   .     A
C926   C932    1.395   .     A
C927   C935    1.406   .     A
C927   H947    1.084   .     S
C927   C929    1.396   .     A
C928   C936    1.404   .     A
C928   H948    1.083   .     S
C928   C930    1.393   .     A
C929   H946    1.083   .     S
C930   H945    1.083   .     S
C931   C933    1.393   .     A
C931   H944    1.079   .     S
C932   C934    1.395   .     A
C932   H943    1.076   .     S
C933   C937    1.417   .     A
C933   C935    1.416   .     A
C934   C936    1.419   .     A
C934   C938    1.419   .     A
C935   C311    1.392   1_556 S
C937   C940    1.418   .     A
C937   C308    1.414   1_556 S
C938   C939    1.419   .     A
C939   C941    1.390   .     A
C939   H949    1.078   .     S
C940   H950    1.079   .     S
C940   C942    1.388   .     A
C941   H967    1.084   .     S
C942   H968    1.084   .     S
C942   C306    1.391   1_556 S
C951   H953    1.085   .     S
C951   C958    1.396   .     A
C951   C1165   1.377   .     S
C952   H954    1.085   .     S
C952   C957    1.396   .     A
C955   C957    1.405   .     A
C955   N969    1.439   .     S
C956   N972    1.439   .     S
C956   C958    1.405   .     A
C956   C1162   1.377   .     S
C959   N966    1.379   .     A
C959   N975    1.429   .     S
C959   C1031   1.418   .     S
C960   N965    1.379   .     A
C960   N978    1.429   .     S
C961   N965    1.360   .     A
C961   H963    1.082   .     S
C962   N966    1.360   .     A
C962   H964    1.082   .     S
C962   C1030   1.418   .     S
N969   O970    1.301   .     A
N969   O971    1.302   .     A
N972   O973    1.301   .     A
N972   O974    1.302   .     A
N975   O976    1.301   .     A
N975   O977    1.299   .     A
N978   O980    1.299   .     A
N978   O979    1.301   .     A
O981   C985    1.285   .     A
O981   Zn993   1.992   .     S
O982   C986    1.285   .     A
O982   Zn994   1.992   .     S
O983   C985    1.283   .     A
O983   Zn994   1.989   .     S
O984   C986    1.283   .     A
O984   Zn993   1.989   .     S
C985   C1028   1.413   .     S
C986   C1027   1.413   .     S
O987   C991    1.298   .     A
O987   Zn993   1.963   .     S
O988   C992    1.297   .     A
O988   Zn994   1.963   .     S
O989   Zn994   1.906   .     S
O989   C991    1.295   .     A
O990   C992    1.295   .     A
O990   Zn993   1.906   .     S
C991   C995    1.458   .     S
C992   C996    1.459   .     S
Zn993  N1035   2.018   .     S
Zn994  N1036   2.018   .     S
C995   C1001   1.392   .     A
C995   C999    1.399   .     A
C996   C1000   1.399   .     A
C996   C1002   1.395   .     A
C997   C1005   1.406   .     A
C997   H1017   1.084   .     S
C997   C999    1.396   .     A
C998   C1006   1.404   .     A
C998   H1018   1.083   .     S
C998   C1000   1.393   .     A
C999   H1016   1.083   .     S
C1000  H1015   1.083   .     S
C1001  C1003   1.393   .     A
C1001  H1014   1.079   .     S
C1002  C1004   1.395   .     A
C1002  H1013   1.076   .     S
C1003  C1007   1.417   .     A
C1003  C1005   1.416   .     A
C1004  C1006   1.419   .     A
C1004  C1008   1.419   .     A
C1005  C381    1.392   1_556 S
C1007  C1010   1.418   .     A
C1007  C378    1.414   1_556 S
C1008  C1009   1.419   .     A
C1009  C1011   1.390   .     A
C1009  H1019   1.078   .     S
C1010  H1020   1.079   .     S
C1010  C1012   1.388   .     A
C1011  H1037   1.084   .     S
C1012  H1038   1.084   .     S
C1012  C376    1.391   1_556 S
C1021  H1023   1.085   .     S
C1021  C1028   1.396   .     A
C1021  C1235   1.377   .     S
C1022  H1024   1.085   .     S
C1022  C1027   1.396   .     A
C1025  C1027   1.405   .     A
C1025  N1039   1.439   .     S
C1026  N1042   1.439   .     S
C1026  C1028   1.405   .     A
C1026  C1232   1.377   .     S
C1029  N1036   1.379   .     A
C1029  N1045   1.429   .     S
C1029  C891    1.418   1_655 S
C1030  N1035   1.379   .     A
C1030  N1048   1.429   .     S
C1031  N1035   1.360   .     A
C1031  H1033   1.082   .     S
C1032  N1036   1.360   .     A
C1032  H1034   1.082   .     S
C1032  C890    1.418   1_655 S
N1039  O1040   1.301   .     A
N1039  O1041   1.302   .     A
N1042  O1043   1.301   .     A
N1042  O1044   1.302   .     A
N1045  O1046   1.301   .     A
N1045  O1047   1.299   .     A
N1048  O1050   1.299   .     A
N1048  O1049   1.301   .     A
O1051  C1055   1.285   .     A
O1051  Zn1063  1.992   .     S
O1052  C1056   1.285   .     A
O1052  Zn1064  1.992   .     S
O1053  C1055   1.283   .     A
O1053  Zn1064  1.989   .     S
O1054  C1056   1.283   .     A
O1054  Zn1063  1.989   .     S
C1055  C1098   1.413   .     S
C1056  C1097   1.413   .     S
O1057  C1061   1.298   .     A
O1057  Zn1063  1.963   .     S
O1058  C1062   1.297   .     A
O1058  Zn1064  1.963   .     S
O1059  Zn1064  1.906   .     S
O1059  C1061   1.295   .     A
O1060  C1062   1.295   .     A
O1060  Zn1063  1.906   .     S
C1061  C1065   1.458   .     S
C1062  C1066   1.459   .     S
Zn1063 N1105   2.018   .     S
Zn1064 N1106   2.018   .     S
C1065  C1071   1.392   .     A
C1065  C1069   1.399   .     A
C1066  C1070   1.399   .     A
C1066  C1072   1.395   .     A
C1067  C1075   1.406   .     A
C1067  H1087   1.084   .     S
C1067  C1069   1.396   .     A
C1068  C1076   1.404   .     A
C1068  H1088   1.083   .     S
C1068  C1070   1.393   .     A
C1069  H1086   1.083   .     S
C1070  H1085   1.083   .     S
C1071  C1073   1.393   .     A
C1071  H1084   1.079   .     S
C1072  C1074   1.395   .     A
C1072  H1083   1.076   .     S
C1073  C1077   1.417   .     A
C1073  C1075   1.416   .     A
C1074  C1076   1.419   .     A
C1074  C1078   1.419   .     A
C1075  C451    1.392   1_556 S
C1077  C1080   1.418   .     A
C1077  C448    1.414   1_556 S
C1078  C1079   1.419   .     A
C1079  C1081   1.390   .     A
C1079  H1089   1.078   .     S
C1080  H1090   1.079   .     S
C1080  C1082   1.388   .     A
C1081  H1107   1.084   .     S
C1082  H1108   1.084   .     S
C1082  C446    1.391   1_556 S
C1091  H1093   1.085   .     S
C1091  C1098   1.396   .     A
C1091  C675    1.377   1_565 S
C1092  H1094   1.085   .     S
C1092  C1097   1.396   .     A
C1095  C1097   1.405   .     A
C1095  N1109   1.439   .     S
C1096  N1112   1.439   .     S
C1096  C1098   1.405   .     A
C1096  C672    1.377   1_565 S
C1099  N1106   1.379   .     A
C1099  N1115   1.429   .     S
C1099  C1171   1.418   .     S
C1100  N1105   1.379   .     A
C1100  N1118   1.429   .     S
C1100  C1242   1.418   1_455 S
C1101  N1105   1.360   .     A
C1101  H1103   1.082   .     S
C1101  C1239   1.418   1_455 S
C1102  N1106   1.360   .     A
C1102  H1104   1.082   .     S
C1102  C1170   1.418   .     S
N1109  O1110   1.301   .     A
N1109  O1111   1.302   .     A
N1112  O1113   1.301   .     A
N1112  O1114   1.302   .     A
N1115  O1116   1.301   .     A
N1115  O1117   1.299   .     A
N1118  O1120   1.299   .     A
N1118  O1119   1.301   .     A
O1121  C1125   1.285   .     A
O1121  Zn1133  1.992   .     S
O1122  C1126   1.285   .     A
O1122  Zn1134  1.992   .     S
O1123  C1125   1.283   .     A
O1123  Zn1134  1.989   .     S
O1124  C1126   1.283   .     A
O1124  Zn1133  1.989   .     S
C1125  C1168   1.413   .     S
C1126  C1167   1.413   .     S
O1127  C1131   1.298   .     A
O1127  Zn1133  1.963   .     S
O1128  C1132   1.297   .     A
O1128  Zn1134  1.963   .     S
O1129  Zn1134  1.906   .     S
O1129  C1131   1.295   .     A
O1130  C1132   1.295   .     A
O1130  Zn1133  1.906   .     S
C1131  C1135   1.458   .     S
C1132  C1136   1.459   .     S
Zn1133 N1175   2.018   .     S
Zn1134 N1176   2.018   .     S
C1135  C1141   1.392   .     A
C1135  C1139   1.399   .     A
C1136  C1140   1.399   .     A
C1136  C1142   1.395   .     A
C1137  C1145   1.406   .     A
C1137  H1157   1.084   .     S
C1137  C1139   1.396   .     A
C1138  C1146   1.404   .     A
C1138  H1158   1.083   .     S
C1138  C1140   1.393   .     A
C1139  H1156   1.083   .     S
C1140  H1155   1.083   .     S
C1141  C1143   1.393   .     A
C1141  H1154   1.079   .     S
C1142  C1144   1.395   .     A
C1142  H1153   1.076   .     S
C1143  C1147   1.417   .     A
C1143  C1145   1.416   .     A
C1144  C1146   1.419   .     A
C1144  C1148   1.419   .     A
C1145  C521    1.392   1_556 S
C1147  C1150   1.418   .     A
C1147  C518    1.414   1_556 S
C1148  C1149   1.419   .     A
C1149  C1151   1.390   .     A
C1149  H1159   1.078   .     S
C1150  H1160   1.079   .     S
C1150  C1152   1.388   .     A
C1151  H1177   1.084   .     S
C1152  H1178   1.084   .     S
C1152  C516    1.391   1_556 S
C1161  H1163   1.085   .     S
C1161  C1168   1.396   .     A
C1161  C745    1.377   1_565 S
C1162  H1164   1.085   .     S
C1162  C1167   1.396   .     A
C1165  C1167   1.405   .     A
C1165  N1179   1.439   .     S
C1166  N1182   1.439   .     S
C1166  C1168   1.405   .     A
C1166  C742    1.377   1_565 S
C1169  N1176   1.379   .     A
C1169  N1185   1.429   .     S
C1169  C1241   1.418   .     S
C1170  N1175   1.379   .     A
C1170  N1188   1.429   .     S
C1171  N1175   1.360   .     A
C1171  H1173   1.082   .     S
C1172  N1176   1.360   .     A
C1172  H1174   1.082   .     S
C1172  C1240   1.418   .     S
N1179  O1180   1.301   .     A
N1179  O1181   1.302   .     A
N1182  O1183   1.301   .     A
N1182  O1184   1.302   .     A
N1185  O1186   1.301   .     A
N1185  O1187   1.299   .     A
N1188  O1190   1.299   .     A
N1188  O1189   1.301   .     A
O1191  C1195   1.285   .     A
O1191  Zn1203  1.992   .     S
O1192  C1196   1.285   .     A
O1192  Zn1204  1.992   .     S
O1193  C1195   1.283   .     A
O1193  Zn1204  1.989   .     S
O1194  C1196   1.283   .     A
O1194  Zn1203  1.989   .     S
C1195  C1238   1.413   .     S
C1196  C1237   1.413   .     S
O1197  C1201   1.298   .     A
O1197  Zn1203  1.963   .     S
O1198  C1202   1.297   .     A
O1198  Zn1204  1.963   .     S
O1199  Zn1204  1.906   .     S
O1199  C1201   1.295   .     A
O1200  C1202   1.295   .     A
O1200  Zn1203  1.906   .     S
C1201  C1205   1.458   .     S
C1202  C1206   1.459   .     S
Zn1203 N1245   2.018   .     S
Zn1204 N1246   2.018   .     S
C1205  C1211   1.392   .     A
C1205  C1209   1.399   .     A
C1206  C1210   1.399   .     A
C1206  C1212   1.395   .     A
C1207  C1215   1.406   .     A
C1207  H1227   1.084   .     S
C1207  C1209   1.396   .     A
C1208  C1216   1.404   .     A
C1208  H1228   1.083   .     S
C1208  C1210   1.393   .     A
C1209  H1226   1.083   .     S
C1210  H1225   1.083   .     S
C1211  C1213   1.393   .     A
C1211  H1224   1.079   .     S
C1212  C1214   1.395   .     A
C1212  H1223   1.076   .     S
C1213  C1217   1.417   .     A
C1213  C1215   1.416   .     A
C1214  C1216   1.419   .     A
C1214  C1218   1.419   .     A
C1215  C591    1.392   1_556 S
C1217  C1220   1.418   .     A
C1217  C588    1.414   1_556 S
C1218  C1219   1.419   .     A
C1219  C1221   1.390   .     A
C1219  H1229   1.078   .     S
C1220  H1230   1.079   .     S
C1220  C1222   1.388   .     A
C1221  H1247   1.084   .     S
C1222  H1248   1.084   .     S
C1222  C586    1.391   1_556 S
C1231  H1233   1.085   .     S
C1231  C1238   1.396   .     A
C1231  C815    1.377   1_565 S
C1232  H1234   1.085   .     S
C1232  C1237   1.396   .     A
C1235  C1237   1.405   .     A
C1235  N1249   1.439   .     S
C1236  N1252   1.439   .     S
C1236  C1238   1.405   .     A
C1236  C812    1.377   1_565 S
C1239  N1246   1.379   .     A
C1239  N1255   1.429   .     S
C1239  C1101   1.418   1_655 S
C1240  N1245   1.379   .     A
C1240  N1258   1.429   .     S
C1241  N1245   1.360   .     A
C1241  H1243   1.082   .     S
C1242  N1246   1.360   .     A
C1242  H1244   1.082   .     S
C1242  C1100   1.418   1_655 S
N1249  O1250   1.301   .     A
N1249  O1251   1.302   .     A
N1252  O1253   1.301   .     A
N1252  O1254   1.302   .     A
N1255  O1256   1.301   .     A
N1255  O1257   1.299   .     A
N1258  O1260   1.299   .     A
N1258  O1259   1.301   .     A
