data_str_m1_o5_o17_pcu_sym.10
_audit_creation_date              2020-01-03
_audit_creation_method            'Materials Studio'
_symmetry_space_group_name_H-M    'P1'
_symmetry_Int_Tables_number       1
_symmetry_cell_setting            triclinic
loop_
_symmetry_equiv_pos_as_xyz
  x,y,z
_cell_length_a                    31.7802
_cell_length_b                    31.7799
_cell_length_c                    34.4721
_cell_angle_alpha                 89.9997
_cell_angle_beta                  89.9997
_cell_angle_gamma                 89.9512
loop_
_atom_site_label
_atom_site_type_symbol
_atom_site_fract_x
_atom_site_fract_y
_atom_site_fract_z
_atom_site_U_iso_or_equiv
_atom_site_adp_type
_atom_site_occupancy
Br1    Br    0.03193   0.33372   0.38874   0.00000  Uiso   1.00
Br2    Br    0.23050   0.41271   0.11165   0.00000  Uiso   1.00
Br3    Br    0.41277   0.23021   0.88836   0.00000  Uiso   1.00
Br4    Br    0.07444   0.19921   0.11050   0.00000  Uiso   1.00
Br5    Br    0.30100   0.42570   0.88952   0.00000  Uiso   1.00
Br6    Br    0.26950   0.08729   0.11165   0.00000  Uiso   1.00
Br7    Br    0.08723   0.26979   0.88837   0.00000  Uiso   1.00
Br8    Br    0.42558   0.30080   0.11048   0.00000  Uiso   1.00
Br9    Br    0.04106   0.17010   0.61093   0.00000  Uiso   1.00
Br10   Br    0.16632   0.46796   0.38875   0.00000  Uiso   1.00
Br11   Br    0.32995   0.45904   0.61094   0.00000  Uiso   1.00
Br12   Br    0.46806   0.16628   0.38875   0.00000  Uiso   1.00
Br13   Br    0.45894   0.32991   0.61093   0.00000  Uiso   1.00
Br14   Br    0.33368   0.03203   0.38875   0.00000  Uiso   1.00
Br15   Br    0.17005   0.04097   0.61093   0.00000  Uiso   1.00
Br16   Br    0.19899   0.07429   0.88952   0.00000  Uiso   1.00
C17    C     0.25000  -0.00000   0.35586   0.00000  Uiso   1.00
C18    C     0.33002   0.41998   0.75000   0.00000  Uiso   1.00
C19    C     0.42402   0.26483   0.02018   0.00000  Uiso   1.00
C20    C     0.23493   0.07593   0.97982   0.00000  Uiso   1.00
C21    C     0.26430   0.42392   0.02080   0.00000  Uiso   1.00
C22    C     0.42387   0.26403   0.97921   0.00000  Uiso   1.00
C23    C     0.07597   0.23512   0.02018   0.00000  Uiso   1.00
C24    C     0.01203   0.13281   0.45831   0.00000  Uiso   1.00
C25    C     0.49910   0.36781   0.54149   0.00000  Uiso   1.00
C26    C     0.36720   0.48809   0.45830   0.00000  Uiso   1.00
C27    C     0.13219   0.00077   0.54150   0.00000  Uiso   1.00
C28    C     0.48796   0.36720   0.45830   0.00000  Uiso   1.00
C29    C     0.41998   0.16997   0.25001   0.00000  Uiso   1.00
C30    C     0.00090   0.13219   0.54149   0.00000  Uiso   1.00
C31    C     0.13279   0.01189   0.45831   0.00000  Uiso   1.00
C32    C     0.36781   0.49923   0.54149   0.00000  Uiso   1.00
C33    C     0.26599   0.38324   0.95884   0.00000  Uiso   1.00
C34    C     0.22157   0.11434   0.04190   0.00000  Uiso   1.00
C35    C     0.11441   0.22189   0.95809   0.00000  Uiso   1.00
C36    C     0.38319   0.26563   0.04118   0.00000  Uiso   1.00
C37    C     0.23401   0.11676   0.95884   0.00000  Uiso   1.00
C38    C     0.27845   0.38567   0.04190   0.00000  Uiso   1.00
C39    C     0.38556   0.27804   0.95811   0.00000  Uiso   1.00
C40    C     0.08003   0.33002   0.75001   0.00000  Uiso   1.00
C41    C     0.11680   0.23431   0.04116   0.00000  Uiso   1.00
C42    C     0.33002   0.41998   0.25000   0.00000  Uiso   1.00
C43    C     0.16998   0.08002   0.75000   0.00000  Uiso   1.00
C44    C     0.08002   0.33003   0.25001   0.00000  Uiso   1.00
C45    C     0.41997   0.16998   0.75001   0.00000  Uiso   1.00
C46    C     0.16998   0.41997   0.75000   0.00000  Uiso   1.00
C47    C     0.33003   0.08002   0.25000   0.00000  Uiso   1.00
C48    C     0.41998   0.33002   0.74999   0.00000  Uiso   1.00
C49    C     0.25000   0.00000   0.64411   0.00000  Uiso   1.00
C50    C     0.08002   0.16999   0.24999   0.00000  Uiso   1.00
C51    C     0.33002   0.08003   0.75000   0.00000  Uiso   1.00
C52    C     0.16997   0.41998   0.25000   0.00000  Uiso   1.00
C53    C     0.08002   0.16998   0.74999   0.00000  Uiso   1.00
C54    C     0.41998   0.33001   0.24999   0.00000  Uiso   1.00
C55    C     0.13832   0.38834   0.25001   0.00000  Uiso   1.00
C56    C     0.36167   0.11168   0.75001   0.00000  Uiso   1.00
C57    C     0.11167   0.13834   0.24999   0.00000  Uiso   1.00
C58    C     0.38834   0.36167   0.74999   0.00000  Uiso   1.00
C59    C     0.36168   0.11166   0.25001   0.00000  Uiso   1.00
C60    C    -0.00000   0.25000   0.35586   0.00000  Uiso   1.00
C61    C     0.13833   0.38833   0.75001   0.00000  Uiso   1.00
C62    C     0.38833   0.36166   0.24999   0.00000  Uiso   1.00
C63    C     0.11166   0.13833   0.74999   0.00000  Uiso   1.00
C64    C     0.13833   0.11166   0.74999   0.00000  Uiso   1.00
C65    C     0.36166   0.38833   0.24999   0.00000  Uiso   1.00
C66    C     0.11167   0.36167   0.75001   0.00000  Uiso   1.00
C67    C     0.38834   0.13832   0.25001   0.00000  Uiso   1.00
C68    C     0.36167   0.38834   0.74999   0.00000  Uiso   1.00
C69    C     0.13834   0.11167   0.24999   0.00000  Uiso   1.00
C70    C     0.38832   0.13833   0.75001   0.00000  Uiso   1.00
C71    C     0.00000   0.25000   0.64410   0.00000  Uiso   1.00
C72    C     0.11166   0.36168   0.25001   0.00000  Uiso   1.00
C73    C     0.00751   0.28752   0.41812   0.00000  Uiso   1.00
C74    C     0.01172   0.21354   0.58172   0.00000  Uiso   1.00
C75    C     0.21249   0.49244   0.41812   0.00000  Uiso   1.00
C76    C     0.28648   0.48832   0.58172   0.00000  Uiso   1.00
C77    C     0.49248   0.21248   0.41812   0.00000  Uiso   1.00
C78    C     0.48828   0.28647   0.58172   0.00000  Uiso   1.00
C79    C     0.28751   0.00756   0.41812   0.00000  Uiso   1.00
C80    C     0.21352   0.01168   0.58172   0.00000  Uiso   1.00
C81    C     0.23360   0.03466   0.91849   0.00000  Uiso   1.00
C82    C    -0.00000   0.25000   0.85580   0.00000  Uiso   1.00
C83    C     0.24808   0.46179   0.08209   0.00000  Uiso   1.00
C84    C     0.46179   0.24794   0.91791   0.00000  Uiso   1.00
C85    C     0.03471   0.23370   0.08152   0.00000  Uiso   1.00
C86    C     0.26640   0.46534   0.91848   0.00000  Uiso   1.00
C87    C     0.25193   0.03821   0.08209   0.00000  Uiso   1.00
C88    C     0.03820   0.25205   0.91792   0.00000  Uiso   1.00
C89    C     0.46530   0.26629   0.08152   0.00000  Uiso   1.00
C90    C    -0.00000   0.25000   0.39814   0.00000  Uiso   1.00
C91    C     0.00000   0.25000   0.60175   0.00000  Uiso   1.00
C92    C     0.25000  -0.00000   0.39814   0.00000  Uiso   1.00
C93    C     0.00000   0.25000   0.14405   0.00000  Uiso   1.00
C94    C     0.25000   0.00000   0.60176   0.00000  Uiso   1.00
C95    C     0.25000  -0.00000   0.89838   0.00000  Uiso   1.00
C96    C     0.25000   0.00000   0.10199   0.00000  Uiso   1.00
C97    C    -0.00000   0.25000   0.89801   0.00000  Uiso   1.00
C98    C     0.00000   0.25000   0.10163   0.00000  Uiso   1.00
C99    C     0.49919   0.21116   0.45881   0.00000  Uiso   1.00
C100   C     0.49489   0.28852   0.54103   0.00000  Uiso   1.00
C101   C     0.28884   0.00085   0.45882   0.00000  Uiso   1.00
C102   C     0.21148   0.00507   0.54103   0.00000  Uiso   1.00
C103   C     0.00080   0.28885   0.45881   0.00000  Uiso   1.00
C104   C     0.25000  -0.00000   0.85595   0.00000  Uiso   1.00
C105   C     0.00511   0.21148   0.54103   0.00000  Uiso   1.00
C106   C     0.21115   0.49915   0.45882   0.00000  Uiso   1.00
C107   C     0.28852   0.49493   0.54103   0.00000  Uiso   1.00
C108   C     0.26012   0.46248   0.95918   0.00000  Uiso   1.00
C109   C     0.24530   0.03859   0.04139   0.00000  Uiso   1.00
C110   C     0.03859   0.24541   0.95861   0.00000  Uiso   1.00
C111   C     0.46245   0.26000   0.04083   0.00000  Uiso   1.00
C112   C     0.23988   0.03752   0.95918   0.00000  Uiso   1.00
C113   C     0.25470   0.46141   0.04139   0.00000  Uiso   1.00
C114   C     0.46140   0.25456   0.95861   0.00000  Uiso   1.00
C115   C     0.25000   0.00000   0.14420   0.00000  Uiso   1.00
C116   C     0.03755   0.23998   0.04083   0.00000  Uiso   1.00
C117   C    -0.00000   0.25000   0.47942   0.00000  Uiso   1.00
C118   C    -0.00000   0.25000   0.52043   0.00000  Uiso   1.00
C119   C     0.25000  -0.00000   0.47942   0.00000  Uiso   1.00
C120   C     0.25000  -0.00000   0.52043   0.00000  Uiso   1.00
C121   C     0.25000  -0.00000   0.97977   0.00000  Uiso   1.00
C122   C     0.25000  -0.00000   0.02078   0.00000  Uiso   1.00
C123   C    -0.00000   0.24999   0.97922   0.00000  Uiso   1.00
C124   C    -0.00000   0.24999   0.02024   0.00000  Uiso   1.00
C125   C     0.00365   0.17270   0.47942   0.00000  Uiso   1.00
C126   C     0.16998   0.08002   0.25000   0.00000  Uiso   1.00
C127   C     0.49511   0.32724   0.52040   0.00000  Uiso   1.00
C128   C     0.32730   0.49643   0.47942   0.00000  Uiso   1.00
C129   C     0.17276   0.00480   0.52041   0.00000  Uiso   1.00
C130   C     0.49635   0.32730   0.47942   0.00000  Uiso   1.00
C131   C     0.00489   0.17277   0.52041   0.00000  Uiso   1.00
C132   C     0.17269   0.00356   0.47942   0.00000  Uiso   1.00
C133   C     0.32724   0.49519   0.52041   0.00000  Uiso   1.00
C134   C     0.26508   0.42407   0.97983   0.00000  Uiso   1.00
C135   C     0.23571   0.07608   0.02080   0.00000  Uiso   1.00
C136   C     0.07612   0.23592   0.97920   0.00000  Uiso   1.00
H137   H     0.03662   0.13184   0.43647   0.00000  Uiso   1.00
H138   H     0.19682   0.11176   0.06348   0.00000  Uiso   1.00
H139   H     0.11190   0.19716   0.93651   0.00000  Uiso   1.00
H140   H     0.37656   0.24166   0.06276   0.00000  Uiso   1.00
H141   H     0.25797   0.12348   0.93727   0.00000  Uiso   1.00
H142   H     0.30319   0.38825   0.06348   0.00000  Uiso   1.00
H143   H     0.38805   0.30279   0.93654   0.00000  Uiso   1.00
H144   H     0.12347   0.25828   0.06272   0.00000  Uiso   1.00
H145   H     0.02345   0.37142   0.56332   0.00000  Uiso   1.00
H146   H     0.36819   0.46350   0.43646   0.00000  Uiso   1.00
H147   H     0.12861   0.47642   0.56332   0.00000  Uiso   1.00
H148   H     0.46337   0.36816   0.43647   0.00000  Uiso   1.00
H149   H     0.47655   0.12858   0.56332   0.00000  Uiso   1.00
H150   H     0.13180   0.03648   0.43647   0.00000  Uiso   1.00
H151   H     0.37140   0.02359   0.56331   0.00000  Uiso   1.00
H152   H     0.24204   0.37651   0.93728   0.00000  Uiso   1.00
O153   O     0.25000   0.00000   0.25000   0.00000  Uiso   1.00
O154   O     0.25000   0.46539   0.66251   0.00000  Uiso   1.00
O155   O     0.46538   0.25000   0.33749   0.00000  Uiso   1.00
O156   O     0.03461   0.25000   0.66251   0.00000  Uiso   1.00
O157   O     0.00000   0.21539   0.83749   0.00000  Uiso   1.00
O158   O    -0.00000   0.28462   0.16251   0.00000  Uiso   1.00
O159   O     0.28461   0.00000   0.83749   0.00000  Uiso   1.00
O160   O     0.21538   0.00000   0.16251   0.00000  Uiso   1.00
O161   O    -0.00000   0.28462   0.83749   0.00000  Uiso   1.00
O162   O    -0.00000   0.21539   0.16251   0.00000  Uiso   1.00
O163   O     0.21538   0.00000   0.83749   0.00000  Uiso   1.00
O164   O     0.25000   0.00000   0.75000   0.00000  Uiso   1.00
O165   O     0.28461   0.00000   0.16251   0.00000  Uiso   1.00
O166   O     0.20126   0.08332   0.27298   0.00000  Uiso   1.00
O167   O     0.29873   0.41668   0.72702   0.00000  Uiso   1.00
O168   O     0.41668   0.20127   0.27298   0.00000  Uiso   1.00
O169   O     0.08332   0.29874   0.72702   0.00000  Uiso   1.00
O170   O     0.29873   0.41668   0.27298   0.00000  Uiso   1.00
O171   O     0.20126   0.08332   0.72702   0.00000  Uiso   1.00
O172   O     0.08332   0.29874   0.27298   0.00000  Uiso   1.00
O173   O     0.41668   0.20127   0.72702   0.00000  Uiso   1.00
O174   O     0.20126   0.41668   0.72702   0.00000  Uiso   1.00
O175   O    -0.00000   0.25000   0.25000   0.00000  Uiso   1.00
O176   O     0.29873   0.08332   0.27298   0.00000  Uiso   1.00
O177   O     0.41668   0.29874   0.72702   0.00000  Uiso   1.00
O178   O     0.08332   0.20127   0.27298   0.00000  Uiso   1.00
O179   O     0.29873   0.08332   0.72702   0.00000  Uiso   1.00
O180   O     0.20126   0.41668   0.27298   0.00000  Uiso   1.00
O181   O     0.08332   0.20127   0.72702   0.00000  Uiso   1.00
O182   O     0.41668   0.29874   0.27298   0.00000  Uiso   1.00
O183   O     0.45126   0.33332   0.77298   0.00000  Uiso   1.00
O184   O     0.04873   0.16668   0.22702   0.00000  Uiso   1.00
O185   O     0.16668   0.45127   0.77298   0.00000  Uiso   1.00
O186   O    -0.00000   0.25000   0.75000   0.00000  Uiso   1.00
O187   O     0.33332   0.04874   0.22702   0.00000  Uiso   1.00
O188   O     0.04873   0.16668   0.77298   0.00000  Uiso   1.00
O189   O     0.45126   0.33332   0.22702   0.00000  Uiso   1.00
O190   O     0.33332   0.04874   0.77298   0.00000  Uiso   1.00
O191   O     0.16668   0.45127   0.22702   0.00000  Uiso   1.00
O192   O     0.45126   0.16668   0.22702   0.00000  Uiso   1.00
O193   O     0.04873   0.33332   0.77298   0.00000  Uiso   1.00
O194   O     0.16668   0.04874   0.22702   0.00000  Uiso   1.00
O195   O     0.33332   0.45127   0.77298   0.00000  Uiso   1.00
O196   O     0.04873   0.33332   0.22702   0.00000  Uiso   1.00
O197   O     0.25000   0.46539   0.33749   0.00000  Uiso   1.00
O198   O     0.45126   0.16668   0.77298   0.00000  Uiso   1.00
O199   O     0.33332   0.45127   0.22702   0.00000  Uiso   1.00
O200   O     0.16668   0.04874   0.77298   0.00000  Uiso   1.00
O201   O     0.49047   0.10157   0.46377   0.00000  Uiso   1.00
O202   O     0.47425   0.39654   0.53602   0.00000  Uiso   1.00
O203   O     0.39842   0.00968   0.46377   0.00000  Uiso   1.00
O204   O     0.10343   0.02559   0.53602   0.00000  Uiso   1.00
O205   O     0.00953   0.39844   0.46377   0.00000  Uiso   1.00
O206   O     0.02575   0.10346   0.53602   0.00000  Uiso   1.00
O207   O     0.10158   0.49029   0.46377   0.00000  Uiso   1.00
O208   O     0.25000   0.03462   0.66251   0.00000  Uiso   1.00
O209   O     0.39657   0.47440   0.53602   0.00000  Uiso   1.00
O210   O     0.29437   0.35790   0.96405   0.00000  Uiso   1.00
O211   O     0.23862   0.14831   0.03675   0.00000  Uiso   1.00
O212   O     0.14834   0.23903   0.96325   0.00000  Uiso   1.00
O213   O     0.35776   0.29391   0.03595   0.00000  Uiso   1.00
O214   O     0.20564   0.14210   0.96405   0.00000  Uiso   1.00
O215   O     0.26140   0.35169   0.03676   0.00000  Uiso   1.00
O216   O     0.35165   0.26086   0.96326   0.00000  Uiso   1.00
O217   O     0.14220   0.20599   0.03594   0.00000  Uiso   1.00
O218   O     0.03461   0.25000   0.33749   0.00000  Uiso   1.00
O219   O     0.46538   0.25000   0.66251   0.00000  Uiso   1.00
O220   O     0.25000   0.03462   0.33749   0.00000  Uiso   1.00
Zn221  Zn    0.20052   0.00000   0.21730   0.00000  Uiso   1.00
Zn222  Zn    0.04947   0.25000   0.28270   0.00000  Uiso   1.00
Zn223  Zn    0.25000   0.45053   0.71730   0.00000  Uiso   1.00
Zn224  Zn    0.25000   0.04948   0.28270   0.00000  Uiso   1.00
Zn225  Zn    0.04947   0.25000   0.71730   0.00000  Uiso   1.00
Zn226  Zn    0.45052   0.25000   0.28270   0.00000  Uiso   1.00
Zn227  Zn    0.25000   0.04948   0.71730   0.00000  Uiso   1.00
Zn228  Zn    0.25000   0.45053   0.28270   0.00000  Uiso   1.00
Zn229  Zn    0.29947   0.00000   0.78270   0.00000  Uiso   1.00
Zn230  Zn   -0.00000   0.20053   0.21730   0.00000  Uiso   1.00
Zn231  Zn   -0.00000   0.29948   0.78270   0.00000  Uiso   1.00
Zn232  Zn    0.29947   0.00000   0.21730   0.00000  Uiso   1.00
Zn233  Zn    0.20052   0.00000   0.78270   0.00000  Uiso   1.00
Zn234  Zn   -0.00000   0.29948   0.21730   0.00000  Uiso   1.00
Zn235  Zn    0.00000   0.20053   0.78270   0.00000  Uiso   1.00
Zn236  Zn    0.45052   0.25000   0.71730   0.00000  Uiso   1.00
Br237  Br    0.53193   0.33372   0.38874   0.00000  Uiso   1.00
Br238  Br    0.73050   0.41271   0.11165   0.00000  Uiso   1.00
Br239  Br    0.91277   0.23021   0.88836   0.00000  Uiso   1.00
Br240  Br    0.57444   0.19921   0.11050   0.00000  Uiso   1.00
Br241  Br    0.80100   0.42570   0.88952   0.00000  Uiso   1.00
Br242  Br    0.76950   0.08729   0.11165   0.00000  Uiso   1.00
Br243  Br    0.58723   0.26979   0.88837   0.00000  Uiso   1.00
Br244  Br    0.92558   0.30080   0.11048   0.00000  Uiso   1.00
Br245  Br    0.54106   0.17010   0.61093   0.00000  Uiso   1.00
Br246  Br    0.66632   0.46796   0.38875   0.00000  Uiso   1.00
Br247  Br    0.82995   0.45904   0.61094   0.00000  Uiso   1.00
Br248  Br    0.96806   0.16628   0.38875   0.00000  Uiso   1.00
Br249  Br    0.95894   0.32991   0.61093   0.00000  Uiso   1.00
Br250  Br    0.83368   0.03203   0.38875   0.00000  Uiso   1.00
Br251  Br    0.67005   0.04097   0.61093   0.00000  Uiso   1.00
Br252  Br    0.69899   0.07429   0.88952   0.00000  Uiso   1.00
C253   C     0.75000  -0.00000   0.35586   0.00000  Uiso   1.00
C254   C     0.83002   0.41998   0.75000   0.00000  Uiso   1.00
C255   C     0.92402   0.26483   0.02018   0.00000  Uiso   1.00
C256   C     0.73493   0.07593   0.97982   0.00000  Uiso   1.00
C257   C     0.76430   0.42392   0.02080   0.00000  Uiso   1.00
C258   C     0.92387   0.26403   0.97921   0.00000  Uiso   1.00
C259   C     0.57597   0.23512   0.02018   0.00000  Uiso   1.00
C260   C     0.51203   0.13281   0.45831   0.00000  Uiso   1.00
C261   C     0.99910   0.36781   0.54149   0.00000  Uiso   1.00
C262   C     0.86720   0.48809   0.45830   0.00000  Uiso   1.00
C263   C     0.63219   0.00077   0.54150   0.00000  Uiso   1.00
C264   C     0.98796   0.36720   0.45830   0.00000  Uiso   1.00
C265   C     0.91998   0.16997   0.25001   0.00000  Uiso   1.00
C266   C     0.50090   0.13219   0.54149   0.00000  Uiso   1.00
C267   C     0.63279   0.01189   0.45831   0.00000  Uiso   1.00
C268   C     0.86781   0.49923   0.54149   0.00000  Uiso   1.00
C269   C     0.76599   0.38324   0.95884   0.00000  Uiso   1.00
C270   C     0.72157   0.11434   0.04190   0.00000  Uiso   1.00
C271   C     0.61441   0.22189   0.95809   0.00000  Uiso   1.00
C272   C     0.88319   0.26563   0.04118   0.00000  Uiso   1.00
C273   C     0.73401   0.11676   0.95884   0.00000  Uiso   1.00
C274   C     0.77845   0.38567   0.04190   0.00000  Uiso   1.00
C275   C     0.88556   0.27804   0.95811   0.00000  Uiso   1.00
C276   C     0.58003   0.33002   0.75001   0.00000  Uiso   1.00
C277   C     0.61680   0.23431   0.04116   0.00000  Uiso   1.00
C278   C     0.83002   0.41998   0.25000   0.00000  Uiso   1.00
C279   C     0.66998   0.08002   0.75000   0.00000  Uiso   1.00
C280   C     0.58002   0.33003   0.25001   0.00000  Uiso   1.00
C281   C     0.91997   0.16998   0.75001   0.00000  Uiso   1.00
C282   C     0.66998   0.41997   0.75000   0.00000  Uiso   1.00
C283   C     0.83003   0.08002   0.25000   0.00000  Uiso   1.00
C284   C     0.91998   0.33002   0.74999   0.00000  Uiso   1.00
C285   C     0.75000   0.00000   0.64411   0.00000  Uiso   1.00
C286   C     0.58002   0.16999   0.24999   0.00000  Uiso   1.00
C287   C     0.83002   0.08003   0.75000   0.00000  Uiso   1.00
C288   C     0.66997   0.41998   0.25000   0.00000  Uiso   1.00
C289   C     0.58002   0.16998   0.74999   0.00000  Uiso   1.00
C290   C     0.91998   0.33001   0.24999   0.00000  Uiso   1.00
C291   C     0.63832   0.38834   0.25001   0.00000  Uiso   1.00
C292   C     0.86167   0.11168   0.75001   0.00000  Uiso   1.00
C293   C     0.61167   0.13834   0.24999   0.00000  Uiso   1.00
C294   C     0.88834   0.36167   0.74999   0.00000  Uiso   1.00
C295   C     0.86168   0.11166   0.25001   0.00000  Uiso   1.00
C296   C     0.50000   0.25000   0.35586   0.00000  Uiso   1.00
C297   C     0.63833   0.38833   0.75001   0.00000  Uiso   1.00
C298   C     0.88833   0.36166   0.24999   0.00000  Uiso   1.00
C299   C     0.61166   0.13833   0.74999   0.00000  Uiso   1.00
C300   C     0.63833   0.11166   0.74999   0.00000  Uiso   1.00
C301   C     0.86166   0.38833   0.24999   0.00000  Uiso   1.00
C302   C     0.61167   0.36167   0.75001   0.00000  Uiso   1.00
C303   C     0.88834   0.13832   0.25001   0.00000  Uiso   1.00
C304   C     0.86167   0.38834   0.74999   0.00000  Uiso   1.00
C305   C     0.63834   0.11167   0.24999   0.00000  Uiso   1.00
C306   C     0.88832   0.13833   0.75001   0.00000  Uiso   1.00
C307   C     0.50000   0.25000   0.64410   0.00000  Uiso   1.00
C308   C     0.61166   0.36168   0.25001   0.00000  Uiso   1.00
C309   C     0.50751   0.28752   0.41812   0.00000  Uiso   1.00
C310   C     0.51172   0.21354   0.58172   0.00000  Uiso   1.00
C311   C     0.71249   0.49244   0.41812   0.00000  Uiso   1.00
C312   C     0.78648   0.48832   0.58172   0.00000  Uiso   1.00
C313   C     0.99248   0.21248   0.41812   0.00000  Uiso   1.00
C314   C     0.98828   0.28647   0.58172   0.00000  Uiso   1.00
C315   C     0.78751   0.00756   0.41812   0.00000  Uiso   1.00
C316   C     0.71352   0.01168   0.58172   0.00000  Uiso   1.00
C317   C     0.73360   0.03466   0.91849   0.00000  Uiso   1.00
C318   C     0.50000   0.25000   0.85580   0.00000  Uiso   1.00
C319   C     0.74808   0.46179   0.08209   0.00000  Uiso   1.00
C320   C     0.96179   0.24794   0.91791   0.00000  Uiso   1.00
C321   C     0.53471   0.23370   0.08152   0.00000  Uiso   1.00
C322   C     0.76640   0.46534   0.91848   0.00000  Uiso   1.00
C323   C     0.75193   0.03821   0.08209   0.00000  Uiso   1.00
C324   C     0.53820   0.25205   0.91792   0.00000  Uiso   1.00
C325   C     0.96530   0.26629   0.08152   0.00000  Uiso   1.00
C326   C     0.50000   0.25000   0.39814   0.00000  Uiso   1.00
C327   C     0.50000   0.25000   0.60175   0.00000  Uiso   1.00
C328   C     0.75000  -0.00000   0.39814   0.00000  Uiso   1.00
C329   C     0.50000   0.25000   0.14405   0.00000  Uiso   1.00
C330   C     0.75000   0.00000   0.60176   0.00000  Uiso   1.00
C331   C     0.75000  -0.00000   0.89838   0.00000  Uiso   1.00
C332   C     0.75000   0.00000   0.10199   0.00000  Uiso   1.00
C333   C     0.50000   0.25000   0.89801   0.00000  Uiso   1.00
C334   C     0.50000   0.25000   0.10163   0.00000  Uiso   1.00
C335   C     0.99919   0.21116   0.45881   0.00000  Uiso   1.00
C336   C     0.99489   0.28852   0.54103   0.00000  Uiso   1.00
C337   C     0.78884   0.00085   0.45882   0.00000  Uiso   1.00
C338   C     0.71148   0.00507   0.54103   0.00000  Uiso   1.00
C339   C     0.50080   0.28885   0.45881   0.00000  Uiso   1.00
C340   C     0.75000  -0.00000   0.85595   0.00000  Uiso   1.00
C341   C     0.50511   0.21148   0.54103   0.00000  Uiso   1.00
C342   C     0.71115   0.49915   0.45882   0.00000  Uiso   1.00
C343   C     0.78852   0.49493   0.54103   0.00000  Uiso   1.00
C344   C     0.76012   0.46248   0.95918   0.00000  Uiso   1.00
C345   C     0.74530   0.03859   0.04139   0.00000  Uiso   1.00
C346   C     0.53859   0.24541   0.95861   0.00000  Uiso   1.00
C347   C     0.96245   0.26000   0.04083   0.00000  Uiso   1.00
C348   C     0.73988   0.03752   0.95918   0.00000  Uiso   1.00
C349   C     0.75470   0.46141   0.04139   0.00000  Uiso   1.00
C350   C     0.96140   0.25456   0.95861   0.00000  Uiso   1.00
C351   C     0.75000   0.00000   0.14420   0.00000  Uiso   1.00
C352   C     0.53755   0.23998   0.04083   0.00000  Uiso   1.00
C353   C     0.50000   0.25000   0.47942   0.00000  Uiso   1.00
C354   C     0.50000   0.25000   0.52043   0.00000  Uiso   1.00
C355   C     0.75000  -0.00000   0.47942   0.00000  Uiso   1.00
C356   C     0.75000  -0.00000   0.52043   0.00000  Uiso   1.00
C357   C     0.75000  -0.00000   0.97977   0.00000  Uiso   1.00
C358   C     0.75000  -0.00000   0.02078   0.00000  Uiso   1.00
C359   C     0.50000   0.24999   0.97922   0.00000  Uiso   1.00
C360   C     0.50000   0.24999   0.02024   0.00000  Uiso   1.00
C361   C     0.50365   0.17270   0.47942   0.00000  Uiso   1.00
C362   C     0.66998   0.08002   0.25000   0.00000  Uiso   1.00
C363   C     0.99511   0.32724   0.52040   0.00000  Uiso   1.00
C364   C     0.82730   0.49643   0.47942   0.00000  Uiso   1.00
C365   C     0.67276   0.00480   0.52041   0.00000  Uiso   1.00
C366   C     0.99635   0.32730   0.47942   0.00000  Uiso   1.00
C367   C     0.50489   0.17277   0.52041   0.00000  Uiso   1.00
C368   C     0.67269   0.00356   0.47942   0.00000  Uiso   1.00
C369   C     0.82724   0.49519   0.52041   0.00000  Uiso   1.00
C370   C     0.76508   0.42407   0.97983   0.00000  Uiso   1.00
C371   C     0.73571   0.07608   0.02080   0.00000  Uiso   1.00
C372   C     0.57612   0.23592   0.97920   0.00000  Uiso   1.00
H373   H     0.53662   0.13184   0.43647   0.00000  Uiso   1.00
H374   H     0.69682   0.11176   0.06348   0.00000  Uiso   1.00
H375   H     0.61190   0.19716   0.93651   0.00000  Uiso   1.00
H376   H     0.87656   0.24166   0.06276   0.00000  Uiso   1.00
H377   H     0.75797   0.12348   0.93727   0.00000  Uiso   1.00
H378   H     0.80319   0.38825   0.06348   0.00000  Uiso   1.00
H379   H     0.88805   0.30279   0.93654   0.00000  Uiso   1.00
H380   H     0.62347   0.25828   0.06272   0.00000  Uiso   1.00
H381   H     0.52345   0.37142   0.56332   0.00000  Uiso   1.00
H382   H     0.86819   0.46350   0.43646   0.00000  Uiso   1.00
H383   H     0.62861   0.47642   0.56332   0.00000  Uiso   1.00
H384   H     0.96337   0.36816   0.43647   0.00000  Uiso   1.00
H385   H     0.97655   0.12858   0.56332   0.00000  Uiso   1.00
H386   H     0.63180   0.03648   0.43647   0.00000  Uiso   1.00
H387   H     0.87140   0.02359   0.56331   0.00000  Uiso   1.00
H388   H     0.74204   0.37651   0.93728   0.00000  Uiso   1.00
O389   O     0.75000   0.00000   0.25000   0.00000  Uiso   1.00
O390   O     0.75000   0.46539   0.66251   0.00000  Uiso   1.00
O391   O     0.96538   0.25000   0.33749   0.00000  Uiso   1.00
O392   O     0.53461   0.25000   0.66251   0.00000  Uiso   1.00
O393   O     0.50000   0.21539   0.83749   0.00000  Uiso   1.00
O394   O     0.50000   0.28462   0.16251   0.00000  Uiso   1.00
O395   O     0.78461   0.00000   0.83749   0.00000  Uiso   1.00
O396   O     0.71538   0.00000   0.16251   0.00000  Uiso   1.00
O397   O     0.50000   0.28462   0.83749   0.00000  Uiso   1.00
O398   O     0.50000   0.21539   0.16251   0.00000  Uiso   1.00
O399   O     0.71538   0.00000   0.83749   0.00000  Uiso   1.00
O400   O     0.75000   0.00000   0.75000   0.00000  Uiso   1.00
O401   O     0.78461   0.00000   0.16251   0.00000  Uiso   1.00
O402   O     0.70126   0.08332   0.27298   0.00000  Uiso   1.00
O403   O     0.79873   0.41668   0.72702   0.00000  Uiso   1.00
O404   O     0.91668   0.20127   0.27298   0.00000  Uiso   1.00
O405   O     0.58332   0.29874   0.72702   0.00000  Uiso   1.00
O406   O     0.79873   0.41668   0.27298   0.00000  Uiso   1.00
O407   O     0.70126   0.08332   0.72702   0.00000  Uiso   1.00
O408   O     0.58332   0.29874   0.27298   0.00000  Uiso   1.00
O409   O     0.91668   0.20127   0.72702   0.00000  Uiso   1.00
O410   O     0.70126   0.41668   0.72702   0.00000  Uiso   1.00
O411   O     0.50000   0.25000   0.25000   0.00000  Uiso   1.00
O412   O     0.79873   0.08332   0.27298   0.00000  Uiso   1.00
O413   O     0.91668   0.29874   0.72702   0.00000  Uiso   1.00
O414   O     0.58332   0.20127   0.27298   0.00000  Uiso   1.00
O415   O     0.79873   0.08332   0.72702   0.00000  Uiso   1.00
O416   O     0.70126   0.41668   0.27298   0.00000  Uiso   1.00
O417   O     0.58332   0.20127   0.72702   0.00000  Uiso   1.00
O418   O     0.91668   0.29874   0.27298   0.00000  Uiso   1.00
O419   O     0.95126   0.33332   0.77298   0.00000  Uiso   1.00
O420   O     0.54873   0.16668   0.22702   0.00000  Uiso   1.00
O421   O     0.66668   0.45127   0.77298   0.00000  Uiso   1.00
O422   O     0.50000   0.25000   0.75000   0.00000  Uiso   1.00
O423   O     0.83332   0.04874   0.22702   0.00000  Uiso   1.00
O424   O     0.54873   0.16668   0.77298   0.00000  Uiso   1.00
O425   O     0.95126   0.33332   0.22702   0.00000  Uiso   1.00
O426   O     0.83332   0.04874   0.77298   0.00000  Uiso   1.00
O427   O     0.66668   0.45127   0.22702   0.00000  Uiso   1.00
O428   O     0.95126   0.16668   0.22702   0.00000  Uiso   1.00
O429   O     0.54873   0.33332   0.77298   0.00000  Uiso   1.00
O430   O     0.66668   0.04874   0.22702   0.00000  Uiso   1.00
O431   O     0.83332   0.45127   0.77298   0.00000  Uiso   1.00
O432   O     0.54873   0.33332   0.22702   0.00000  Uiso   1.00
O433   O     0.75000   0.46539   0.33749   0.00000  Uiso   1.00
O434   O     0.95126   0.16668   0.77298   0.00000  Uiso   1.00
O435   O     0.83332   0.45127   0.22702   0.00000  Uiso   1.00
O436   O     0.66668   0.04874   0.77298   0.00000  Uiso   1.00
O437   O     0.99047   0.10157   0.46377   0.00000  Uiso   1.00
O438   O     0.97425   0.39654   0.53602   0.00000  Uiso   1.00
O439   O     0.89842   0.00968   0.46377   0.00000  Uiso   1.00
O440   O     0.60343   0.02559   0.53602   0.00000  Uiso   1.00
O441   O     0.50953   0.39844   0.46377   0.00000  Uiso   1.00
O442   O     0.52575   0.10346   0.53602   0.00000  Uiso   1.00
O443   O     0.60158   0.49029   0.46377   0.00000  Uiso   1.00
O444   O     0.75000   0.03462   0.66251   0.00000  Uiso   1.00
O445   O     0.89657   0.47440   0.53602   0.00000  Uiso   1.00
O446   O     0.79437   0.35790   0.96405   0.00000  Uiso   1.00
O447   O     0.73862   0.14831   0.03675   0.00000  Uiso   1.00
O448   O     0.64834   0.23903   0.96325   0.00000  Uiso   1.00
O449   O     0.85776   0.29391   0.03595   0.00000  Uiso   1.00
O450   O     0.70564   0.14210   0.96405   0.00000  Uiso   1.00
O451   O     0.76140   0.35169   0.03676   0.00000  Uiso   1.00
O452   O     0.85165   0.26086   0.96326   0.00000  Uiso   1.00
O453   O     0.64220   0.20599   0.03594   0.00000  Uiso   1.00
O454   O     0.53461   0.25000   0.33749   0.00000  Uiso   1.00
O455   O     0.96538   0.25000   0.66251   0.00000  Uiso   1.00
O456   O     0.75000   0.03462   0.33749   0.00000  Uiso   1.00
Zn457  Zn    0.70052   0.00000   0.21730   0.00000  Uiso   1.00
Zn458  Zn    0.54947   0.25000   0.28270   0.00000  Uiso   1.00
Zn459  Zn    0.75000   0.45053   0.71730   0.00000  Uiso   1.00
Zn460  Zn    0.75000   0.04948   0.28270   0.00000  Uiso   1.00
Zn461  Zn    0.54947   0.25000   0.71730   0.00000  Uiso   1.00
Zn462  Zn    0.95052   0.25000   0.28270   0.00000  Uiso   1.00
Zn463  Zn    0.75000   0.04948   0.71730   0.00000  Uiso   1.00
Zn464  Zn    0.75000   0.45053   0.28270   0.00000  Uiso   1.00
Zn465  Zn    0.79947   0.00000   0.78270   0.00000  Uiso   1.00
Zn466  Zn    0.50000   0.20053   0.21730   0.00000  Uiso   1.00
Zn467  Zn    0.50000   0.29948   0.78270   0.00000  Uiso   1.00
Zn468  Zn    0.79947   0.00000   0.21730   0.00000  Uiso   1.00
Zn469  Zn    0.70052   0.00000   0.78270   0.00000  Uiso   1.00
Zn470  Zn    0.50000   0.29948   0.21730   0.00000  Uiso   1.00
Zn471  Zn    0.50000   0.20053   0.78270   0.00000  Uiso   1.00
Zn472  Zn    0.95052   0.25000   0.71730   0.00000  Uiso   1.00
Br473  Br    0.03193   0.83372   0.38874   0.00000  Uiso   1.00
Br474  Br    0.23050   0.91271   0.11165   0.00000  Uiso   1.00
Br475  Br    0.41277   0.73021   0.88836   0.00000  Uiso   1.00
Br476  Br    0.07444   0.69921   0.11050   0.00000  Uiso   1.00
Br477  Br    0.30100   0.92570   0.88952   0.00000  Uiso   1.00
Br478  Br    0.26950   0.58729   0.11165   0.00000  Uiso   1.00
Br479  Br    0.08723   0.76979   0.88837   0.00000  Uiso   1.00
Br480  Br    0.42558   0.80080   0.11048   0.00000  Uiso   1.00
Br481  Br    0.04106   0.67010   0.61093   0.00000  Uiso   1.00
Br482  Br    0.16632   0.96796   0.38875   0.00000  Uiso   1.00
Br483  Br    0.32995   0.95904   0.61094   0.00000  Uiso   1.00
Br484  Br    0.46806   0.66628   0.38875   0.00000  Uiso   1.00
Br485  Br    0.45894   0.82991   0.61093   0.00000  Uiso   1.00
Br486  Br    0.33368   0.53203   0.38875   0.00000  Uiso   1.00
Br487  Br    0.17005   0.54097   0.61093   0.00000  Uiso   1.00
Br488  Br    0.19899   0.57429   0.88952   0.00000  Uiso   1.00
C489   C     0.25000   0.50000   0.35586   0.00000  Uiso   1.00
C490   C     0.33002   0.91998   0.75000   0.00000  Uiso   1.00
C491   C     0.42402   0.76483   0.02018   0.00000  Uiso   1.00
C492   C     0.23493   0.57593   0.97982   0.00000  Uiso   1.00
C493   C     0.26430   0.92392   0.02080   0.00000  Uiso   1.00
C494   C     0.42387   0.76403   0.97921   0.00000  Uiso   1.00
C495   C     0.07597   0.73512   0.02018   0.00000  Uiso   1.00
C496   C     0.01203   0.63281   0.45831   0.00000  Uiso   1.00
C497   C     0.49910   0.86781   0.54149   0.00000  Uiso   1.00
C498   C     0.36720   0.98809   0.45830   0.00000  Uiso   1.00
C499   C     0.13219   0.50077   0.54150   0.00000  Uiso   1.00
C500   C     0.48796   0.86720   0.45830   0.00000  Uiso   1.00
C501   C     0.41998   0.66997   0.25001   0.00000  Uiso   1.00
C502   C     0.00090   0.63219   0.54149   0.00000  Uiso   1.00
C503   C     0.13279   0.51189   0.45831   0.00000  Uiso   1.00
C504   C     0.36781   0.99923   0.54149   0.00000  Uiso   1.00
C505   C     0.26599   0.88324   0.95884   0.00000  Uiso   1.00
C506   C     0.22157   0.61434   0.04190   0.00000  Uiso   1.00
C507   C     0.11441   0.72189   0.95809   0.00000  Uiso   1.00
C508   C     0.38319   0.76563   0.04118   0.00000  Uiso   1.00
C509   C     0.23401   0.61676   0.95884   0.00000  Uiso   1.00
C510   C     0.27845   0.88567   0.04190   0.00000  Uiso   1.00
C511   C     0.38556   0.77804   0.95811   0.00000  Uiso   1.00
C512   C     0.08003   0.83002   0.75001   0.00000  Uiso   1.00
C513   C     0.11680   0.73431   0.04116   0.00000  Uiso   1.00
C514   C     0.33002   0.91998   0.25000   0.00000  Uiso   1.00
C515   C     0.16998   0.58002   0.75000   0.00000  Uiso   1.00
C516   C     0.08002   0.83003   0.25001   0.00000  Uiso   1.00
C517   C     0.41997   0.66998   0.75001   0.00000  Uiso   1.00
C518   C     0.16998   0.91997   0.75000   0.00000  Uiso   1.00
C519   C     0.33003   0.58002   0.25000   0.00000  Uiso   1.00
C520   C     0.41998   0.83002   0.74999   0.00000  Uiso   1.00
C521   C     0.25000   0.50000   0.64411   0.00000  Uiso   1.00
C522   C     0.08002   0.66999   0.24999   0.00000  Uiso   1.00
C523   C     0.33002   0.58003   0.75000   0.00000  Uiso   1.00
C524   C     0.16997   0.91998   0.25000   0.00000  Uiso   1.00
C525   C     0.08002   0.66998   0.74999   0.00000  Uiso   1.00
C526   C     0.41998   0.83001   0.24999   0.00000  Uiso   1.00
C527   C     0.13832   0.88834   0.25001   0.00000  Uiso   1.00
C528   C     0.36167   0.61168   0.75001   0.00000  Uiso   1.00
C529   C     0.11167   0.63834   0.24999   0.00000  Uiso   1.00
C530   C     0.38834   0.86167   0.74999   0.00000  Uiso   1.00
C531   C     0.36168   0.61166   0.25001   0.00000  Uiso   1.00
C532   C    -0.00000   0.75000   0.35586   0.00000  Uiso   1.00
C533   C     0.13833   0.88833   0.75001   0.00000  Uiso   1.00
C534   C     0.38833   0.86166   0.24999   0.00000  Uiso   1.00
C535   C     0.11166   0.63833   0.74999   0.00000  Uiso   1.00
C536   C     0.13833   0.61166   0.74999   0.00000  Uiso   1.00
C537   C     0.36166   0.88833   0.24999   0.00000  Uiso   1.00
C538   C     0.11167   0.86167   0.75001   0.00000  Uiso   1.00
C539   C     0.38834   0.63832   0.25001   0.00000  Uiso   1.00
C540   C     0.36167   0.88834   0.74999   0.00000  Uiso   1.00
C541   C     0.13834   0.61167   0.24999   0.00000  Uiso   1.00
C542   C     0.38832   0.63833   0.75001   0.00000  Uiso   1.00
C543   C     0.00000   0.75000   0.64410   0.00000  Uiso   1.00
C544   C     0.11166   0.86168   0.25001   0.00000  Uiso   1.00
C545   C     0.00751   0.78752   0.41812   0.00000  Uiso   1.00
C546   C     0.01172   0.71354   0.58172   0.00000  Uiso   1.00
C547   C     0.21249   0.99244   0.41812   0.00000  Uiso   1.00
C548   C     0.28648   0.98832   0.58172   0.00000  Uiso   1.00
C549   C     0.49248   0.71248   0.41812   0.00000  Uiso   1.00
C550   C     0.48828   0.78647   0.58172   0.00000  Uiso   1.00
C551   C     0.28751   0.50756   0.41812   0.00000  Uiso   1.00
C552   C     0.21352   0.51168   0.58172   0.00000  Uiso   1.00
C553   C     0.23360   0.53466   0.91849   0.00000  Uiso   1.00
C554   C    -0.00000   0.75000   0.85580   0.00000  Uiso   1.00
C555   C     0.24808   0.96179   0.08209   0.00000  Uiso   1.00
C556   C     0.46179   0.74794   0.91791   0.00000  Uiso   1.00
C557   C     0.03471   0.73370   0.08152   0.00000  Uiso   1.00
C558   C     0.26640   0.96534   0.91848   0.00000  Uiso   1.00
C559   C     0.25193   0.53821   0.08209   0.00000  Uiso   1.00
C560   C     0.03820   0.75205   0.91792   0.00000  Uiso   1.00
C561   C     0.46530   0.76629   0.08152   0.00000  Uiso   1.00
C562   C    -0.00000   0.75000   0.39814   0.00000  Uiso   1.00
C563   C     0.00000   0.75000   0.60175   0.00000  Uiso   1.00
C564   C     0.25000   0.50000   0.39814   0.00000  Uiso   1.00
C565   C     0.00000   0.75000   0.14405   0.00000  Uiso   1.00
C566   C     0.25000   0.50000   0.60176   0.00000  Uiso   1.00
C567   C     0.25000   0.50000   0.89838   0.00000  Uiso   1.00
C568   C     0.25000   0.50000   0.10199   0.00000  Uiso   1.00
C569   C    -0.00000   0.75000   0.89801   0.00000  Uiso   1.00
C570   C     0.00000   0.75000   0.10163   0.00000  Uiso   1.00
C571   C     0.49919   0.71116   0.45881   0.00000  Uiso   1.00
C572   C     0.49489   0.78852   0.54103   0.00000  Uiso   1.00
C573   C     0.28884   0.50085   0.45882   0.00000  Uiso   1.00
C574   C     0.21148   0.50507   0.54103   0.00000  Uiso   1.00
C575   C     0.00080   0.78885   0.45881   0.00000  Uiso   1.00
C576   C     0.25000   0.50000   0.85595   0.00000  Uiso   1.00
C577   C     0.00511   0.71148   0.54103   0.00000  Uiso   1.00
C578   C     0.21115   0.99915   0.45882   0.00000  Uiso   1.00
C579   C     0.28852   0.99493   0.54103   0.00000  Uiso   1.00
C580   C     0.26012   0.96248   0.95918   0.00000  Uiso   1.00
C581   C     0.24530   0.53859   0.04139   0.00000  Uiso   1.00
C582   C     0.03859   0.74541   0.95861   0.00000  Uiso   1.00
C583   C     0.46245   0.76000   0.04083   0.00000  Uiso   1.00
C584   C     0.23988   0.53752   0.95918   0.00000  Uiso   1.00
C585   C     0.25470   0.96141   0.04139   0.00000  Uiso   1.00
C586   C     0.46140   0.75456   0.95861   0.00000  Uiso   1.00
C587   C     0.25000   0.50000   0.14420   0.00000  Uiso   1.00
C588   C     0.03755   0.73998   0.04083   0.00000  Uiso   1.00
C589   C    -0.00000   0.75000   0.47942   0.00000  Uiso   1.00
C590   C    -0.00000   0.75000   0.52043   0.00000  Uiso   1.00
C591   C     0.25000   0.50000   0.47942   0.00000  Uiso   1.00
C592   C     0.25000   0.50000   0.52043   0.00000  Uiso   1.00
C593   C     0.25000   0.50000   0.97977   0.00000  Uiso   1.00
C594   C     0.25000   0.50000   0.02078   0.00000  Uiso   1.00
C595   C    -0.00000   0.74999   0.97922   0.00000  Uiso   1.00
C596   C    -0.00000   0.74999   0.02024   0.00000  Uiso   1.00
C597   C     0.00365   0.67270   0.47942   0.00000  Uiso   1.00
C598   C     0.16998   0.58002   0.25000   0.00000  Uiso   1.00
C599   C     0.49511   0.82724   0.52040   0.00000  Uiso   1.00
C600   C     0.32730   0.99643   0.47942   0.00000  Uiso   1.00
C601   C     0.17276   0.50480   0.52041   0.00000  Uiso   1.00
C602   C     0.49635   0.82730   0.47942   0.00000  Uiso   1.00
C603   C     0.00489   0.67277   0.52041   0.00000  Uiso   1.00
C604   C     0.17269   0.50356   0.47942   0.00000  Uiso   1.00
C605   C     0.32724   0.99519   0.52041   0.00000  Uiso   1.00
C606   C     0.26508   0.92407   0.97983   0.00000  Uiso   1.00
C607   C     0.23571   0.57608   0.02080   0.00000  Uiso   1.00
C608   C     0.07612   0.73592   0.97920   0.00000  Uiso   1.00
H609   H     0.03662   0.63184   0.43647   0.00000  Uiso   1.00
H610   H     0.19682   0.61176   0.06348   0.00000  Uiso   1.00
H611   H     0.11190   0.69716   0.93651   0.00000  Uiso   1.00
H612   H     0.37656   0.74166   0.06276   0.00000  Uiso   1.00
H613   H     0.25797   0.62348   0.93727   0.00000  Uiso   1.00
H614   H     0.30319   0.88825   0.06348   0.00000  Uiso   1.00
H615   H     0.38805   0.80279   0.93654   0.00000  Uiso   1.00
H616   H     0.12347   0.75828   0.06272   0.00000  Uiso   1.00
H617   H     0.02345   0.87142   0.56332   0.00000  Uiso   1.00
H618   H     0.36819   0.96350   0.43646   0.00000  Uiso   1.00
H619   H     0.12861   0.97642   0.56332   0.00000  Uiso   1.00
H620   H     0.46337   0.86816   0.43647   0.00000  Uiso   1.00
H621   H     0.47655   0.62858   0.56332   0.00000  Uiso   1.00
H622   H     0.13180   0.53648   0.43647   0.00000  Uiso   1.00
H623   H     0.37140   0.52359   0.56331   0.00000  Uiso   1.00
H624   H     0.24204   0.87651   0.93728   0.00000  Uiso   1.00
O625   O     0.25000   0.50000   0.25000   0.00000  Uiso   1.00
O626   O     0.25000   0.96539   0.66251   0.00000  Uiso   1.00
O627   O     0.46538   0.75000   0.33749   0.00000  Uiso   1.00
O628   O     0.03461   0.75000   0.66251   0.00000  Uiso   1.00
O629   O     0.00000   0.71539   0.83749   0.00000  Uiso   1.00
O630   O    -0.00000   0.78462   0.16251   0.00000  Uiso   1.00
O631   O     0.28461   0.50000   0.83749   0.00000  Uiso   1.00
O632   O     0.21538   0.50000   0.16251   0.00000  Uiso   1.00
O633   O    -0.00000   0.78462   0.83749   0.00000  Uiso   1.00
O634   O    -0.00000   0.71539   0.16251   0.00000  Uiso   1.00
O635   O     0.21538   0.50000   0.83749   0.00000  Uiso   1.00
O636   O     0.25000   0.50000   0.75000   0.00000  Uiso   1.00
O637   O     0.28461   0.50000   0.16251   0.00000  Uiso   1.00
O638   O     0.20126   0.58332   0.27298   0.00000  Uiso   1.00
O639   O     0.29873   0.91668   0.72702   0.00000  Uiso   1.00
O640   O     0.41668   0.70127   0.27298   0.00000  Uiso   1.00
O641   O     0.08332   0.79874   0.72702   0.00000  Uiso   1.00
O642   O     0.29873   0.91668   0.27298   0.00000  Uiso   1.00
O643   O     0.20126   0.58332   0.72702   0.00000  Uiso   1.00
O644   O     0.08332   0.79874   0.27298   0.00000  Uiso   1.00
O645   O     0.41668   0.70127   0.72702   0.00000  Uiso   1.00
O646   O     0.20126   0.91668   0.72702   0.00000  Uiso   1.00
O647   O    -0.00000   0.75000   0.25000   0.00000  Uiso   1.00
O648   O     0.29873   0.58332   0.27298   0.00000  Uiso   1.00
O649   O     0.41668   0.79874   0.72702   0.00000  Uiso   1.00
O650   O     0.08332   0.70127   0.27298   0.00000  Uiso   1.00
O651   O     0.29873   0.58332   0.72702   0.00000  Uiso   1.00
O652   O     0.20126   0.91668   0.27298   0.00000  Uiso   1.00
O653   O     0.08332   0.70127   0.72702   0.00000  Uiso   1.00
O654   O     0.41668   0.79874   0.27298   0.00000  Uiso   1.00
O655   O     0.45126   0.83332   0.77298   0.00000  Uiso   1.00
O656   O     0.04873   0.66668   0.22702   0.00000  Uiso   1.00
O657   O     0.16668   0.95127   0.77298   0.00000  Uiso   1.00
O658   O    -0.00000   0.75000   0.75000   0.00000  Uiso   1.00
O659   O     0.33332   0.54874   0.22702   0.00000  Uiso   1.00
O660   O     0.04873   0.66668   0.77298   0.00000  Uiso   1.00
O661   O     0.45126   0.83332   0.22702   0.00000  Uiso   1.00
O662   O     0.33332   0.54874   0.77298   0.00000  Uiso   1.00
O663   O     0.16668   0.95127   0.22702   0.00000  Uiso   1.00
O664   O     0.45126   0.66668   0.22702   0.00000  Uiso   1.00
O665   O     0.04873   0.83332   0.77298   0.00000  Uiso   1.00
O666   O     0.16668   0.54874   0.22702   0.00000  Uiso   1.00
O667   O     0.33332   0.95127   0.77298   0.00000  Uiso   1.00
O668   O     0.04873   0.83332   0.22702   0.00000  Uiso   1.00
O669   O     0.25000   0.96539   0.33749   0.00000  Uiso   1.00
O670   O     0.45126   0.66668   0.77298   0.00000  Uiso   1.00
O671   O     0.33332   0.95127   0.22702   0.00000  Uiso   1.00
O672   O     0.16668   0.54874   0.77298   0.00000  Uiso   1.00
O673   O     0.49047   0.60157   0.46377   0.00000  Uiso   1.00
O674   O     0.47425   0.89654   0.53602   0.00000  Uiso   1.00
O675   O     0.39842   0.50968   0.46377   0.00000  Uiso   1.00
O676   O     0.10343   0.52559   0.53602   0.00000  Uiso   1.00
O677   O     0.00953   0.89844   0.46377   0.00000  Uiso   1.00
O678   O     0.02575   0.60346   0.53602   0.00000  Uiso   1.00
O679   O     0.10158   0.99029   0.46377   0.00000  Uiso   1.00
O680   O     0.25000   0.53462   0.66251   0.00000  Uiso   1.00
O681   O     0.39657   0.97440   0.53602   0.00000  Uiso   1.00
O682   O     0.29437   0.85790   0.96405   0.00000  Uiso   1.00
O683   O     0.23862   0.64831   0.03675   0.00000  Uiso   1.00
O684   O     0.14834   0.73903   0.96325   0.00000  Uiso   1.00
O685   O     0.35776   0.79391   0.03595   0.00000  Uiso   1.00
O686   O     0.20564   0.64210   0.96405   0.00000  Uiso   1.00
O687   O     0.26140   0.85169   0.03676   0.00000  Uiso   1.00
O688   O     0.35165   0.76086   0.96326   0.00000  Uiso   1.00
O689   O     0.14220   0.70599   0.03594   0.00000  Uiso   1.00
O690   O     0.03461   0.75000   0.33749   0.00000  Uiso   1.00
O691   O     0.46538   0.75000   0.66251   0.00000  Uiso   1.00
O692   O     0.25000   0.53462   0.33749   0.00000  Uiso   1.00
Zn693  Zn    0.20052   0.50000   0.21730   0.00000  Uiso   1.00
Zn694  Zn    0.04947   0.75000   0.28270   0.00000  Uiso   1.00
Zn695  Zn    0.25000   0.95053   0.71730   0.00000  Uiso   1.00
Zn696  Zn    0.25000   0.54948   0.28270   0.00000  Uiso   1.00
Zn697  Zn    0.04947   0.75000   0.71730   0.00000  Uiso   1.00
Zn698  Zn    0.45052   0.75000   0.28270   0.00000  Uiso   1.00
Zn699  Zn    0.25000   0.54948   0.71730   0.00000  Uiso   1.00
Zn700  Zn    0.25000   0.95053   0.28270   0.00000  Uiso   1.00
Zn701  Zn    0.29947   0.50000   0.78270   0.00000  Uiso   1.00
Zn702  Zn   -0.00000   0.70053   0.21730   0.00000  Uiso   1.00
Zn703  Zn   -0.00000   0.79948   0.78270   0.00000  Uiso   1.00
Zn704  Zn    0.29947   0.50000   0.21730   0.00000  Uiso   1.00
Zn705  Zn    0.20052   0.50000   0.78270   0.00000  Uiso   1.00
Zn706  Zn   -0.00000   0.79948   0.21730   0.00000  Uiso   1.00
Zn707  Zn    0.00000   0.70053   0.78270   0.00000  Uiso   1.00
Zn708  Zn    0.45052   0.75000   0.71730   0.00000  Uiso   1.00
Br709  Br    0.53193   0.83372   0.38874   0.00000  Uiso   1.00
Br710  Br    0.73050   0.91271   0.11165   0.00000  Uiso   1.00
Br711  Br    0.91277   0.73021   0.88836   0.00000  Uiso   1.00
Br712  Br    0.57444   0.69921   0.11050   0.00000  Uiso   1.00
Br713  Br    0.80100   0.92570   0.88952   0.00000  Uiso   1.00
Br714  Br    0.76950   0.58729   0.11165   0.00000  Uiso   1.00
Br715  Br    0.58723   0.76979   0.88837   0.00000  Uiso   1.00
Br716  Br    0.92558   0.80080   0.11048   0.00000  Uiso   1.00
Br717  Br    0.54106   0.67010   0.61093   0.00000  Uiso   1.00
Br718  Br    0.66632   0.96796   0.38875   0.00000  Uiso   1.00
Br719  Br    0.82995   0.95904   0.61094   0.00000  Uiso   1.00
Br720  Br    0.96806   0.66628   0.38875   0.00000  Uiso   1.00
Br721  Br    0.95894   0.82991   0.61093   0.00000  Uiso   1.00
Br722  Br    0.83368   0.53203   0.38875   0.00000  Uiso   1.00
Br723  Br    0.67005   0.54097   0.61093   0.00000  Uiso   1.00
Br724  Br    0.69899   0.57429   0.88952   0.00000  Uiso   1.00
C725   C     0.75000   0.50000   0.35586   0.00000  Uiso   1.00
C726   C     0.83002   0.91998   0.75000   0.00000  Uiso   1.00
C727   C     0.92402   0.76483   0.02018   0.00000  Uiso   1.00
C728   C     0.73493   0.57593   0.97982   0.00000  Uiso   1.00
C729   C     0.76430   0.92392   0.02080   0.00000  Uiso   1.00
C730   C     0.92387   0.76403   0.97921   0.00000  Uiso   1.00
C731   C     0.57597   0.73512   0.02018   0.00000  Uiso   1.00
C732   C     0.51203   0.63281   0.45831   0.00000  Uiso   1.00
C733   C     0.99910   0.86781   0.54149   0.00000  Uiso   1.00
C734   C     0.86720   0.98809   0.45830   0.00000  Uiso   1.00
C735   C     0.63219   0.50077   0.54150   0.00000  Uiso   1.00
C736   C     0.98796   0.86720   0.45830   0.00000  Uiso   1.00
C737   C     0.91998   0.66997   0.25001   0.00000  Uiso   1.00
C738   C     0.50090   0.63219   0.54149   0.00000  Uiso   1.00
C739   C     0.63279   0.51189   0.45831   0.00000  Uiso   1.00
C740   C     0.86781   0.99923   0.54149   0.00000  Uiso   1.00
C741   C     0.76599   0.88324   0.95884   0.00000  Uiso   1.00
C742   C     0.72157   0.61434   0.04190   0.00000  Uiso   1.00
C743   C     0.61441   0.72189   0.95809   0.00000  Uiso   1.00
C744   C     0.88319   0.76563   0.04118   0.00000  Uiso   1.00
C745   C     0.73401   0.61676   0.95884   0.00000  Uiso   1.00
C746   C     0.77845   0.88567   0.04190   0.00000  Uiso   1.00
C747   C     0.88556   0.77804   0.95811   0.00000  Uiso   1.00
C748   C     0.58003   0.83002   0.75001   0.00000  Uiso   1.00
C749   C     0.61680   0.73431   0.04116   0.00000  Uiso   1.00
C750   C     0.83002   0.91998   0.25000   0.00000  Uiso   1.00
C751   C     0.66998   0.58002   0.75000   0.00000  Uiso   1.00
C752   C     0.58002   0.83003   0.25001   0.00000  Uiso   1.00
C753   C     0.91997   0.66998   0.75001   0.00000  Uiso   1.00
C754   C     0.66998   0.91997   0.75000   0.00000  Uiso   1.00
C755   C     0.83003   0.58002   0.25000   0.00000  Uiso   1.00
C756   C     0.91998   0.83002   0.74999   0.00000  Uiso   1.00
C757   C     0.75000   0.50000   0.64411   0.00000  Uiso   1.00
C758   C     0.58002   0.66999   0.24999   0.00000  Uiso   1.00
C759   C     0.83002   0.58003   0.75000   0.00000  Uiso   1.00
C760   C     0.66997   0.91998   0.25000   0.00000  Uiso   1.00
C761   C     0.58002   0.66998   0.74999   0.00000  Uiso   1.00
C762   C     0.91998   0.83001   0.24999   0.00000  Uiso   1.00
C763   C     0.63832   0.88834   0.25001   0.00000  Uiso   1.00
C764   C     0.86167   0.61168   0.75001   0.00000  Uiso   1.00
C765   C     0.61167   0.63834   0.24999   0.00000  Uiso   1.00
C766   C     0.88834   0.86167   0.74999   0.00000  Uiso   1.00
C767   C     0.86168   0.61166   0.25001   0.00000  Uiso   1.00
C768   C     0.50000   0.75000   0.35586   0.00000  Uiso   1.00
C769   C     0.63833   0.88833   0.75001   0.00000  Uiso   1.00
C770   C     0.88833   0.86166   0.24999   0.00000  Uiso   1.00
C771   C     0.61166   0.63833   0.74999   0.00000  Uiso   1.00
C772   C     0.63833   0.61166   0.74999   0.00000  Uiso   1.00
C773   C     0.86166   0.88833   0.24999   0.00000  Uiso   1.00
C774   C     0.61167   0.86167   0.75001   0.00000  Uiso   1.00
C775   C     0.88834   0.63832   0.25001   0.00000  Uiso   1.00
C776   C     0.86167   0.88834   0.74999   0.00000  Uiso   1.00
C777   C     0.63834   0.61167   0.24999   0.00000  Uiso   1.00
C778   C     0.88832   0.63833   0.75001   0.00000  Uiso   1.00
C779   C     0.50000   0.75000   0.64410   0.00000  Uiso   1.00
C780   C     0.61166   0.86168   0.25001   0.00000  Uiso   1.00
C781   C     0.50751   0.78752   0.41812   0.00000  Uiso   1.00
C782   C     0.51172   0.71354   0.58172   0.00000  Uiso   1.00
C783   C     0.71249   0.99244   0.41812   0.00000  Uiso   1.00
C784   C     0.78648   0.98832   0.58172   0.00000  Uiso   1.00
C785   C     0.99248   0.71248   0.41812   0.00000  Uiso   1.00
C786   C     0.98828   0.78647   0.58172   0.00000  Uiso   1.00
C787   C     0.78751   0.50756   0.41812   0.00000  Uiso   1.00
C788   C     0.71352   0.51168   0.58172   0.00000  Uiso   1.00
C789   C     0.73360   0.53466   0.91849   0.00000  Uiso   1.00
C790   C     0.50000   0.75000   0.85580   0.00000  Uiso   1.00
C791   C     0.74808   0.96179   0.08209   0.00000  Uiso   1.00
C792   C     0.96179   0.74794   0.91791   0.00000  Uiso   1.00
C793   C     0.53471   0.73370   0.08152   0.00000  Uiso   1.00
C794   C     0.76640   0.96534   0.91848   0.00000  Uiso   1.00
C795   C     0.75193   0.53821   0.08209   0.00000  Uiso   1.00
C796   C     0.53820   0.75205   0.91792   0.00000  Uiso   1.00
C797   C     0.96530   0.76629   0.08152   0.00000  Uiso   1.00
C798   C     0.50000   0.75000   0.39814   0.00000  Uiso   1.00
C799   C     0.50000   0.75000   0.60175   0.00000  Uiso   1.00
C800   C     0.75000   0.50000   0.39814   0.00000  Uiso   1.00
C801   C     0.50000   0.75000   0.14405   0.00000  Uiso   1.00
C802   C     0.75000   0.50000   0.60176   0.00000  Uiso   1.00
C803   C     0.75000   0.50000   0.89838   0.00000  Uiso   1.00
C804   C     0.75000   0.50000   0.10199   0.00000  Uiso   1.00
C805   C     0.50000   0.75000   0.89801   0.00000  Uiso   1.00
C806   C     0.50000   0.75000   0.10163   0.00000  Uiso   1.00
C807   C     0.99919   0.71116   0.45881   0.00000  Uiso   1.00
C808   C     0.99489   0.78852   0.54103   0.00000  Uiso   1.00
C809   C     0.78884   0.50085   0.45882   0.00000  Uiso   1.00
C810   C     0.71148   0.50507   0.54103   0.00000  Uiso   1.00
C811   C     0.50080   0.78885   0.45881   0.00000  Uiso   1.00
C812   C     0.75000   0.50000   0.85595   0.00000  Uiso   1.00
C813   C     0.50511   0.71148   0.54103   0.00000  Uiso   1.00
C814   C     0.71115   0.99915   0.45882   0.00000  Uiso   1.00
C815   C     0.78852   0.99493   0.54103   0.00000  Uiso   1.00
C816   C     0.76012   0.96248   0.95918   0.00000  Uiso   1.00
C817   C     0.74530   0.53859   0.04139   0.00000  Uiso   1.00
C818   C     0.53859   0.74541   0.95861   0.00000  Uiso   1.00
C819   C     0.96245   0.76000   0.04083   0.00000  Uiso   1.00
C820   C     0.73988   0.53752   0.95918   0.00000  Uiso   1.00
C821   C     0.75470   0.96141   0.04139   0.00000  Uiso   1.00
C822   C     0.96140   0.75456   0.95861   0.00000  Uiso   1.00
C823   C     0.75000   0.50000   0.14420   0.00000  Uiso   1.00
C824   C     0.53755   0.73998   0.04083   0.00000  Uiso   1.00
C825   C     0.50000   0.75000   0.47942   0.00000  Uiso   1.00
C826   C     0.50000   0.75000   0.52043   0.00000  Uiso   1.00
C827   C     0.75000   0.50000   0.47942   0.00000  Uiso   1.00
C828   C     0.75000   0.50000   0.52043   0.00000  Uiso   1.00
C829   C     0.75000   0.50000   0.97977   0.00000  Uiso   1.00
C830   C     0.75000   0.50000   0.02078   0.00000  Uiso   1.00
C831   C     0.50000   0.74999   0.97922   0.00000  Uiso   1.00
C832   C     0.50000   0.74999   0.02024   0.00000  Uiso   1.00
C833   C     0.50365   0.67270   0.47942   0.00000  Uiso   1.00
C834   C     0.66998   0.58002   0.25000   0.00000  Uiso   1.00
C835   C     0.99511   0.82724   0.52040   0.00000  Uiso   1.00
C836   C     0.82730   0.99643   0.47942   0.00000  Uiso   1.00
C837   C     0.67276   0.50480   0.52041   0.00000  Uiso   1.00
C838   C     0.99635   0.82730   0.47942   0.00000  Uiso   1.00
C839   C     0.50489   0.67277   0.52041   0.00000  Uiso   1.00
C840   C     0.67269   0.50356   0.47942   0.00000  Uiso   1.00
C841   C     0.82724   0.99519   0.52041   0.00000  Uiso   1.00
C842   C     0.76508   0.92407   0.97983   0.00000  Uiso   1.00
C843   C     0.73571   0.57608   0.02080   0.00000  Uiso   1.00
C844   C     0.57612   0.73592   0.97920   0.00000  Uiso   1.00
H845   H     0.53662   0.63184   0.43647   0.00000  Uiso   1.00
H846   H     0.69682   0.61176   0.06348   0.00000  Uiso   1.00
H847   H     0.61190   0.69716   0.93651   0.00000  Uiso   1.00
H848   H     0.87656   0.74166   0.06276   0.00000  Uiso   1.00
H849   H     0.75797   0.62348   0.93727   0.00000  Uiso   1.00
H850   H     0.80319   0.88825   0.06348   0.00000  Uiso   1.00
H851   H     0.88805   0.80279   0.93654   0.00000  Uiso   1.00
H852   H     0.62347   0.75828   0.06272   0.00000  Uiso   1.00
H853   H     0.52345   0.87142   0.56332   0.00000  Uiso   1.00
H854   H     0.86819   0.96350   0.43646   0.00000  Uiso   1.00
H855   H     0.62861   0.97642   0.56332   0.00000  Uiso   1.00
H856   H     0.96337   0.86816   0.43647   0.00000  Uiso   1.00
H857   H     0.97655   0.62858   0.56332   0.00000  Uiso   1.00
H858   H     0.63180   0.53648   0.43647   0.00000  Uiso   1.00
H859   H     0.87140   0.52359   0.56331   0.00000  Uiso   1.00
H860   H     0.74204   0.87651   0.93728   0.00000  Uiso   1.00
O861   O     0.75000   0.50000   0.25000   0.00000  Uiso   1.00
O862   O     0.75000   0.96539   0.66251   0.00000  Uiso   1.00
O863   O     0.96538   0.75000   0.33749   0.00000  Uiso   1.00
O864   O     0.53461   0.75000   0.66251   0.00000  Uiso   1.00
O865   O     0.50000   0.71539   0.83749   0.00000  Uiso   1.00
O866   O     0.50000   0.78462   0.16251   0.00000  Uiso   1.00
O867   O     0.78461   0.50000   0.83749   0.00000  Uiso   1.00
O868   O     0.71538   0.50000   0.16251   0.00000  Uiso   1.00
O869   O     0.50000   0.78462   0.83749   0.00000  Uiso   1.00
O870   O     0.50000   0.71539   0.16251   0.00000  Uiso   1.00
O871   O     0.71538   0.50000   0.83749   0.00000  Uiso   1.00
O872   O     0.75000   0.50000   0.75000   0.00000  Uiso   1.00
O873   O     0.78461   0.50000   0.16251   0.00000  Uiso   1.00
O874   O     0.70126   0.58332   0.27298   0.00000  Uiso   1.00
O875   O     0.79873   0.91668   0.72702   0.00000  Uiso   1.00
O876   O     0.91668   0.70127   0.27298   0.00000  Uiso   1.00
O877   O     0.58332   0.79874   0.72702   0.00000  Uiso   1.00
O878   O     0.79873   0.91668   0.27298   0.00000  Uiso   1.00
O879   O     0.70126   0.58332   0.72702   0.00000  Uiso   1.00
O880   O     0.58332   0.79874   0.27298   0.00000  Uiso   1.00
O881   O     0.91668   0.70127   0.72702   0.00000  Uiso   1.00
O882   O     0.70126   0.91668   0.72702   0.00000  Uiso   1.00
O883   O     0.50000   0.75000   0.25000   0.00000  Uiso   1.00
O884   O     0.79873   0.58332   0.27298   0.00000  Uiso   1.00
O885   O     0.91668   0.79874   0.72702   0.00000  Uiso   1.00
O886   O     0.58332   0.70127   0.27298   0.00000  Uiso   1.00
O887   O     0.79873   0.58332   0.72702   0.00000  Uiso   1.00
O888   O     0.70126   0.91668   0.27298   0.00000  Uiso   1.00
O889   O     0.58332   0.70127   0.72702   0.00000  Uiso   1.00
O890   O     0.91668   0.79874   0.27298   0.00000  Uiso   1.00
O891   O     0.95126   0.83332   0.77298   0.00000  Uiso   1.00
O892   O     0.54873   0.66668   0.22702   0.00000  Uiso   1.00
O893   O     0.66668   0.95127   0.77298   0.00000  Uiso   1.00
O894   O     0.50000   0.75000   0.75000   0.00000  Uiso   1.00
O895   O     0.83332   0.54874   0.22702   0.00000  Uiso   1.00
O896   O     0.54873   0.66668   0.77298   0.00000  Uiso   1.00
O897   O     0.95126   0.83332   0.22702   0.00000  Uiso   1.00
O898   O     0.83332   0.54874   0.77298   0.00000  Uiso   1.00
O899   O     0.66668   0.95127   0.22702   0.00000  Uiso   1.00
O900   O     0.95126   0.66668   0.22702   0.00000  Uiso   1.00
O901   O     0.54873   0.83332   0.77298   0.00000  Uiso   1.00
O902   O     0.66668   0.54874   0.22702   0.00000  Uiso   1.00
O903   O     0.83332   0.95127   0.77298   0.00000  Uiso   1.00
O904   O     0.54873   0.83332   0.22702   0.00000  Uiso   1.00
O905   O     0.75000   0.96539   0.33749   0.00000  Uiso   1.00
O906   O     0.95126   0.66668   0.77298   0.00000  Uiso   1.00
O907   O     0.83332   0.95127   0.22702   0.00000  Uiso   1.00
O908   O     0.66668   0.54874   0.77298   0.00000  Uiso   1.00
O909   O     0.99047   0.60157   0.46377   0.00000  Uiso   1.00
O910   O     0.97425   0.89654   0.53602   0.00000  Uiso   1.00
O911   O     0.89842   0.50968   0.46377   0.00000  Uiso   1.00
O912   O     0.60343   0.52559   0.53602   0.00000  Uiso   1.00
O913   O     0.50953   0.89844   0.46377   0.00000  Uiso   1.00
O914   O     0.52575   0.60346   0.53602   0.00000  Uiso   1.00
O915   O     0.60158   0.99029   0.46377   0.00000  Uiso   1.00
O916   O     0.75000   0.53462   0.66251   0.00000  Uiso   1.00
O917   O     0.89657   0.97440   0.53602   0.00000  Uiso   1.00
O918   O     0.79437   0.85790   0.96405   0.00000  Uiso   1.00
O919   O     0.73862   0.64831   0.03675   0.00000  Uiso   1.00
O920   O     0.64834   0.73903   0.96325   0.00000  Uiso   1.00
O921   O     0.85776   0.79391   0.03595   0.00000  Uiso   1.00
O922   O     0.70564   0.64210   0.96405   0.00000  Uiso   1.00
O923   O     0.76140   0.85169   0.03676   0.00000  Uiso   1.00
O924   O     0.85165   0.76086   0.96326   0.00000  Uiso   1.00
O925   O     0.64220   0.70599   0.03594   0.00000  Uiso   1.00
O926   O     0.53461   0.75000   0.33749   0.00000  Uiso   1.00
O927   O     0.96538   0.75000   0.66251   0.00000  Uiso   1.00
O928   O     0.75000   0.53462   0.33749   0.00000  Uiso   1.00
Zn929  Zn    0.70052   0.50000   0.21730   0.00000  Uiso   1.00
Zn930  Zn    0.54947   0.75000   0.28270   0.00000  Uiso   1.00
Zn931  Zn    0.75000   0.95053   0.71730   0.00000  Uiso   1.00
Zn932  Zn    0.75000   0.54948   0.28270   0.00000  Uiso   1.00
Zn933  Zn    0.54947   0.75000   0.71730   0.00000  Uiso   1.00
Zn934  Zn    0.95052   0.75000   0.28270   0.00000  Uiso   1.00
Zn935  Zn    0.75000   0.54948   0.71730   0.00000  Uiso   1.00
Zn936  Zn    0.75000   0.95053   0.28270   0.00000  Uiso   1.00
Zn937  Zn    0.79947   0.50000   0.78270   0.00000  Uiso   1.00
Zn938  Zn    0.50000   0.70053   0.21730   0.00000  Uiso   1.00
Zn939  Zn    0.50000   0.79948   0.78270   0.00000  Uiso   1.00
Zn940  Zn    0.79947   0.50000   0.21730   0.00000  Uiso   1.00
Zn941  Zn    0.70052   0.50000   0.78270   0.00000  Uiso   1.00
Zn942  Zn    0.50000   0.79948   0.21730   0.00000  Uiso   1.00
Zn943  Zn    0.50000   0.70053   0.78270   0.00000  Uiso   1.00
Zn944  Zn    0.95052   0.75000   0.71730   0.00000  Uiso   1.00
loop_
_geom_bond_atom_site_label_1
_geom_bond_atom_site_label_2
_geom_bond_distance
_geom_bond_site_symmetry_2
_ccdc_geom_bond_type
Br1    C73     1.946   .     S
Br2    C83     1.945   .     S
Br3    C84     1.945   .     S
Br4    C85     1.947   .     S
Br5    C86     1.947   .     S
Br6    C87     1.945   .     S
Br7    C88     1.945   .     S
Br8    C89     1.947   .     S
Br9    C74     1.946   .     S
Br10   C75     1.946   .     S
Br11   C76     1.946   .     S
Br12   C77     1.945   .     S
Br13   C78     1.946   .     S
Br14   C79     1.946   .     S
Br15   C80     1.946   .     S
Br16   C81     1.947   .     S
C17    O669    1.269   1_545 A
C17    C92     1.458   .     S
C17    O220    1.269   .     S
C18    O195    1.276   .     A
C18    C68     1.422   .     S
C18    O167    1.276   .     A
C19    C36     1.486   .     S
C19    C111    1.422   .     A
C19    C22     1.413   1_554 S
C20    C112    1.422   .     A
C20    C37     1.486   .     S
C20    C135    1.413   1_556 S
C21    C38     1.486   .     S
C21    C113    1.420   .     A
C21    C134    1.413   1_554 S
C22    C39     1.486   .     S
C22    C114    1.420   .     A
C22    C19     1.413   1_556 S
C23    C116    1.422   .     A
C23    C41     1.486   .     S
C23    C136    1.413   1_554 S
C24    H137    1.085   .     S
C24    C125    1.486   .     S
C24    O437    1.221   1_455 S
C25    O202    1.222   .     D
C25    C127    1.486   .     S
C25    H381    1.085   .     S
C26    H146    1.085   .     S
C26    C128    1.486   .     S
C26    O675    1.221   .     S
C27    O204    1.222   .     D
C27    C129    1.486   .     S
C27    H619    1.085   1_545 S
C28    C130    1.486   .     S
C28    H148    1.086   .     S
C28    O441    1.221   .     S
C29    O168    1.276   .     A
C29    C67     1.423   .     S
C29    O192    1.276   .     A
C30    C131    1.486   .     S
C30    O206    1.222   .     D
C30    H385    1.085   1_455 S
C31    C132    1.486   .     S
C31    H150    1.085   .     S
C31    O679    1.221   1_545 S
C32    O209    1.221   .     D
C32    C133    1.486   .     S
C32    H623    1.085   .     S
C33    O210    1.222   .     D
C33    C134    1.486   .     S
C33    H152    1.085   .     S
C34    H138    1.086   .     S
C34    C135    1.486   .     S
C34    O211    1.221   .     D
C35    H139    1.085   .     S
C35    O212    1.221   .     D
C35    C136    1.486   .     S
C36    H140    1.085   .     S
C36    O213    1.222   .     D
C37    O214    1.222   .     D
C37    H141    1.085   .     S
C38    O215    1.221   .     D
C38    H142    1.086   .     S
C39    O216    1.221   .     D
C39    H143    1.085   .     S
C40    O169    1.276   .     A
C40    O193    1.276   .     A
C40    C66     1.423   .     S
C41    H144    1.085   .     S
C41    O217    1.222   .     D
C42    O199    1.276   .     A
C42    O170    1.276   .     A
C42    C65     1.422   .     S
C43    O200    1.276   .     A
C43    C64     1.422   .     S
C43    O171    1.276   .     A
C44    C72     1.423   .     S
C44    O196    1.276   .     A
C44    O172    1.276   .     A
C45    O173    1.276   .     A
C45    O198    1.276   .     A
C45    C70     1.423   .     S
C46    O185    1.276   .     A
C46    C61     1.423   .     S
C46    O174    1.276   .     A
C47    C59     1.423   .     S
C47    O176    1.276   .     A
C47    O187    1.276   .     A
C48    O177    1.276   .     A
C48    O183    1.276   .     A
C48    C58     1.422   .     S
C49    C94     1.460   .     S
C49    O208    1.270   .     A
C49    O626    1.270   1_545 S
C50    O178    1.276   .     A
C50    C57     1.422   .     S
C50    O184    1.276   .     A
C51    C56     1.423   .     S
C51    O179    1.276   .     A
C51    O190    1.276   .     A
C52    O180    1.276   .     A
C52    O191    1.276   .     A
C52    C55     1.423   .     S
C53    O188    1.276   .     A
C53    O181    1.276   .     A
C53    C63     1.422   .     S
C54    O189    1.276   .     A
C54    O182    1.276   .     A
C54    C62     1.422   .     S
C55    C72     1.199   .     T
C56    C70     1.199   .     T
C57    C69     1.198   .     T
C58    C68     1.198   .     T
C59    C67     1.199   .     T
C60    O391    1.269   1_455 A
C60    C90     1.458   .     S
C60    O218    1.269   .     S
C61    C66     1.199   .     T
C62    C65     1.198   .     T
C63    C64     1.198   .     T
C69    C126    1.422   .     S
C71    O156    1.270   .     A
C71    C91     1.460   .     S
C71    O455    1.270   1_455 S
C73    C103    1.420   .     A
C73    C90     1.398   .     S
C74    C91     1.399   .     A
C74    C105    1.420   .     A
C75    C564    1.398   .     A
C75    C106    1.419   .     A
C76    C107    1.420   .     A
C76    C566    1.399   .     S
C77    C326    1.398   .     A
C77    C99     1.420   .     A
C78    C100    1.420   .     A
C78    C327    1.399   .     S
C79    C101    1.419   .     A
C79    C92     1.398   .     S
C80    C102    1.420   .     A
C80    C94     1.399   .     A
C81    C112    1.420   .     A
C81    C95     1.401   .     S
C82    C97     1.455   .     S
C82    O161    1.268   .     A
C82    O157    1.268   .     S
C83    C113    1.419   .     A
C83    C568    1.396   .     S
C84    C333    1.396   .     A
C84    C114    1.419   .     A
C85    C98     1.401   .     A
C85    C116    1.420   .     A
C86    C108    1.420   .     A
C86    C567    1.401   .     A
C87    C96     1.396   .     A
C87    C109    1.419   .     A
C88    C110    1.419   .     A
C88    C97     1.396   .     S
C89    C111    1.420   .     A
C89    C334    1.401   .     S
C90    C313    1.398   1_455 A
C91    C314    1.399   1_455 S
C92    C547    1.398   1_545 A
C93    C98     1.463   .     S
C93    O158    1.271   .     S
C93    O162    1.271   .     S
C94    C548    1.399   1_545 S
C95    C104    1.463   .     S
C95    C558    1.401   1_545 A
C96    C115    1.455   .     S
C96    C555    1.396   1_545 S
C97    C320    1.396   1_455 A
C98    C325    1.401   1_455 S
C99    C353    1.425   .     A
C99    C361    1.421   .     S
C100   C127    1.421   .     A
C100   C354    1.424   .     A
C101   C119    1.424   .     S
C101   C600    1.421   1_545 S
C102   C129    1.421   .     A
C102   C120    1.424   .     S
C103   C117    1.425   .     S
C103   C366    1.421   1_455 S
C104   O159    1.271   .     S
C104   O163    1.271   .     S
C105   C131    1.421   .     A
C105   C118    1.424   .     S
C106   C591    1.425   .     A
C106   C604    1.421   .     S
C107   C592    1.424   .     A
C107   C133    1.421   .     A
C108   C134    1.422   .     A
C108   C593    1.424   .     A
C109   C135    1.420   .     A
C109   C122    1.425   .     S
C110   C136    1.420   .     A
C110   C123    1.425   .     S
C111   C360    1.424   .     A
C112   C121    1.424   .     S
C113   C594    1.425   .     A
C114   C359    1.425   .     A
C115   O160    1.268   .     S
C115   O165    1.268   .     S
C116   C124    1.424   .     S
C117   C335    1.425   1_455 A
C117   C118    1.414   .     A
C118   C336    1.424   1_455 A
C119   C578    1.425   1_545 A
C119   C120    1.414   .     A
C120   C579    1.424   1_545 A
C121   C580    1.424   1_545 A
C121   C122    1.414   1_556 S
C122   C585    1.425   1_545 A
C122   C121    1.414   1_554 S
C123   C350    1.425   1_455 A
C123   C124    1.414   1_556 S
C124   C347    1.424   1_455 A
C124   C123    1.414   1_554 S
C125   C131    1.413   .     A
C125   C335    1.421   1_455 S
C126   O194    1.276   .     A
C126   O166    1.276   .     A
C127   C130    1.413   .     A
C128   C133    1.413   .     A
C128   C573    1.421   .     S
C129   C132    1.413   .     A
C130   C339    1.421   .     S
C132   C578    1.421   1_545 S
C134   C21     1.413   1_556 S
C135   C20     1.413   1_554 S
C136   C23     1.413   1_556 S
H145   C261    1.085   1_455 S
H147   C499    1.085   .     S
H149   C266    1.085   .     S
H151   C504    1.085   1_545 S
O153   Zn700   1.935   1_545 S
O153   Zn221   1.935   .     S
O153   Zn232   1.935   .     S
O153   Zn224   1.935   .     S
O154   Zn223   1.947   .     S
O154   C521    1.270   .     S
O155   Zn226   1.947   .     S
O155   C296    1.269   .     A
O156   Zn225   1.947   .     S
O157   Zn235   1.947   .     S
O158   Zn234   1.947   .     S
O159   Zn229   1.947   .     S
O160   Zn221   1.947   .     S
O161   Zn231   1.947   .     S
O162   Zn230   1.947   .     S
O163   Zn233   1.947   .     S
O164   Zn233   1.935   .     S
O164   Zn229   1.935   .     S
O164   Zn227   1.935   .     S
O164   Zn695   1.935   1_545 S
O165   Zn232   1.947   .     S
O166   Zn224   1.914   .     S
O167   Zn223   1.914   .     S
O168   Zn226   1.916   .     S
O169   Zn225   1.916   .     S
O170   Zn228   1.914   .     S
O171   Zn227   1.914   .     S
O172   Zn222   1.916   .     S
O173   Zn236   1.916   .     S
O174   Zn223   1.916   .     S
O175   Zn462   1.935   1_455 S
O175   Zn230   1.935   .     S
O175   Zn234   1.935   .     S
O175   Zn222   1.935   .     S
O176   Zn224   1.916   .     S
O177   Zn236   1.914   .     S
O178   Zn222   1.914   .     S
O179   Zn227   1.916   .     S
O180   Zn228   1.916   .     S
O181   Zn225   1.914   .     S
O182   Zn226   1.914   .     S
O183   Zn467   1.914   .     S
O184   Zn230   1.914   .     S
O185   Zn705   1.916   .     S
O186   Zn472   1.935   1_455 S
O186   Zn231   1.935   .     S
O186   Zn225   1.935   .     S
O186   Zn235   1.935   .     S
O187   Zn232   1.916   .     S
O188   Zn235   1.914   .     S
O189   Zn470   1.914   .     S
O190   Zn229   1.916   .     S
O191   Zn693   1.916   .     S
O192   Zn466   1.916   .     S
O193   Zn231   1.916   .     S
O194   Zn221   1.914   .     S
O195   Zn701   1.914   .     S
O196   Zn234   1.916   .     S
O197   C489    1.269   .     A
O197   Zn228   1.947   .     S
O198   Zn471   1.916   .     S
O199   Zn704   1.914   .     S
O200   Zn233   1.914   .     S
O201   C260    1.221   .     S
O203   C498    1.221   1_545 S
O205   C264    1.221   1_455 S
O207   C503    1.221   .     S
O208   Zn227   1.947   .     S
O218   Zn222   1.947   .     S
O219   Zn236   1.947   .     S
O219   C307    1.270   .     S
O220   Zn224   1.947   .     S
Zn221  O663    1.916   1_545 S
Zn223  O636    1.935   .     S
Zn226  O411    1.935   .     S
Zn228  O625    1.935   .     S
Zn229  O667    1.914   1_545 S
Zn230  O428    1.916   1_455 S
Zn231  O419    1.914   1_455 S
Zn232  O671    1.914   1_545 S
Zn233  O657    1.916   1_545 S
Zn234  O425    1.914   1_455 S
Zn235  O434    1.916   1_455 S
Zn236  O422    1.935   .     S
Br237  C309    1.946   .     S
Br238  C319    1.945   .     S
Br239  C320    1.945   .     S
Br240  C321    1.947   .     S
Br241  C322    1.947   .     S
Br242  C323    1.945   .     S
Br243  C324    1.945   .     S
Br244  C325    1.947   .     S
Br245  C310    1.946   .     S
Br246  C311    1.946   .     S
Br247  C312    1.946   .     S
Br248  C313    1.945   .     S
Br249  C314    1.946   .     S
Br250  C315    1.946   .     S
Br251  C316    1.946   .     S
Br252  C317    1.947   .     S
C253   O905    1.269   1_545 A
C253   C328    1.458   .     S
C253   O456    1.269   .     S
C254   O431    1.276   .     A
C254   C304    1.422   .     S
C254   O403    1.276   .     A
C255   C272    1.486   .     S
C255   C347    1.422   .     A
C255   C258    1.413   1_554 S
C256   C348    1.422   .     A
C256   C273    1.486   .     S
C256   C371    1.413   1_556 S
C257   C274    1.486   .     S
C257   C349    1.420   .     A
C257   C370    1.413   1_554 S
C258   C275    1.486   .     S
C258   C350    1.420   .     A
C258   C255    1.413   1_556 S
C259   C352    1.422   .     A
C259   C277    1.486   .     S
C259   C372    1.413   1_554 S
C260   H373    1.085   .     S
C260   C361    1.486   .     S
C261   O438    1.222   .     D
C261   C363    1.486   .     S
C261   H145    1.085   1_655 S
C262   H382    1.085   .     S
C262   C364    1.486   .     S
C262   O911    1.221   .     S
C263   O440    1.222   .     D
C263   C365    1.486   .     S
C263   H855    1.085   1_545 S
C264   C366    1.486   .     S
C264   H384    1.086   .     S
C264   O205    1.221   1_655 S
C265   O404    1.276   .     A
C265   C303    1.423   .     S
C265   O428    1.276   .     A
C266   C367    1.486   .     S
C266   O442    1.222   .     D
C267   C368    1.486   .     S
C267   H386    1.085   .     S
C267   O915    1.221   1_545 S
C268   O445    1.221   .     D
C268   C369    1.486   .     S
C268   H859    1.085   .     S
C269   O446    1.222   .     D
C269   C370    1.486   .     S
C269   H388    1.085   .     S
C270   H374    1.086   .     S
C270   C371    1.486   .     S
C270   O447    1.221   .     D
C271   H375    1.085   .     S
C271   O448    1.221   .     D
C271   C372    1.486   .     S
C272   H376    1.085   .     S
C272   O449    1.222   .     D
C273   O450    1.222   .     D
C273   H377    1.085   .     S
C274   O451    1.221   .     D
C274   H378    1.086   .     S
C275   O452    1.221   .     D
C275   H379    1.085   .     S
C276   O405    1.276   .     A
C276   O429    1.276   .     A
C276   C302    1.423   .     S
C277   H380    1.085   .     S
C277   O453    1.222   .     D
C278   O435    1.276   .     A
C278   O406    1.276   .     A
C278   C301    1.422   .     S
C279   O436    1.276   .     A
C279   C300    1.422   .     S
C279   O407    1.276   .     A
C280   C308    1.423   .     S
C280   O432    1.276   .     A
C280   O408    1.276   .     A
C281   O409    1.276   .     A
C281   O434    1.276   .     A
C281   C306    1.423   .     S
C282   O421    1.276   .     A
C282   C297    1.423   .     S
C282   O410    1.276   .     A
C283   C295    1.423   .     S
C283   O412    1.276   .     A
C283   O423    1.276   .     A
C284   O413    1.276   .     A
C284   O419    1.276   .     A
C284   C294    1.422   .     S
C285   C330    1.460   .     S
C285   O444    1.270   .     A
C285   O862    1.270   1_545 S
C286   O414    1.276   .     A
C286   C293    1.422   .     S
C286   O420    1.276   .     A
C287   C292    1.423   .     S
C287   O415    1.276   .     A
C287   O426    1.276   .     A
C288   O416    1.276   .     A
C288   O427    1.276   .     A
C288   C291    1.423   .     S
C289   O424    1.276   .     A
C289   O417    1.276   .     A
C289   C299    1.422   .     S
C290   O425    1.276   .     A
C290   O418    1.276   .     A
C290   C298    1.422   .     S
C291   C308    1.199   .     T
C292   C306    1.199   .     T
C293   C305    1.198   .     T
C294   C304    1.198   .     T
C295   C303    1.199   .     T
C296   C326    1.458   .     S
C296   O454    1.269   .     S
C297   C302    1.199   .     T
C298   C301    1.198   .     T
C299   C300    1.198   .     T
C305   C362    1.422   .     S
C307   O392    1.270   .     A
C307   C327    1.460   .     S
C309   C339    1.420   .     A
C309   C326    1.398   .     S
C310   C327    1.399   .     A
C310   C341    1.420   .     A
C311   C800    1.398   .     A
C311   C342    1.419   .     A
C312   C343    1.420   .     A
C312   C802    1.399   .     S
C313   C90     1.398   1_655 A
C313   C335    1.420   .     A
C314   C336    1.420   .     A
C314   C91     1.399   1_655 S
C315   C337    1.419   .     A
C315   C328    1.398   .     S
C316   C338    1.420   .     A
C316   C330    1.399   .     A
C317   C348    1.420   .     A
C317   C331    1.401   .     S
C318   C333    1.455   .     S
C318   O397    1.268   .     A
C318   O393    1.268   .     S
C319   C349    1.419   .     A
C319   C804    1.396   .     S
C320   C97     1.396   1_655 A
C320   C350    1.419   .     A
C321   C334    1.401   .     A
C321   C352    1.420   .     A
C322   C344    1.420   .     A
C322   C803    1.401   .     A
C323   C332    1.396   .     A
C323   C345    1.419   .     A
C324   C346    1.419   .     A
C324   C333    1.396   .     S
C325   C347    1.420   .     A
C325   C98     1.401   1_655 S
C328   C783    1.398   1_545 A
C329   C334    1.463   .     S
C329   O394    1.271   .     S
C329   O398    1.271   .     S
C330   C784    1.399   1_545 S
C331   C340    1.463   .     S
C331   C794    1.401   1_545 A
C332   C351    1.455   .     S
C332   C791    1.396   1_545 S
C335   C117    1.425   1_655 A
C335   C125    1.421   1_655 S
C336   C363    1.421   .     A
C336   C118    1.424   1_655 A
C337   C355    1.424   .     S
C337   C836    1.421   1_545 S
C338   C365    1.421   .     A
C338   C356    1.424   .     S
C339   C353    1.425   .     S
C340   O395    1.271   .     S
C340   O399    1.271   .     S
C341   C367    1.421   .     A
C341   C354    1.424   .     S
C342   C827    1.425   .     A
C342   C840    1.421   .     S
C343   C828    1.424   .     A
C343   C369    1.421   .     A
C344   C370    1.422   .     A
C344   C829    1.424   .     A
C345   C371    1.420   .     A
C345   C358    1.425   .     S
C346   C372    1.420   .     A
C346   C359    1.425   .     S
C347   C124    1.424   1_655 A
C348   C357    1.424   .     S
C349   C830    1.425   .     A
C350   C123    1.425   1_655 A
C351   O396    1.268   .     S
C351   O401    1.268   .     S
C352   C360    1.424   .     S
C353   C354    1.414   .     A
C355   C814    1.425   1_545 A
C355   C356    1.414   .     A
C356   C815    1.424   1_545 A
C357   C816    1.424   1_545 A
C357   C358    1.414   1_556 S
C358   C821    1.425   1_545 A
C358   C357    1.414   1_554 S
C359   C360    1.414   1_556 S
C360   C359    1.414   1_554 S
C361   C367    1.413   .     A
C362   O430    1.276   .     A
C362   O402    1.276   .     A
C363   C366    1.413   .     A
C364   C369    1.413   .     A
C364   C809    1.421   .     S
C365   C368    1.413   .     A
C366   C103    1.421   1_655 S
C368   C814    1.421   1_545 S
C370   C257    1.413   1_556 S
C371   C256    1.413   1_554 S
C372   C259    1.413   1_556 S
H383   C735    1.085   .     S
H385   C30     1.085   1_655 S
H387   C740    1.085   1_545 S
O389   Zn936   1.935   1_545 S
O389   Zn457   1.935   .     S
O389   Zn468   1.935   .     S
O389   Zn460   1.935   .     S
O390   Zn459   1.947   .     S
O390   C757    1.270   .     S
O391   Zn462   1.947   .     S
O391   C60     1.269   1_655 A
O392   Zn461   1.947   .     S
O393   Zn471   1.947   .     S
O394   Zn470   1.947   .     S
O395   Zn465   1.947   .     S
O396   Zn457   1.947   .     S
O397   Zn467   1.947   .     S
O398   Zn466   1.947   .     S
O399   Zn469   1.947   .     S
O400   Zn469   1.935   .     S
O400   Zn465   1.935   .     S
O400   Zn463   1.935   .     S
O400   Zn931   1.935   1_545 S
O401   Zn468   1.947   .     S
O402   Zn460   1.914   .     S
O403   Zn459   1.914   .     S
O404   Zn462   1.916   .     S
O405   Zn461   1.916   .     S
O406   Zn464   1.914   .     S
O407   Zn463   1.914   .     S
O408   Zn458   1.916   .     S
O409   Zn472   1.916   .     S
O410   Zn459   1.916   .     S
O411   Zn466   1.935   .     S
O411   Zn470   1.935   .     S
O411   Zn458   1.935   .     S
O412   Zn460   1.916   .     S
O413   Zn472   1.914   .     S
O414   Zn458   1.914   .     S
O415   Zn463   1.916   .     S
O416   Zn464   1.916   .     S
O417   Zn461   1.914   .     S
O418   Zn462   1.914   .     S
O419   Zn231   1.914   1_655 S
O420   Zn466   1.914   .     S
O421   Zn941   1.916   .     S
O422   Zn467   1.935   .     S
O422   Zn461   1.935   .     S
O422   Zn471   1.935   .     S
O423   Zn468   1.916   .     S
O424   Zn471   1.914   .     S
O425   Zn234   1.914   1_655 S
O426   Zn465   1.916   .     S
O427   Zn929   1.916   .     S
O428   Zn230   1.916   1_655 S
O429   Zn467   1.916   .     S
O430   Zn457   1.914   .     S
O431   Zn937   1.914   .     S
O432   Zn470   1.916   .     S
O433   C725    1.269   .     A
O433   Zn464   1.947   .     S
O434   Zn235   1.916   1_655 S
O435   Zn940   1.914   .     S
O436   Zn469   1.914   .     S
O437   C24     1.221   1_655 S
O439   C734    1.221   1_545 S
O443   C739    1.221   .     S
O444   Zn463   1.947   .     S
O454   Zn458   1.947   .     S
O455   Zn472   1.947   .     S
O455   C71     1.270   1_655 S
O456   Zn460   1.947   .     S
Zn457  O899    1.916   1_545 S
Zn459  O872    1.935   .     S
Zn462  O175    1.935   1_655 S
Zn464  O861    1.935   .     S
Zn465  O903    1.914   1_545 S
Zn468  O907    1.914   1_545 S
Zn469  O893    1.916   1_545 S
Zn472  O186    1.935   1_655 S
Br473  C545    1.946   .     S
Br474  C555    1.945   .     S
Br475  C556    1.945   .     S
Br476  C557    1.947   .     S
Br477  C558    1.947   .     S
Br478  C559    1.945   .     S
Br479  C560    1.945   .     S
Br480  C561    1.947   .     S
Br481  C546    1.946   .     S
Br482  C547    1.946   .     S
Br483  C548    1.946   .     S
Br484  C549    1.945   .     S
Br485  C550    1.946   .     S
Br486  C551    1.946   .     S
Br487  C552    1.946   .     S
Br488  C553    1.947   .     S
C489   C564    1.458   .     S
C489   O692    1.269   .     S
C490   O667    1.276   .     A
C490   C540    1.422   .     S
C490   O639    1.276   .     A
C491   C508    1.486   .     S
C491   C583    1.422   .     A
C491   C494    1.413   1_554 S
C492   C584    1.422   .     A
C492   C509    1.486   .     S
C492   C607    1.413   1_556 S
C493   C510    1.486   .     S
C493   C585    1.420   .     A
C493   C606    1.413   1_554 S
C494   C511    1.486   .     S
C494   C586    1.420   .     A
C494   C491    1.413   1_556 S
C495   C588    1.422   .     A
C495   C513    1.486   .     S
C495   C608    1.413   1_554 S
C496   H609    1.085   .     S
C496   C597    1.486   .     S
C496   O909    1.221   1_455 S
C497   O674    1.222   .     D
C497   C599    1.486   .     S
C497   H853    1.085   .     S
C498   H618    1.085   .     S
C498   C600    1.486   .     S
C498   O203    1.221   1_565 S
C499   O676    1.222   .     D
C499   C601    1.486   .     S
C500   C602    1.486   .     S
C500   H620    1.086   .     S
C500   O913    1.221   .     S
C501   O640    1.276   .     A
C501   C539    1.423   .     S
C501   O664    1.276   .     A
C502   C603    1.486   .     S
C502   O678    1.222   .     D
C502   H857    1.085   1_455 S
C503   C604    1.486   .     S
C503   H622    1.085   .     S
C504   O681    1.221   .     D
C504   C605    1.486   .     S
C504   H151    1.085   1_565 S
C505   O682    1.222   .     D
C505   C606    1.486   .     S
C505   H624    1.085   .     S
C506   H610    1.086   .     S
C506   C607    1.486   .     S
C506   O683    1.221   .     D
C507   H611    1.085   .     S
C507   O684    1.221   .     D
C507   C608    1.486   .     S
C508   H612    1.085   .     S
C508   O685    1.222   .     D
C509   O686    1.222   .     D
C509   H613    1.085   .     S
C510   O687    1.221   .     D
C510   H614    1.086   .     S
C511   O688    1.221   .     D
C511   H615    1.085   .     S
C512   O641    1.276   .     A
C512   O665    1.276   .     A
C512   C538    1.423   .     S
C513   H616    1.085   .     S
C513   O689    1.222   .     D
C514   O671    1.276   .     A
C514   O642    1.276   .     A
C514   C537    1.422   .     S
C515   O672    1.276   .     A
C515   C536    1.422   .     S
C515   O643    1.276   .     A
C516   C544    1.423   .     S
C516   O668    1.276   .     A
C516   O644    1.276   .     A
C517   O645    1.276   .     A
C517   O670    1.276   .     A
C517   C542    1.423   .     S
C518   O657    1.276   .     A
C518   C533    1.423   .     S
C518   O646    1.276   .     A
C519   C531    1.423   .     S
C519   O648    1.276   .     A
C519   O659    1.276   .     A
C520   O649    1.276   .     A
C520   O655    1.276   .     A
C520   C530    1.422   .     S
C521   C566    1.460   .     S
C521   O680    1.270   .     A
C522   O650    1.276   .     A
C522   C529    1.422   .     S
C522   O656    1.276   .     A
C523   C528    1.423   .     S
C523   O651    1.276   .     A
C523   O662    1.276   .     A
C524   O652    1.276   .     A
C524   O663    1.276   .     A
C524   C527    1.423   .     S
C525   O660    1.276   .     A
C525   O653    1.276   .     A
C525   C535    1.422   .     S
C526   O661    1.276   .     A
C526   O654    1.276   .     A
C526   C534    1.422   .     S
C527   C544    1.199   .     T
C528   C542    1.199   .     T
C529   C541    1.198   .     T
C530   C540    1.198   .     T
C531   C539    1.199   .     T
C532   O863    1.269   1_455 A
C532   C562    1.458   .     S
C532   O690    1.269   .     S
C533   C538    1.199   .     T
C534   C537    1.198   .     T
C535   C536    1.198   .     T
C541   C598    1.422   .     S
C543   O628    1.270   .     A
C543   C563    1.460   .     S
C543   O927    1.270   1_455 S
C545   C575    1.420   .     A
C545   C562    1.398   .     S
C546   C563    1.399   .     A
C546   C577    1.420   .     A
C547   C92     1.398   1_565 A
C547   C578    1.419   .     A
C548   C579    1.420   .     A
C548   C94     1.399   1_565 S
C549   C798    1.398   .     A
C549   C571    1.420   .     A
C550   C572    1.420   .     A
C550   C799    1.399   .     S
C551   C573    1.419   .     A
C551   C564    1.398   .     S
C552   C574    1.420   .     A
C552   C566    1.399   .     A
C553   C584    1.420   .     A
C553   C567    1.401   .     S
C554   C569    1.455   .     S
C554   O633    1.268   .     A
C554   O629    1.268   .     S
C555   C585    1.419   .     A
C555   C96     1.396   1_565 S
C556   C805    1.396   .     A
C556   C586    1.419   .     A
C557   C570    1.401   .     A
C557   C588    1.420   .     A
C558   C580    1.420   .     A
C558   C95     1.401   1_565 A
C559   C568    1.396   .     A
C559   C581    1.419   .     A
C560   C582    1.419   .     A
C560   C569    1.396   .     S
C561   C583    1.420   .     A
C561   C806    1.401   .     S
C562   C785    1.398   1_455 A
C563   C786    1.399   1_455 S
C565   C570    1.463   .     S
C565   O630    1.271   .     S
C565   O634    1.271   .     S
C567   C576    1.463   .     S
C568   C587    1.455   .     S
C569   C792    1.396   1_455 A
C570   C797    1.401   1_455 S
C571   C825    1.425   .     A
C571   C833    1.421   .     S
C572   C599    1.421   .     A
C572   C826    1.424   .     A
C573   C591    1.424   .     S
C574   C601    1.421   .     A
C574   C592    1.424   .     S
C575   C589    1.425   .     S
C575   C838    1.421   1_455 S
C576   O631    1.271   .     S
C576   O635    1.271   .     S
C577   C603    1.421   .     A
C577   C590    1.424   .     S
C578   C119    1.425   1_565 A
C578   C132    1.421   1_565 S
C579   C120    1.424   1_565 A
C579   C605    1.421   .     A
C580   C606    1.422   .     A
C580   C121    1.424   1_565 A
C581   C607    1.420   .     A
C581   C594    1.425   .     S
C582   C608    1.420   .     A
C582   C595    1.425   .     S
C583   C832    1.424   .     A
C584   C593    1.424   .     S
C585   C122    1.425   1_565 A
C586   C831    1.425   .     A
C587   O632    1.268   .     S
C587   O637    1.268   .     S
C588   C596    1.424   .     S
C589   C807    1.425   1_455 A
C589   C590    1.414   .     A
C590   C808    1.424   1_455 A
C591   C592    1.414   .     A
C593   C594    1.414   1_556 S
C594   C593    1.414   1_554 S
C595   C822    1.425   1_455 A
C595   C596    1.414   1_556 S
C596   C819    1.424   1_455 A
C596   C595    1.414   1_554 S
C597   C603    1.413   .     A
C597   C807    1.421   1_455 S
C598   O666    1.276   .     A
C598   O638    1.276   .     A
C599   C602    1.413   .     A
C600   C605    1.413   .     A
C600   C101    1.421   1_565 S
C601   C604    1.413   .     A
C602   C811    1.421   .     S
C606   C493    1.413   1_556 S
C607   C492    1.413   1_554 S
C608   C495    1.413   1_556 S
H617   C733    1.085   1_455 S
H619   C27     1.085   1_565 S
H621   C738    1.085   .     S
O625   Zn693   1.935   .     S
O625   Zn704   1.935   .     S
O625   Zn696   1.935   .     S
O626   Zn695   1.947   .     S
O626   C49     1.270   1_565 S
O627   Zn698   1.947   .     S
O627   C768    1.269   .     A
O628   Zn697   1.947   .     S
O629   Zn707   1.947   .     S
O630   Zn706   1.947   .     S
O631   Zn701   1.947   .     S
O632   Zn693   1.947   .     S
O633   Zn703   1.947   .     S
O634   Zn702   1.947   .     S
O635   Zn705   1.947   .     S
O636   Zn705   1.935   .     S
O636   Zn701   1.935   .     S
O636   Zn699   1.935   .     S
O637   Zn704   1.947   .     S
O638   Zn696   1.914   .     S
O639   Zn695   1.914   .     S
O640   Zn698   1.916   .     S
O641   Zn697   1.916   .     S
O642   Zn700   1.914   .     S
O643   Zn699   1.914   .     S
O644   Zn694   1.916   .     S
O645   Zn708   1.916   .     S
O646   Zn695   1.916   .     S
O647   Zn934   1.935   1_455 S
O647   Zn702   1.935   .     S
O647   Zn706   1.935   .     S
O647   Zn694   1.935   .     S
O648   Zn696   1.916   .     S
O649   Zn708   1.914   .     S
O650   Zn694   1.914   .     S
O651   Zn699   1.916   .     S
O652   Zn700   1.916   .     S
O653   Zn697   1.914   .     S
O654   Zn698   1.914   .     S
O655   Zn939   1.914   .     S
O656   Zn702   1.914   .     S
O657   Zn233   1.916   1_565 S
O658   Zn944   1.935   1_455 S
O658   Zn703   1.935   .     S
O658   Zn697   1.935   .     S
O658   Zn707   1.935   .     S
O659   Zn704   1.916   .     S
O660   Zn707   1.914   .     S
O661   Zn942   1.914   .     S
O662   Zn701   1.916   .     S
O663   Zn221   1.916   1_565 S
O664   Zn938   1.916   .     S
O665   Zn703   1.916   .     S
O666   Zn693   1.914   .     S
O667   Zn229   1.914   1_565 S
O668   Zn706   1.916   .     S
O669   C17     1.269   1_565 A
O669   Zn700   1.947   .     S
O670   Zn943   1.916   .     S
O671   Zn232   1.914   1_565 S
O672   Zn705   1.914   .     S
O673   C732    1.221   .     S
O677   C736    1.221   1_455 S
O679   C31     1.221   1_565 S
O680   Zn699   1.947   .     S
O690   Zn694   1.947   .     S
O691   Zn708   1.947   .     S
O691   C779    1.270   .     S
O692   Zn696   1.947   .     S
Zn695  O164    1.935   1_565 S
Zn698  O883    1.935   .     S
Zn700  O153    1.935   1_565 S
Zn702  O900    1.916   1_455 S
Zn703  O891    1.914   1_455 S
Zn706  O897    1.914   1_455 S
Zn707  O906    1.916   1_455 S
Zn708  O894    1.935   .     S
Br709  C781    1.946   .     S
Br710  C791    1.945   .     S
Br711  C792    1.945   .     S
Br712  C793    1.947   .     S
Br713  C794    1.947   .     S
Br714  C795    1.945   .     S
Br715  C796    1.945   .     S
Br716  C797    1.947   .     S
Br717  C782    1.946   .     S
Br718  C783    1.946   .     S
Br719  C784    1.946   .     S
Br720  C785    1.945   .     S
Br721  C786    1.946   .     S
Br722  C787    1.946   .     S
Br723  C788    1.946   .     S
Br724  C789    1.947   .     S
C725   C800    1.458   .     S
C725   O928    1.269   .     S
C726   O903    1.276   .     A
C726   C776    1.422   .     S
C726   O875    1.276   .     A
C727   C744    1.486   .     S
C727   C819    1.422   .     A
C727   C730    1.413   1_554 S
C728   C820    1.422   .     A
C728   C745    1.486   .     S
C728   C843    1.413   1_556 S
C729   C746    1.486   .     S
C729   C821    1.420   .     A
C729   C842    1.413   1_554 S
C730   C747    1.486   .     S
C730   C822    1.420   .     A
C730   C727    1.413   1_556 S
C731   C824    1.422   .     A
C731   C749    1.486   .     S
C731   C844    1.413   1_554 S
C732   H845    1.085   .     S
C732   C833    1.486   .     S
C733   O910    1.222   .     D
C733   C835    1.486   .     S
C733   H617    1.085   1_655 S
C734   H854    1.085   .     S
C734   C836    1.486   .     S
C734   O439    1.221   1_565 S
C735   O912    1.222   .     D
C735   C837    1.486   .     S
C736   C838    1.486   .     S
C736   H856    1.086   .     S
C736   O677    1.221   1_655 S
C737   O876    1.276   .     A
C737   C775    1.423   .     S
C737   O900    1.276   .     A
C738   C839    1.486   .     S
C738   O914    1.222   .     D
C739   C840    1.486   .     S
C739   H858    1.085   .     S
C740   O917    1.221   .     D
C740   C841    1.486   .     S
C740   H387    1.085   1_565 S
C741   O918    1.222   .     D
C741   C842    1.486   .     S
C741   H860    1.085   .     S
C742   H846    1.086   .     S
C742   C843    1.486   .     S
C742   O919    1.221   .     D
C743   H847    1.085   .     S
C743   O920    1.221   .     D
C743   C844    1.486   .     S
C744   H848    1.085   .     S
C744   O921    1.222   .     D
C745   O922    1.222   .     D
C745   H849    1.085   .     S
C746   O923    1.221   .     D
C746   H850    1.086   .     S
C747   O924    1.221   .     D
C747   H851    1.085   .     S
C748   O877    1.276   .     A
C748   O901    1.276   .     A
C748   C774    1.423   .     S
C749   H852    1.085   .     S
C749   O925    1.222   .     D
C750   O907    1.276   .     A
C750   O878    1.276   .     A
C750   C773    1.422   .     S
C751   O908    1.276   .     A
C751   C772    1.422   .     S
C751   O879    1.276   .     A
C752   C780    1.423   .     S
C752   O904    1.276   .     A
C752   O880    1.276   .     A
C753   O881    1.276   .     A
C753   O906    1.276   .     A
C753   C778    1.423   .     S
C754   O893    1.276   .     A
C754   C769    1.423   .     S
C754   O882    1.276   .     A
C755   C767    1.423   .     S
C755   O884    1.276   .     A
C755   O895    1.276   .     A
C756   O885    1.276   .     A
C756   O891    1.276   .     A
C756   C766    1.422   .     S
C757   C802    1.460   .     S
C757   O916    1.270   .     A
C758   O886    1.276   .     A
C758   C765    1.422   .     S
C758   O892    1.276   .     A
C759   C764    1.423   .     S
C759   O887    1.276   .     A
C759   O898    1.276   .     A
C760   O888    1.276   .     A
C760   O899    1.276   .     A
C760   C763    1.423   .     S
C761   O896    1.276   .     A
C761   O889    1.276   .     A
C761   C771    1.422   .     S
C762   O897    1.276   .     A
C762   O890    1.276   .     A
C762   C770    1.422   .     S
C763   C780    1.199   .     T
C764   C778    1.199   .     T
C765   C777    1.198   .     T
C766   C776    1.198   .     T
C767   C775    1.199   .     T
C768   C798    1.458   .     S
C768   O926    1.269   .     S
C769   C774    1.199   .     T
C770   C773    1.198   .     T
C771   C772    1.198   .     T
C777   C834    1.422   .     S
C779   O864    1.270   .     A
C779   C799    1.460   .     S
C781   C811    1.420   .     A
C781   C798    1.398   .     S
C782   C799    1.399   .     A
C782   C813    1.420   .     A
C783   C328    1.398   1_565 A
C783   C814    1.419   .     A
C784   C815    1.420   .     A
C784   C330    1.399   1_565 S
C785   C562    1.398   1_655 A
C785   C807    1.420   .     A
C786   C808    1.420   .     A
C786   C563    1.399   1_655 S
C787   C809    1.419   .     A
C787   C800    1.398   .     S
C788   C810    1.420   .     A
C788   C802    1.399   .     A
C789   C820    1.420   .     A
C789   C803    1.401   .     S
C790   C805    1.455   .     S
C790   O869    1.268   .     A
C790   O865    1.268   .     S
C791   C821    1.419   .     A
C791   C332    1.396   1_565 S
C792   C569    1.396   1_655 A
C792   C822    1.419   .     A
C793   C806    1.401   .     A
C793   C824    1.420   .     A
C794   C816    1.420   .     A
C794   C331    1.401   1_565 A
C795   C804    1.396   .     A
C795   C817    1.419   .     A
C796   C818    1.419   .     A
C796   C805    1.396   .     S
C797   C819    1.420   .     A
C797   C570    1.401   1_655 S
C801   C806    1.463   .     S
C801   O866    1.271   .     S
C801   O870    1.271   .     S
C803   C812    1.463   .     S
C804   C823    1.455   .     S
C807   C589    1.425   1_655 A
C807   C597    1.421   1_655 S
C808   C835    1.421   .     A
C808   C590    1.424   1_655 A
C809   C827    1.424   .     S
C810   C837    1.421   .     A
C810   C828    1.424   .     S
C811   C825    1.425   .     S
C812   O867    1.271   .     S
C812   O871    1.271   .     S
C813   C839    1.421   .     A
C813   C826    1.424   .     S
C814   C355    1.425   1_565 A
C814   C368    1.421   1_565 S
C815   C356    1.424   1_565 A
C815   C841    1.421   .     A
C816   C842    1.422   .     A
C816   C357    1.424   1_565 A
C817   C843    1.420   .     A
C817   C830    1.425   .     S
C818   C844    1.420   .     A
C818   C831    1.425   .     S
C819   C596    1.424   1_655 A
C820   C829    1.424   .     S
C821   C358    1.425   1_565 A
C822   C595    1.425   1_655 A
C823   O868    1.268   .     S
C823   O873    1.268   .     S
C824   C832    1.424   .     S
C825   C826    1.414   .     A
C827   C828    1.414   .     A
C829   C830    1.414   1_556 S
C830   C829    1.414   1_554 S
C831   C832    1.414   1_556 S
C832   C831    1.414   1_554 S
C833   C839    1.413   .     A
C834   O902    1.276   .     A
C834   O874    1.276   .     A
C835   C838    1.413   .     A
C836   C841    1.413   .     A
C836   C337    1.421   1_565 S
C837   C840    1.413   .     A
C838   C575    1.421   1_655 S
C842   C729    1.413   1_556 S
C843   C728    1.413   1_554 S
C844   C731    1.413   1_556 S
H855   C263    1.085   1_565 S
H857   C502    1.085   1_655 S
O861   Zn929   1.935   .     S
O861   Zn940   1.935   .     S
O861   Zn932   1.935   .     S
O862   Zn931   1.947   .     S
O862   C285    1.270   1_565 S
O863   Zn934   1.947   .     S
O863   C532    1.269   1_655 A
O864   Zn933   1.947   .     S
O865   Zn943   1.947   .     S
O866   Zn942   1.947   .     S
O867   Zn937   1.947   .     S
O868   Zn929   1.947   .     S
O869   Zn939   1.947   .     S
O870   Zn938   1.947   .     S
O871   Zn941   1.947   .     S
O872   Zn941   1.935   .     S
O872   Zn937   1.935   .     S
O872   Zn935   1.935   .     S
O873   Zn940   1.947   .     S
O874   Zn932   1.914   .     S
O875   Zn931   1.914   .     S
O876   Zn934   1.916   .     S
O877   Zn933   1.916   .     S
O878   Zn936   1.914   .     S
O879   Zn935   1.914   .     S
O880   Zn930   1.916   .     S
O881   Zn944   1.916   .     S
O882   Zn931   1.916   .     S
O883   Zn938   1.935   .     S
O883   Zn942   1.935   .     S
O883   Zn930   1.935   .     S
O884   Zn932   1.916   .     S
O885   Zn944   1.914   .     S
O886   Zn930   1.914   .     S
O887   Zn935   1.916   .     S
O888   Zn936   1.916   .     S
O889   Zn933   1.914   .     S
O890   Zn934   1.914   .     S
O891   Zn703   1.914   1_655 S
O892   Zn938   1.914   .     S
O893   Zn469   1.916   1_565 S
O894   Zn939   1.935   .     S
O894   Zn933   1.935   .     S
O894   Zn943   1.935   .     S
O895   Zn940   1.916   .     S
O896   Zn943   1.914   .     S
O897   Zn706   1.914   1_655 S
O898   Zn937   1.916   .     S
O899   Zn457   1.916   1_565 S
O900   Zn702   1.916   1_655 S
O901   Zn939   1.916   .     S
O902   Zn929   1.914   .     S
O903   Zn465   1.914   1_565 S
O904   Zn942   1.916   .     S
O905   C253    1.269   1_565 A
O905   Zn936   1.947   .     S
O906   Zn707   1.916   1_655 S
O907   Zn468   1.914   1_565 S
O908   Zn941   1.914   .     S
O909   C496    1.221   1_655 S
O915   C267    1.221   1_565 S
O916   Zn935   1.947   .     S
O926   Zn930   1.947   .     S
O927   Zn944   1.947   .     S
O927   C543    1.270   1_655 S
O928   Zn932   1.947   .     S
Zn931  O400    1.935   1_565 S
Zn934  O647    1.935   1_655 S
Zn936  O389    1.935   1_565 S
Zn944  O658    1.935   1_655 S
