data_str_m1_o1_o17_pcu_sym.87
_audit_creation_date              2020-01-03
_audit_creation_method            'Materials Studio'
_symmetry_space_group_name_H-M    'P1'
_symmetry_Int_Tables_number       1
_symmetry_cell_setting            triclinic
loop_
_symmetry_equiv_pos_as_xyz
  x,y,z
_cell_length_a                    36.6543
_cell_length_b                    36.6543
_cell_length_c                    34.4802
_cell_angle_alpha                 90.0000
_cell_angle_beta                  90.0000
_cell_angle_gamma                 90.0012
loop_
_atom_site_label
_atom_site_type_symbol
_atom_site_fract_x
_atom_site_fract_y
_atom_site_fract_z
_atom_site_U_iso_or_equiv
_atom_site_adp_type
_atom_site_occupancy
Zn1    Zn    0.20660   0.00000   0.21735   0.00000  Uiso   1.00
Zn2    Zn    0.29341   0.00000   0.78265   0.00000  Uiso   1.00
Zn3    Zn    0.00000   0.20660   0.21735   0.00000  Uiso   1.00
Zn4    Zn    0.00000   0.29341   0.78265   0.00000  Uiso   1.00
Zn5    Zn    0.29341   0.00000   0.21735   0.00000  Uiso   1.00
Zn6    Zn    0.20660   0.00000   0.78265   0.00000  Uiso   1.00
Zn7    Zn    0.00000   0.29341   0.21735   0.00000  Uiso   1.00
Zn8    Zn    0.00000   0.20660   0.78265   0.00000  Uiso   1.00
Zn9    Zn    0.45660   0.25000   0.71735   0.00000  Uiso   1.00
Zn10   Zn    0.04341   0.25000   0.28265   0.00000  Uiso   1.00
Zn11   Zn    0.25000   0.45660   0.71735   0.00000  Uiso   1.00
Zn12   Zn    0.25000   0.04341   0.28265   0.00000  Uiso   1.00
Zn13   Zn    0.04341   0.25000   0.71735   0.00000  Uiso   1.00
Zn14   Zn    0.45660   0.25000   0.28265   0.00000  Uiso   1.00
Zn15   Zn    0.25000   0.04341   0.71735   0.00000  Uiso   1.00
Zn16   Zn    0.25000   0.45660   0.28265   0.00000  Uiso   1.00
C17    C     0.03293   0.25232   0.41865   0.00000  Uiso   1.00
C18    C     0.46703   0.24836   0.58134   0.00000  Uiso   1.00
C19    C     0.24815   0.46704   0.41865   0.00000  Uiso   1.00
C20    C     0.25112   0.03299   0.58134   0.00000  Uiso   1.00
C21    C     0.46707   0.24767   0.41865   0.00000  Uiso   1.00
C22    C     0.03297   0.25162   0.58134   0.00000  Uiso   1.00
C23    C     0.25182   0.03296   0.41865   0.00000  Uiso   1.00
C24    C     0.24885   0.46701   0.58134   0.00000  Uiso   1.00
C25    C     0.28301   0.00021   0.91866   0.00000  Uiso   1.00
C26    C     0.21701   0.49909   0.08135   0.00000  Uiso   1.00
C27    C     0.49899   0.21701   0.91866   0.00000  Uiso   1.00
C28    C     0.00170   0.28296   0.08135   0.00000  Uiso   1.00
C29    C     0.21699   0.49979   0.91866   0.00000  Uiso   1.00
C30    C     0.28300   0.00092   0.08135   0.00000  Uiso   1.00
C31    C     0.00100   0.28299   0.91866   0.00000  Uiso   1.00
C32    C     0.49829   0.21704   0.08135   0.00000  Uiso   1.00
C33    C     0.00000   0.25000   0.39842   0.00000  Uiso   1.00
C34    C     0.00000   0.25000   0.60158   0.00000  Uiso   1.00
C35    C     0.24999  -0.00000   0.39842   0.00000  Uiso   1.00
C36    C     0.24999  -0.00000   0.60158   0.00000  Uiso   1.00
C37    C     0.25000   0.00000   0.89842   0.00000  Uiso   1.00
C38    C     0.25000   0.00000   0.10158   0.00000  Uiso   1.00
C39    C    -0.00000   0.25000   0.89842   0.00000  Uiso   1.00
C40    C    -0.00000   0.25000   0.10158   0.00000  Uiso   1.00
O41    O     0.25000   0.00000   0.25000   0.00000  Uiso   1.00
O42    O     0.25000   0.00000   0.75000   0.00000  Uiso   1.00
O43    O     0.00000   0.25000   0.25000   0.00000  Uiso   1.00
O44    O     0.00000   0.25000   0.75000   0.00000  Uiso   1.00
O45    O     0.25000   0.46964   0.33755   0.00000  Uiso   1.00
O46    O     0.25000   0.03037   0.66245   0.00000  Uiso   1.00
O47    O     0.03037   0.25000   0.33755   0.00000  Uiso   1.00
O48    O     0.46964   0.25000   0.66245   0.00000  Uiso   1.00
O49    O     0.25000   0.03037   0.33755   0.00000  Uiso   1.00
O50    O     0.25000   0.46964   0.66245   0.00000  Uiso   1.00
O51    O     0.46964   0.25000   0.33755   0.00000  Uiso   1.00
O52    O     0.03037   0.25000   0.66245   0.00000  Uiso   1.00
O53    O     0.00000   0.21964   0.83755   0.00000  Uiso   1.00
O54    O     0.00000   0.28037   0.16245   0.00000  Uiso   1.00
O55    O     0.28037   0.00000   0.83755   0.00000  Uiso   1.00
O56    O     0.21964   0.00000   0.16245   0.00000  Uiso   1.00
O57    O     0.00000   0.28037   0.83755   0.00000  Uiso   1.00
O58    O     0.00000   0.21964   0.16245   0.00000  Uiso   1.00
O59    O     0.21964   0.00000   0.83755   0.00000  Uiso   1.00
O60    O     0.28037   0.00000   0.16245   0.00000  Uiso   1.00
O61    O     0.20725   0.07308   0.27302   0.00000  Uiso   1.00
O62    O     0.29276   0.42693   0.72698   0.00000  Uiso   1.00
O63    O     0.42693   0.20725   0.27302   0.00000  Uiso   1.00
O64    O     0.07308   0.29276   0.72698   0.00000  Uiso   1.00
O65    O     0.29276   0.42693   0.27302   0.00000  Uiso   1.00
O66    O     0.20725   0.07308   0.72698   0.00000  Uiso   1.00
O67    O     0.07308   0.29276   0.27302   0.00000  Uiso   1.00
O68    O     0.42693   0.20725   0.72698   0.00000  Uiso   1.00
O69    O     0.20725   0.42693   0.72698   0.00000  Uiso   1.00
O70    O     0.29276   0.07308   0.27302   0.00000  Uiso   1.00
O71    O     0.42693   0.29276   0.72698   0.00000  Uiso   1.00
O72    O     0.07308   0.20725   0.27302   0.00000  Uiso   1.00
O73    O     0.29276   0.07308   0.72698   0.00000  Uiso   1.00
O74    O     0.20725   0.42693   0.27302   0.00000  Uiso   1.00
O75    O     0.07308   0.20725   0.72698   0.00000  Uiso   1.00
O76    O     0.42693   0.29276   0.27302   0.00000  Uiso   1.00
O77    O     0.45725   0.32308   0.77302   0.00000  Uiso   1.00
O78    O     0.04276   0.17693   0.22698   0.00000  Uiso   1.00
O79    O     0.17693   0.45725   0.77302   0.00000  Uiso   1.00
O80    O     0.32308   0.04276   0.22698   0.00000  Uiso   1.00
O81    O     0.04276   0.17693   0.77302   0.00000  Uiso   1.00
O82    O     0.45725   0.32308   0.22698   0.00000  Uiso   1.00
O83    O     0.32308   0.04276   0.77302   0.00000  Uiso   1.00
O84    O     0.17693   0.45725   0.22698   0.00000  Uiso   1.00
O85    O     0.45725   0.17693   0.22698   0.00000  Uiso   1.00
O86    O     0.04276   0.32308   0.77302   0.00000  Uiso   1.00
O87    O     0.17693   0.04276   0.22698   0.00000  Uiso   1.00
O88    O     0.32308   0.45725   0.77302   0.00000  Uiso   1.00
O89    O     0.04276   0.32308   0.22698   0.00000  Uiso   1.00
O90    O     0.45725   0.17693   0.77302   0.00000  Uiso   1.00
O91    O     0.32308   0.45725   0.22698   0.00000  Uiso   1.00
O92    O     0.17693   0.04276   0.77302   0.00000  Uiso   1.00
C93    C     0.43313   0.24626   0.47963   0.00000  Uiso   1.00
C94    C     0.06682   0.25451   0.52036   0.00000  Uiso   1.00
C95    C     0.25266   0.06692   0.47964   0.00000  Uiso   1.00
C96    C     0.24647   0.43312   0.52036   0.00000  Uiso   1.00
C97    C     0.06687   0.25372   0.47963   0.00000  Uiso   1.00
C98    C     0.43318   0.24545   0.52036   0.00000  Uiso   1.00
C99    C     0.24727   0.43309   0.47963   0.00000  Uiso   1.00
C100   C     0.25346   0.06688   0.52036   0.00000  Uiso   1.00
C101   C     0.18305   0.49844   0.97964   0.00000  Uiso   1.00
C102   C     0.31696   0.00078   0.02036   0.00000  Uiso   1.00
C103   C     0.00323   0.31689   0.97964   0.00000  Uiso   1.00
C104   C     0.49754   0.18308   0.02037   0.00000  Uiso   1.00
C105   C     0.31695   0.00157   0.97964   0.00000  Uiso   1.00
C106   C     0.18304   0.49923   0.02036   0.00000  Uiso   1.00
C107   C     0.49675   0.18311   0.97964   0.00000  Uiso   1.00
C108   C     0.00243   0.31693   0.02037   0.00000  Uiso   1.00
C109   C     0.25000   0.00000   0.35597   0.00000  Uiso   1.00
C110   C     0.25000   0.00000   0.64403   0.00000  Uiso   1.00
C111   C     0.00000   0.25000   0.35597   0.00000  Uiso   1.00
C112   C     0.00000   0.25000   0.64403   0.00000  Uiso   1.00
C113   C     0.00000   0.25000   0.85597   0.00000  Uiso   1.00
C114   C    -0.00000   0.25000   0.14403   0.00000  Uiso   1.00
C115   C     0.25000   0.00000   0.85597   0.00000  Uiso   1.00
C116   C     0.25000   0.00000   0.14403   0.00000  Uiso   1.00
C117   C     0.17994   0.07006   0.25000   0.00000  Uiso   1.00
C118   C     0.32006   0.42994   0.75000   0.00000  Uiso   1.00
C119   C     0.42994   0.17994   0.25000   0.00000  Uiso   1.00
C120   C     0.07006   0.32006   0.75000   0.00000  Uiso   1.00
C121   C     0.32006   0.42994   0.25000   0.00000  Uiso   1.00
C122   C     0.17994   0.07006   0.75000   0.00000  Uiso   1.00
C123   C     0.07006   0.32006   0.25000   0.00000  Uiso   1.00
C124   C     0.42994   0.17994   0.75000   0.00000  Uiso   1.00
C125   C     0.17994   0.42994   0.75000   0.00000  Uiso   1.00
C126   C     0.32006   0.07006   0.25000   0.00000  Uiso   1.00
C127   C     0.42994   0.32006   0.75000   0.00000  Uiso   1.00
C128   C     0.07006   0.17994   0.25000   0.00000  Uiso   1.00
C129   C     0.32006   0.07006   0.75000   0.00000  Uiso   1.00
C130   C     0.17994   0.42994   0.25000   0.00000  Uiso   1.00
C131   C     0.07006   0.17994   0.75000   0.00000  Uiso   1.00
C132   C     0.42994   0.32006   0.25000   0.00000  Uiso   1.00
C133   C     0.12199   0.40475   0.22482   0.00000  Uiso   1.00
C134   C     0.37797   0.09530   0.77525   0.00000  Uiso   1.00
C135   C     0.09527   0.12200   0.22480   0.00000  Uiso   1.00
C136   C     0.40477   0.37804   0.77514   0.00000  Uiso   1.00
C137   C     0.37801   0.09525   0.22482   0.00000  Uiso   1.00
C138   C     0.12203   0.40470   0.77525   0.00000  Uiso   1.00
C139   C     0.40473   0.37800   0.22480   0.00000  Uiso   1.00
C140   C     0.09523   0.12196   0.77514   0.00000  Uiso   1.00
C141   C     0.12196   0.09523   0.77514   0.00000  Uiso   1.00
C142   C     0.37800   0.40473   0.22480   0.00000  Uiso   1.00
C143   C     0.09530   0.37797   0.77525   0.00000  Uiso   1.00
C144   C     0.40475   0.12199   0.22482   0.00000  Uiso   1.00
C145   C     0.37804   0.40477   0.77514   0.00000  Uiso   1.00
C146   C     0.12200   0.09527   0.22480   0.00000  Uiso   1.00
C147   C     0.40470   0.12203   0.77525   0.00000  Uiso   1.00
C148   C     0.09525   0.37801   0.22482   0.00000  Uiso   1.00
C149   C     0.37204   0.15470   0.72475   0.00000  Uiso   1.00
C150   C     0.12801   0.34525   0.27518   0.00000  Uiso   1.00
C151   C     0.34523   0.37196   0.72486   0.00000  Uiso   1.00
C152   C     0.15473   0.12800   0.27520   0.00000  Uiso   1.00
C153   C     0.12796   0.34530   0.72475   0.00000  Uiso   1.00
C154   C     0.37199   0.15475   0.27518   0.00000  Uiso   1.00
C155   C     0.15477   0.12804   0.72486   0.00000  Uiso   1.00
C156   C     0.34527   0.37200   0.27520   0.00000  Uiso   1.00
C157   C     0.37200   0.34527   0.27520   0.00000  Uiso   1.00
C158   C     0.12804   0.15477   0.72486   0.00000  Uiso   1.00
C159   C     0.34525   0.12801   0.27518   0.00000  Uiso   1.00
C160   C     0.15470   0.37204   0.72475   0.00000  Uiso   1.00
C161   C     0.12800   0.15473   0.27520   0.00000  Uiso   1.00
C162   C     0.37196   0.34523   0.72486   0.00000  Uiso   1.00
C163   C     0.15475   0.37199   0.27518   0.00000  Uiso   1.00
C164   C     0.34530   0.12797   0.72475   0.00000  Uiso   1.00
H165   H     0.11923   0.42760   0.20512   0.00000  Uiso   1.00
H166   H     0.38069   0.07248   0.79500   0.00000  Uiso   1.00
H167   H     0.07243   0.11925   0.20508   0.00000  Uiso   1.00
H168   H     0.42765   0.38082   0.79481   0.00000  Uiso   1.00
H169   H     0.38077   0.07240   0.20513   0.00000  Uiso   1.00
H170   H     0.11931   0.42752   0.79500   0.00000  Uiso   1.00
H171   H     0.42757   0.38075   0.20508   0.00000  Uiso   1.00
H172   H     0.07235   0.11918   0.79481   0.00000  Uiso   1.00
H173   H     0.11918   0.07235   0.79481   0.00000  Uiso   1.00
H174   H     0.38075   0.42757   0.20508   0.00000  Uiso   1.00
H175   H     0.07248   0.38069   0.79500   0.00000  Uiso   1.00
H176   H     0.42760   0.11923   0.20513   0.00000  Uiso   1.00
H177   H     0.38082   0.42765   0.79481   0.00000  Uiso   1.00
H178   H     0.11925   0.07243   0.20508   0.00000  Uiso   1.00
H179   H     0.42752   0.11931   0.79500   0.00000  Uiso   1.00
H180   H     0.07240   0.38077   0.20512   0.00000  Uiso   1.00
H181   H     0.36931   0.17752   0.70500   0.00000  Uiso   1.00
H182   H     0.13077   0.32240   0.29488   0.00000  Uiso   1.00
H183   H     0.32235   0.36918   0.70519   0.00000  Uiso   1.00
H184   H     0.17758   0.13075   0.29492   0.00000  Uiso   1.00
H185   H     0.13069   0.32248   0.70500   0.00000  Uiso   1.00
H186   H     0.36923   0.17760   0.29488   0.00000  Uiso   1.00
H187   H     0.17765   0.13082   0.70519   0.00000  Uiso   1.00
H188   H     0.32242   0.36925   0.29492   0.00000  Uiso   1.00
H189   H     0.36925   0.32242   0.29492   0.00000  Uiso   1.00
H190   H     0.13082   0.17765   0.70519   0.00000  Uiso   1.00
H191   H     0.32240   0.13077   0.29488   0.00000  Uiso   1.00
H192   H     0.17752   0.36931   0.70500   0.00000  Uiso   1.00
H193   H     0.13075   0.17758   0.29492   0.00000  Uiso   1.00
H194   H     0.36918   0.32235   0.70519   0.00000  Uiso   1.00
H195   H     0.17760   0.36923   0.29488   0.00000  Uiso   1.00
H196   H     0.32248   0.13069   0.70500   0.00000  Uiso   1.00
C197   C     0.46649   0.24824   0.45922   0.00000  Uiso   1.00
C198   C     0.03348   0.25232   0.54077   0.00000  Uiso   1.00
C199   C     0.25122   0.03354   0.45922   0.00000  Uiso   1.00
C200   C     0.24816   0.46649   0.54077   0.00000  Uiso   1.00
C201   C     0.03351   0.25175   0.45922   0.00000  Uiso   1.00
C202   C     0.46652   0.24765   0.54077   0.00000  Uiso   1.00
C203   C     0.24873   0.46646   0.45922   0.00000  Uiso   1.00
C204   C     0.25180   0.03351   0.54077   0.00000  Uiso   1.00
C205   C     0.21645   0.49914   0.95923   0.00000  Uiso   1.00
C206   C     0.28356   0.00030   0.04077   0.00000  Uiso   1.00
C207   C     0.00169   0.28352   0.95923   0.00000  Uiso   1.00
C208   C     0.49887   0.21646   0.04078   0.00000  Uiso   1.00
C209   C     0.28355   0.00087   0.95923   0.00000  Uiso   1.00
C210   C     0.21644   0.49971   0.04077   0.00000  Uiso   1.00
C211   C     0.49830   0.21648   0.95923   0.00000  Uiso   1.00
C212   C     0.00111   0.28354   0.04078   0.00000  Uiso   1.00
H213   H     0.05807   0.25480   0.40244   0.00000  Uiso   1.00
H214   H     0.44177   0.24772   0.59754   0.00000  Uiso   1.00
H215   H     0.24606   0.44187   0.40245   0.00000  Uiso   1.00
H216   H     0.25138   0.05825   0.59754   0.00000  Uiso   1.00
H217   H     0.44193   0.24519   0.40244   0.00000  Uiso   1.00
H218   H     0.05823   0.25227   0.59754   0.00000  Uiso   1.00
H219   H     0.25392   0.05813   0.40245   0.00000  Uiso   1.00
H220   H     0.24860   0.44175   0.59754   0.00000  Uiso   1.00
H221   H     0.30827   0.49974   0.90246   0.00000  Uiso   1.00
H222   H     0.19178   0.49772   0.09755   0.00000  Uiso   1.00
H223   H     0.49884   0.19174   0.90246   0.00000  Uiso   1.00
H224   H     0.00369   0.30815   0.09755   0.00000  Uiso   1.00
H225   H     0.19173   0.00027   0.90246   0.00000  Uiso   1.00
H226   H     0.30822   0.00228   0.09755   0.00000  Uiso   1.00
H227   H     0.00116   0.30826   0.90246   0.00000  Uiso   1.00
H228   H     0.49630   0.19185   0.09755   0.00000  Uiso   1.00
C229   C     0.09813   0.34813   0.25000   0.00000  Uiso   1.00
C230   C     0.40187   0.15187   0.75000   0.00000  Uiso   1.00
C231   C     0.15187   0.09813   0.25000   0.00000  Uiso   1.00
C232   C     0.34813   0.40187   0.75000   0.00000  Uiso   1.00
C233   C     0.40187   0.15187   0.25000   0.00000  Uiso   1.00
C234   C     0.09813   0.34813   0.75000   0.00000  Uiso   1.00
C235   C     0.34813   0.40187   0.25000   0.00000  Uiso   1.00
C236   C     0.15187   0.09813   0.75000   0.00000  Uiso   1.00
C237   C     0.09813   0.15187   0.75000   0.00000  Uiso   1.00
C238   C     0.40187   0.34813   0.25000   0.00000  Uiso   1.00
C239   C     0.15187   0.40187   0.75000   0.00000  Uiso   1.00
C240   C     0.34813   0.09813   0.25000   0.00000  Uiso   1.00
C241   C     0.40187   0.34813   0.75000   0.00000  Uiso   1.00
C242   C     0.09813   0.15187   0.25000   0.00000  Uiso   1.00
C243   C     0.34813   0.09813   0.75000   0.00000  Uiso   1.00
C244   C     0.15187   0.40187   0.25000   0.00000  Uiso   1.00
C245   C     0.00000   0.24999   0.47964   0.00000  Uiso   1.00
C246   C     0.00000   0.24999   0.52036   0.00000  Uiso   1.00
C247   C     0.24998  -0.00000   0.47964   0.00000  Uiso   1.00
C248   C     0.24998  -0.00000   0.52036   0.00000  Uiso   1.00
C249   C     0.25000   0.00000   0.97964   0.00000  Uiso   1.00
C250   C     0.25000   0.00000   0.02036   0.00000  Uiso   1.00
C251   C     0.49999   0.25000   0.97964   0.00000  Uiso   1.00
C252   C     0.49999   0.25000   0.02036   0.00000  Uiso   1.00
N253   N     0.39903   0.24447   0.45921   0.00000  Uiso   1.00
O254   O     0.38833   0.27192   0.43816   0.00000  Uiso   1.00
O255   O     0.37709   0.21704   0.46466   0.00000  Uiso   1.00
N256   N     0.10087   0.25704   0.54078   0.00000  Uiso   1.00
O257   O     0.10801   0.28558   0.56188   0.00000  Uiso   1.00
O258   O     0.12614   0.23266   0.53524   0.00000  Uiso   1.00
N259   N     0.25389   0.10104   0.45922   0.00000  Uiso   1.00
O260   O     0.22628   0.11127   0.43813   0.00000  Uiso   1.00
O261   O     0.28091   0.12346   0.46471   0.00000  Uiso   1.00
N262   N     0.24445   0.39903   0.54078   0.00000  Uiso   1.00
O263   O     0.21601   0.39149   0.56190   0.00000  Uiso   1.00
O264   O     0.26918   0.37412   0.53523   0.00000  Uiso   1.00
N265   N     0.10097   0.25551   0.45921   0.00000  Uiso   1.00
O266   O     0.11167   0.22806   0.43815   0.00000  Uiso   1.00
O267   O     0.12292   0.28292   0.46468   0.00000  Uiso   1.00
N268   N     0.39913   0.24289   0.54078   0.00000  Uiso   1.00
O269   O     0.39203   0.21435   0.56190   0.00000  Uiso   1.00
O270   O     0.37382   0.26723   0.53522   0.00000  Uiso   1.00
N271   N     0.24601   0.39896   0.45921   0.00000  Uiso   1.00
O272   O     0.27362   0.38869   0.43815   0.00000  Uiso   1.00
O273   O     0.21893   0.37659   0.46467   0.00000  Uiso   1.00
N274   N     0.25542   0.10097   0.54078   0.00000  Uiso   1.00
O275   O     0.28386   0.10859   0.56186   0.00000  Uiso   1.00
O276   O     0.23060   0.12581   0.53528   0.00000  Uiso   1.00
N277   N     0.14892   0.49747   0.95922   0.00000  Uiso   1.00
O278   O     0.14048   0.46926   0.93814   0.00000  Uiso   1.00
O279   O     0.12481   0.02300   0.96472   0.00000  Uiso   1.00
N280   N     0.35111   0.00103   0.04078   0.00000  Uiso   1.00
O281   O     0.36055   0.47314   0.06186   0.00000  Uiso   1.00
O282   O     0.37429   0.02741   0.03529   0.00000  Uiso   1.00
N283   N     0.00508   0.35099   0.95922   0.00000  Uiso   1.00
O284   O     0.03348   0.35869   0.93812   0.00000  Uiso   1.00
O285   O     0.48020   0.37577   0.96475   0.00000  Uiso   1.00
N286   N     0.49639   0.14895   0.04079   0.00000  Uiso   1.00
O287   O     0.02404   0.13876   0.06183   0.00000  Uiso   1.00
O288   O     0.46938   0.12650   0.03535   0.00000  Uiso   1.00
N289   N     0.35108   0.00255   0.95922   0.00000  Uiso   1.00
O290   O     0.35952   0.03075   0.93813   0.00000  Uiso   1.00
O291   O     0.37520   0.47702   0.96472   0.00000  Uiso   1.00
N292   N     0.14889   0.49899   0.04078   0.00000  Uiso   1.00
O293   O     0.13946   0.02688   0.06187   0.00000  Uiso   1.00
O294   O     0.12570   0.47262   0.03529   0.00000  Uiso   1.00
N295   N     0.49489   0.14901   0.95923   0.00000  Uiso   1.00
O296   O     0.46649   0.14133   0.93811   0.00000  Uiso   1.00
O297   O     0.01974   0.12421   0.96477   0.00000  Uiso   1.00
N298   N     0.00354   0.35105   0.04079   0.00000  Uiso   1.00
O299   O     0.47589   0.36121   0.06185   0.00000  Uiso   1.00
O300   O     0.03051   0.37355   0.03532   0.00000  Uiso   1.00
Zn301  Zn    0.70660   0.00000   0.21735   0.00000  Uiso   1.00
Zn302  Zn    0.79341   0.00000   0.78265   0.00000  Uiso   1.00
Zn303  Zn    0.50000   0.20660   0.21735   0.00000  Uiso   1.00
Zn304  Zn    0.50000   0.29341   0.78265   0.00000  Uiso   1.00
Zn305  Zn    0.79341   0.00000   0.21735   0.00000  Uiso   1.00
Zn306  Zn    0.70660   0.00000   0.78265   0.00000  Uiso   1.00
Zn307  Zn    0.50000   0.29341   0.21735   0.00000  Uiso   1.00
Zn308  Zn    0.50000   0.20660   0.78265   0.00000  Uiso   1.00
Zn309  Zn    0.95660   0.25000   0.71735   0.00000  Uiso   1.00
Zn310  Zn    0.54341   0.25000   0.28265   0.00000  Uiso   1.00
Zn311  Zn    0.75000   0.45660   0.71735   0.00000  Uiso   1.00
Zn312  Zn    0.75000   0.04341   0.28265   0.00000  Uiso   1.00
Zn313  Zn    0.54341   0.25000   0.71735   0.00000  Uiso   1.00
Zn314  Zn    0.95660   0.25000   0.28265   0.00000  Uiso   1.00
Zn315  Zn    0.75000   0.04341   0.71735   0.00000  Uiso   1.00
Zn316  Zn    0.75000   0.45660   0.28265   0.00000  Uiso   1.00
C317   C     0.53293   0.25232   0.41865   0.00000  Uiso   1.00
C318   C     0.96703   0.24836   0.58134   0.00000  Uiso   1.00
C319   C     0.74815   0.46704   0.41865   0.00000  Uiso   1.00
C320   C     0.75112   0.03299   0.58134   0.00000  Uiso   1.00
C321   C     0.96707   0.24767   0.41865   0.00000  Uiso   1.00
C322   C     0.53297   0.25162   0.58134   0.00000  Uiso   1.00
C323   C     0.75182   0.03296   0.41865   0.00000  Uiso   1.00
C324   C     0.74885   0.46701   0.58134   0.00000  Uiso   1.00
C325   C     0.78301   0.00021   0.91866   0.00000  Uiso   1.00
C326   C     0.71701   0.49909   0.08135   0.00000  Uiso   1.00
C327   C     0.99899   0.21701   0.91866   0.00000  Uiso   1.00
C328   C     0.50170   0.28296   0.08135   0.00000  Uiso   1.00
C329   C     0.71699   0.49979   0.91866   0.00000  Uiso   1.00
C330   C     0.78300   0.00092   0.08135   0.00000  Uiso   1.00
C331   C     0.50100   0.28299   0.91866   0.00000  Uiso   1.00
C332   C     0.99829   0.21704   0.08135   0.00000  Uiso   1.00
C333   C     0.50000   0.25000   0.39842   0.00000  Uiso   1.00
C334   C     0.50000   0.25000   0.60158   0.00000  Uiso   1.00
C335   C     0.74999  -0.00000   0.39842   0.00000  Uiso   1.00
C336   C     0.74999  -0.00000   0.60158   0.00000  Uiso   1.00
C337   C     0.75000   0.00000   0.89842   0.00000  Uiso   1.00
C338   C     0.75000   0.00000   0.10158   0.00000  Uiso   1.00
C339   C     0.50000   0.25000   0.89842   0.00000  Uiso   1.00
C340   C     0.50000   0.25000   0.10158   0.00000  Uiso   1.00
O341   O     0.75000   0.00000   0.25000   0.00000  Uiso   1.00
O342   O     0.75000   0.00000   0.75000   0.00000  Uiso   1.00
O343   O     0.50000   0.25000   0.25000   0.00000  Uiso   1.00
O344   O     0.50000   0.25000   0.75000   0.00000  Uiso   1.00
O345   O     0.75000   0.46964   0.33755   0.00000  Uiso   1.00
O346   O     0.75000   0.03037   0.66245   0.00000  Uiso   1.00
O347   O     0.53037   0.25000   0.33755   0.00000  Uiso   1.00
O348   O     0.96964   0.25000   0.66245   0.00000  Uiso   1.00
O349   O     0.75000   0.03037   0.33755   0.00000  Uiso   1.00
O350   O     0.75000   0.46964   0.66245   0.00000  Uiso   1.00
O351   O     0.96964   0.25000   0.33755   0.00000  Uiso   1.00
O352   O     0.53037   0.25000   0.66245   0.00000  Uiso   1.00
O353   O     0.50000   0.21964   0.83755   0.00000  Uiso   1.00
O354   O     0.50000   0.28037   0.16245   0.00000  Uiso   1.00
O355   O     0.78037   0.00000   0.83755   0.00000  Uiso   1.00
O356   O     0.71964   0.00000   0.16245   0.00000  Uiso   1.00
O357   O     0.50000   0.28037   0.83755   0.00000  Uiso   1.00
O358   O     0.50000   0.21964   0.16245   0.00000  Uiso   1.00
O359   O     0.71964   0.00000   0.83755   0.00000  Uiso   1.00
O360   O     0.78037   0.00000   0.16245   0.00000  Uiso   1.00
O361   O     0.70725   0.07308   0.27302   0.00000  Uiso   1.00
O362   O     0.79276   0.42693   0.72698   0.00000  Uiso   1.00
O363   O     0.92693   0.20725   0.27302   0.00000  Uiso   1.00
O364   O     0.57308   0.29276   0.72698   0.00000  Uiso   1.00
O365   O     0.79276   0.42693   0.27302   0.00000  Uiso   1.00
O366   O     0.70725   0.07308   0.72698   0.00000  Uiso   1.00
O367   O     0.57308   0.29276   0.27302   0.00000  Uiso   1.00
O368   O     0.92693   0.20725   0.72698   0.00000  Uiso   1.00
O369   O     0.70725   0.42693   0.72698   0.00000  Uiso   1.00
O370   O     0.79276   0.07308   0.27302   0.00000  Uiso   1.00
O371   O     0.92693   0.29276   0.72698   0.00000  Uiso   1.00
O372   O     0.57308   0.20725   0.27302   0.00000  Uiso   1.00
O373   O     0.79276   0.07308   0.72698   0.00000  Uiso   1.00
O374   O     0.70725   0.42693   0.27302   0.00000  Uiso   1.00
O375   O     0.57308   0.20725   0.72698   0.00000  Uiso   1.00
O376   O     0.92693   0.29276   0.27302   0.00000  Uiso   1.00
O377   O     0.95725   0.32308   0.77302   0.00000  Uiso   1.00
O378   O     0.54276   0.17693   0.22698   0.00000  Uiso   1.00
O379   O     0.67693   0.45725   0.77302   0.00000  Uiso   1.00
O380   O     0.82308   0.04276   0.22698   0.00000  Uiso   1.00
O381   O     0.54276   0.17693   0.77302   0.00000  Uiso   1.00
O382   O     0.95725   0.32308   0.22698   0.00000  Uiso   1.00
O383   O     0.82308   0.04276   0.77302   0.00000  Uiso   1.00
O384   O     0.67693   0.45725   0.22698   0.00000  Uiso   1.00
O385   O     0.95725   0.17693   0.22698   0.00000  Uiso   1.00
O386   O     0.54276   0.32308   0.77302   0.00000  Uiso   1.00
O387   O     0.67693   0.04276   0.22698   0.00000  Uiso   1.00
O388   O     0.82308   0.45725   0.77302   0.00000  Uiso   1.00
O389   O     0.54276   0.32308   0.22698   0.00000  Uiso   1.00
O390   O     0.95725   0.17693   0.77302   0.00000  Uiso   1.00
O391   O     0.82308   0.45725   0.22698   0.00000  Uiso   1.00
O392   O     0.67693   0.04276   0.77302   0.00000  Uiso   1.00
C393   C     0.93313   0.24626   0.47963   0.00000  Uiso   1.00
C394   C     0.56682   0.25451   0.52036   0.00000  Uiso   1.00
C395   C     0.75266   0.06692   0.47964   0.00000  Uiso   1.00
C396   C     0.74647   0.43312   0.52036   0.00000  Uiso   1.00
C397   C     0.56687   0.25372   0.47963   0.00000  Uiso   1.00
C398   C     0.93318   0.24545   0.52036   0.00000  Uiso   1.00
C399   C     0.74727   0.43309   0.47963   0.00000  Uiso   1.00
C400   C     0.75346   0.06688   0.52036   0.00000  Uiso   1.00
C401   C     0.68305   0.49844   0.97964   0.00000  Uiso   1.00
C402   C     0.81696   0.00078   0.02036   0.00000  Uiso   1.00
C403   C     0.50323   0.31689   0.97964   0.00000  Uiso   1.00
C404   C     0.99754   0.18308   0.02037   0.00000  Uiso   1.00
C405   C     0.81695   0.00157   0.97964   0.00000  Uiso   1.00
C406   C     0.68304   0.49923   0.02036   0.00000  Uiso   1.00
C407   C     0.99675   0.18311   0.97964   0.00000  Uiso   1.00
C408   C     0.50243   0.31693   0.02037   0.00000  Uiso   1.00
C409   C     0.75000   0.00000   0.35597   0.00000  Uiso   1.00
C410   C     0.75000   0.00000   0.64403   0.00000  Uiso   1.00
C411   C     0.50000   0.25000   0.35597   0.00000  Uiso   1.00
C412   C     0.50000   0.25000   0.64403   0.00000  Uiso   1.00
C413   C     0.50000   0.25000   0.85597   0.00000  Uiso   1.00
C414   C     0.50000   0.25000   0.14403   0.00000  Uiso   1.00
C415   C     0.75000   0.00000   0.85597   0.00000  Uiso   1.00
C416   C     0.75000   0.00000   0.14403   0.00000  Uiso   1.00
C417   C     0.67994   0.07006   0.25000   0.00000  Uiso   1.00
C418   C     0.82006   0.42994   0.75000   0.00000  Uiso   1.00
C419   C     0.92994   0.17994   0.25000   0.00000  Uiso   1.00
C420   C     0.57006   0.32006   0.75000   0.00000  Uiso   1.00
C421   C     0.82006   0.42994   0.25000   0.00000  Uiso   1.00
C422   C     0.67994   0.07006   0.75000   0.00000  Uiso   1.00
C423   C     0.57006   0.32006   0.25000   0.00000  Uiso   1.00
C424   C     0.92994   0.17994   0.75000   0.00000  Uiso   1.00
C425   C     0.67994   0.42994   0.75000   0.00000  Uiso   1.00
C426   C     0.82006   0.07006   0.25000   0.00000  Uiso   1.00
C427   C     0.92994   0.32006   0.75000   0.00000  Uiso   1.00
C428   C     0.57006   0.17994   0.25000   0.00000  Uiso   1.00
C429   C     0.82006   0.07006   0.75000   0.00000  Uiso   1.00
C430   C     0.67994   0.42994   0.25000   0.00000  Uiso   1.00
C431   C     0.57006   0.17994   0.75000   0.00000  Uiso   1.00
C432   C     0.92994   0.32006   0.25000   0.00000  Uiso   1.00
C433   C     0.62199   0.40475   0.22482   0.00000  Uiso   1.00
C434   C     0.87797   0.09530   0.77525   0.00000  Uiso   1.00
C435   C     0.59527   0.12200   0.22480   0.00000  Uiso   1.00
C436   C     0.90477   0.37804   0.77514   0.00000  Uiso   1.00
C437   C     0.87801   0.09525   0.22482   0.00000  Uiso   1.00
C438   C     0.62203   0.40470   0.77525   0.00000  Uiso   1.00
C439   C     0.90473   0.37800   0.22480   0.00000  Uiso   1.00
C440   C     0.59523   0.12196   0.77514   0.00000  Uiso   1.00
C441   C     0.62196   0.09523   0.77514   0.00000  Uiso   1.00
C442   C     0.87800   0.40473   0.22480   0.00000  Uiso   1.00
C443   C     0.59530   0.37797   0.77525   0.00000  Uiso   1.00
C444   C     0.90475   0.12199   0.22482   0.00000  Uiso   1.00
C445   C     0.87804   0.40477   0.77514   0.00000  Uiso   1.00
C446   C     0.62200   0.09527   0.22480   0.00000  Uiso   1.00
C447   C     0.90470   0.12203   0.77525   0.00000  Uiso   1.00
C448   C     0.59525   0.37801   0.22482   0.00000  Uiso   1.00
C449   C     0.87204   0.15470   0.72475   0.00000  Uiso   1.00
C450   C     0.62801   0.34525   0.27518   0.00000  Uiso   1.00
C451   C     0.84523   0.37196   0.72486   0.00000  Uiso   1.00
C452   C     0.65473   0.12800   0.27520   0.00000  Uiso   1.00
C453   C     0.62796   0.34530   0.72475   0.00000  Uiso   1.00
C454   C     0.87199   0.15475   0.27518   0.00000  Uiso   1.00
C455   C     0.65477   0.12804   0.72486   0.00000  Uiso   1.00
C456   C     0.84527   0.37200   0.27520   0.00000  Uiso   1.00
C457   C     0.87200   0.34527   0.27520   0.00000  Uiso   1.00
C458   C     0.62804   0.15477   0.72486   0.00000  Uiso   1.00
C459   C     0.84525   0.12801   0.27518   0.00000  Uiso   1.00
C460   C     0.65470   0.37204   0.72475   0.00000  Uiso   1.00
C461   C     0.62800   0.15473   0.27520   0.00000  Uiso   1.00
C462   C     0.87196   0.34523   0.72486   0.00000  Uiso   1.00
C463   C     0.65475   0.37199   0.27518   0.00000  Uiso   1.00
C464   C     0.84530   0.12797   0.72475   0.00000  Uiso   1.00
H465   H     0.61923   0.42760   0.20512   0.00000  Uiso   1.00
H466   H     0.88069   0.07248   0.79500   0.00000  Uiso   1.00
H467   H     0.57243   0.11925   0.20508   0.00000  Uiso   1.00
H468   H     0.92765   0.38082   0.79481   0.00000  Uiso   1.00
H469   H     0.88077   0.07240   0.20513   0.00000  Uiso   1.00
H470   H     0.61931   0.42752   0.79500   0.00000  Uiso   1.00
H471   H     0.92757   0.38075   0.20508   0.00000  Uiso   1.00
H472   H     0.57235   0.11918   0.79481   0.00000  Uiso   1.00
H473   H     0.61918   0.07235   0.79481   0.00000  Uiso   1.00
H474   H     0.88075   0.42757   0.20508   0.00000  Uiso   1.00
H475   H     0.57248   0.38069   0.79500   0.00000  Uiso   1.00
H476   H     0.92760   0.11923   0.20513   0.00000  Uiso   1.00
H477   H     0.88082   0.42765   0.79481   0.00000  Uiso   1.00
H478   H     0.61925   0.07243   0.20508   0.00000  Uiso   1.00
H479   H     0.92752   0.11931   0.79500   0.00000  Uiso   1.00
H480   H     0.57240   0.38077   0.20512   0.00000  Uiso   1.00
H481   H     0.86931   0.17752   0.70500   0.00000  Uiso   1.00
H482   H     0.63077   0.32240   0.29488   0.00000  Uiso   1.00
H483   H     0.82235   0.36918   0.70519   0.00000  Uiso   1.00
H484   H     0.67758   0.13075   0.29492   0.00000  Uiso   1.00
H485   H     0.63069   0.32248   0.70500   0.00000  Uiso   1.00
H486   H     0.86923   0.17760   0.29488   0.00000  Uiso   1.00
H487   H     0.67765   0.13082   0.70519   0.00000  Uiso   1.00
H488   H     0.82242   0.36925   0.29492   0.00000  Uiso   1.00
H489   H     0.86925   0.32242   0.29492   0.00000  Uiso   1.00
H490   H     0.63082   0.17765   0.70519   0.00000  Uiso   1.00
H491   H     0.82240   0.13077   0.29488   0.00000  Uiso   1.00
H492   H     0.67752   0.36931   0.70500   0.00000  Uiso   1.00
H493   H     0.63075   0.17758   0.29492   0.00000  Uiso   1.00
H494   H     0.86918   0.32235   0.70519   0.00000  Uiso   1.00
H495   H     0.67760   0.36923   0.29488   0.00000  Uiso   1.00
H496   H     0.82248   0.13069   0.70500   0.00000  Uiso   1.00
C497   C     0.96649   0.24824   0.45922   0.00000  Uiso   1.00
C498   C     0.53348   0.25232   0.54077   0.00000  Uiso   1.00
C499   C     0.75122   0.03354   0.45922   0.00000  Uiso   1.00
C500   C     0.74816   0.46649   0.54077   0.00000  Uiso   1.00
C501   C     0.53351   0.25175   0.45922   0.00000  Uiso   1.00
C502   C     0.96652   0.24765   0.54077   0.00000  Uiso   1.00
C503   C     0.74873   0.46646   0.45922   0.00000  Uiso   1.00
C504   C     0.75180   0.03351   0.54077   0.00000  Uiso   1.00
C505   C     0.71645   0.49914   0.95923   0.00000  Uiso   1.00
C506   C     0.78356   0.00030   0.04077   0.00000  Uiso   1.00
C507   C     0.50169   0.28352   0.95923   0.00000  Uiso   1.00
C508   C     0.99887   0.21646   0.04078   0.00000  Uiso   1.00
C509   C     0.78355   0.00087   0.95923   0.00000  Uiso   1.00
C510   C     0.71644   0.49971   0.04077   0.00000  Uiso   1.00
C511   C     0.99830   0.21648   0.95923   0.00000  Uiso   1.00
C512   C     0.50111   0.28354   0.04078   0.00000  Uiso   1.00
H513   H     0.55807   0.25480   0.40244   0.00000  Uiso   1.00
H514   H     0.94177   0.24772   0.59754   0.00000  Uiso   1.00
H515   H     0.74606   0.44187   0.40245   0.00000  Uiso   1.00
H516   H     0.75138   0.05825   0.59754   0.00000  Uiso   1.00
H517   H     0.94193   0.24519   0.40244   0.00000  Uiso   1.00
H518   H     0.55823   0.25227   0.59754   0.00000  Uiso   1.00
H519   H     0.75392   0.05813   0.40245   0.00000  Uiso   1.00
H520   H     0.74860   0.44175   0.59754   0.00000  Uiso   1.00
H521   H     0.80827   0.49974   0.90246   0.00000  Uiso   1.00
H522   H     0.69178   0.49772   0.09755   0.00000  Uiso   1.00
H523   H     0.99884   0.19174   0.90246   0.00000  Uiso   1.00
H524   H     0.50369   0.30815   0.09755   0.00000  Uiso   1.00
H525   H     0.69173   0.00027   0.90246   0.00000  Uiso   1.00
H526   H     0.80822   0.00228   0.09755   0.00000  Uiso   1.00
H527   H     0.50116   0.30826   0.90246   0.00000  Uiso   1.00
H528   H     0.99630   0.19185   0.09755   0.00000  Uiso   1.00
C529   C     0.59813   0.34813   0.25000   0.00000  Uiso   1.00
C530   C     0.90187   0.15187   0.75000   0.00000  Uiso   1.00
C531   C     0.65187   0.09813   0.25000   0.00000  Uiso   1.00
C532   C     0.84813   0.40187   0.75000   0.00000  Uiso   1.00
C533   C     0.90187   0.15187   0.25000   0.00000  Uiso   1.00
C534   C     0.59813   0.34813   0.75000   0.00000  Uiso   1.00
C535   C     0.84813   0.40187   0.25000   0.00000  Uiso   1.00
C536   C     0.65187   0.09813   0.75000   0.00000  Uiso   1.00
C537   C     0.59813   0.15187   0.75000   0.00000  Uiso   1.00
C538   C     0.90187   0.34813   0.25000   0.00000  Uiso   1.00
C539   C     0.65187   0.40187   0.75000   0.00000  Uiso   1.00
C540   C     0.84813   0.09813   0.25000   0.00000  Uiso   1.00
C541   C     0.90187   0.34813   0.75000   0.00000  Uiso   1.00
C542   C     0.59813   0.15187   0.25000   0.00000  Uiso   1.00
C543   C     0.84813   0.09813   0.75000   0.00000  Uiso   1.00
C544   C     0.65187   0.40187   0.25000   0.00000  Uiso   1.00
C545   C     0.50000   0.24999   0.47964   0.00000  Uiso   1.00
C546   C     0.50000   0.24999   0.52036   0.00000  Uiso   1.00
C547   C     0.74998  -0.00000   0.47964   0.00000  Uiso   1.00
C548   C     0.74998  -0.00000   0.52036   0.00000  Uiso   1.00
C549   C     0.75000   0.00000   0.97964   0.00000  Uiso   1.00
C550   C     0.75000   0.00000   0.02036   0.00000  Uiso   1.00
C551   C     0.99999   0.25000   0.97964   0.00000  Uiso   1.00
C552   C     0.99999   0.25000   0.02036   0.00000  Uiso   1.00
N553   N     0.89903   0.24447   0.45921   0.00000  Uiso   1.00
O554   O     0.88833   0.27192   0.43816   0.00000  Uiso   1.00
O555   O     0.87709   0.21704   0.46466   0.00000  Uiso   1.00
N556   N     0.60087   0.25704   0.54078   0.00000  Uiso   1.00
O557   O     0.60801   0.28558   0.56188   0.00000  Uiso   1.00
O558   O     0.62614   0.23266   0.53524   0.00000  Uiso   1.00
N559   N     0.75389   0.10104   0.45922   0.00000  Uiso   1.00
O560   O     0.72628   0.11127   0.43813   0.00000  Uiso   1.00
O561   O     0.78091   0.12346   0.46471   0.00000  Uiso   1.00
N562   N     0.74445   0.39903   0.54078   0.00000  Uiso   1.00
O563   O     0.71601   0.39149   0.56190   0.00000  Uiso   1.00
O564   O     0.76918   0.37412   0.53523   0.00000  Uiso   1.00
N565   N     0.60097   0.25551   0.45921   0.00000  Uiso   1.00
O566   O     0.61167   0.22806   0.43815   0.00000  Uiso   1.00
O567   O     0.62292   0.28292   0.46468   0.00000  Uiso   1.00
N568   N     0.89913   0.24289   0.54078   0.00000  Uiso   1.00
O569   O     0.89203   0.21435   0.56190   0.00000  Uiso   1.00
O570   O     0.87382   0.26723   0.53522   0.00000  Uiso   1.00
N571   N     0.74601   0.39896   0.45921   0.00000  Uiso   1.00
O572   O     0.77362   0.38869   0.43815   0.00000  Uiso   1.00
O573   O     0.71893   0.37659   0.46467   0.00000  Uiso   1.00
N574   N     0.75542   0.10097   0.54078   0.00000  Uiso   1.00
O575   O     0.78386   0.10859   0.56186   0.00000  Uiso   1.00
O576   O     0.73060   0.12581   0.53528   0.00000  Uiso   1.00
N577   N     0.64892   0.49747   0.95922   0.00000  Uiso   1.00
O578   O     0.64048   0.46926   0.93814   0.00000  Uiso   1.00
O579   O     0.62481   0.02300   0.96472   0.00000  Uiso   1.00
N580   N     0.85111   0.00103   0.04078   0.00000  Uiso   1.00
O581   O     0.86055   0.47314   0.06186   0.00000  Uiso   1.00
O582   O     0.87429   0.02741   0.03529   0.00000  Uiso   1.00
N583   N     0.50508   0.35099   0.95922   0.00000  Uiso   1.00
O584   O     0.53348   0.35869   0.93812   0.00000  Uiso   1.00
O585   O     0.98020   0.37577   0.96475   0.00000  Uiso   1.00
N586   N     0.99639   0.14895   0.04079   0.00000  Uiso   1.00
O587   O     0.52404   0.13876   0.06183   0.00000  Uiso   1.00
O588   O     0.96938   0.12650   0.03535   0.00000  Uiso   1.00
N589   N     0.85108   0.00255   0.95922   0.00000  Uiso   1.00
O590   O     0.85952   0.03075   0.93813   0.00000  Uiso   1.00
O591   O     0.87520   0.47702   0.96472   0.00000  Uiso   1.00
N592   N     0.64889   0.49899   0.04078   0.00000  Uiso   1.00
O593   O     0.63946   0.02688   0.06187   0.00000  Uiso   1.00
O594   O     0.62570   0.47262   0.03529   0.00000  Uiso   1.00
N595   N     0.99489   0.14901   0.95923   0.00000  Uiso   1.00
O596   O     0.96649   0.14133   0.93811   0.00000  Uiso   1.00
O597   O     0.51974   0.12421   0.96477   0.00000  Uiso   1.00
N598   N     0.50354   0.35105   0.04079   0.00000  Uiso   1.00
O599   O     0.97589   0.36121   0.06185   0.00000  Uiso   1.00
O600   O     0.53051   0.37355   0.03532   0.00000  Uiso   1.00
Zn601  Zn    0.20660   0.50000   0.21735   0.00000  Uiso   1.00
Zn602  Zn    0.29341   0.50000   0.78265   0.00000  Uiso   1.00
Zn603  Zn    0.00000   0.70660   0.21735   0.00000  Uiso   1.00
Zn604  Zn    0.00000   0.79341   0.78265   0.00000  Uiso   1.00
Zn605  Zn    0.29341   0.50000   0.21735   0.00000  Uiso   1.00
Zn606  Zn    0.20660   0.50000   0.78265   0.00000  Uiso   1.00
Zn607  Zn    0.00000   0.79341   0.21735   0.00000  Uiso   1.00
Zn608  Zn    0.00000   0.70660   0.78265   0.00000  Uiso   1.00
Zn609  Zn    0.45660   0.75000   0.71735   0.00000  Uiso   1.00
Zn610  Zn    0.04341   0.75000   0.28265   0.00000  Uiso   1.00
Zn611  Zn    0.25000   0.95660   0.71735   0.00000  Uiso   1.00
Zn612  Zn    0.25000   0.54341   0.28265   0.00000  Uiso   1.00
Zn613  Zn    0.04341   0.75000   0.71735   0.00000  Uiso   1.00
Zn614  Zn    0.45660   0.75000   0.28265   0.00000  Uiso   1.00
Zn615  Zn    0.25000   0.54341   0.71735   0.00000  Uiso   1.00
Zn616  Zn    0.25000   0.95660   0.28265   0.00000  Uiso   1.00
C617   C     0.03293   0.75232   0.41865   0.00000  Uiso   1.00
C618   C     0.46703   0.74836   0.58134   0.00000  Uiso   1.00
C619   C     0.24815   0.96704   0.41865   0.00000  Uiso   1.00
C620   C     0.25112   0.53299   0.58134   0.00000  Uiso   1.00
C621   C     0.46707   0.74767   0.41865   0.00000  Uiso   1.00
C622   C     0.03297   0.75162   0.58134   0.00000  Uiso   1.00
C623   C     0.25182   0.53296   0.41865   0.00000  Uiso   1.00
C624   C     0.24885   0.96701   0.58134   0.00000  Uiso   1.00
C625   C     0.28301   0.50021   0.91866   0.00000  Uiso   1.00
C626   C     0.21701   0.99909   0.08135   0.00000  Uiso   1.00
C627   C     0.49899   0.71701   0.91866   0.00000  Uiso   1.00
C628   C     0.00170   0.78296   0.08135   0.00000  Uiso   1.00
C629   C     0.21699   0.99979   0.91866   0.00000  Uiso   1.00
C630   C     0.28300   0.50092   0.08135   0.00000  Uiso   1.00
C631   C     0.00100   0.78299   0.91866   0.00000  Uiso   1.00
C632   C     0.49829   0.71704   0.08135   0.00000  Uiso   1.00
C633   C     0.00000   0.75000   0.39842   0.00000  Uiso   1.00
C634   C     0.00000   0.75000   0.60158   0.00000  Uiso   1.00
C635   C     0.24999   0.50000   0.39842   0.00000  Uiso   1.00
C636   C     0.24999   0.50000   0.60158   0.00000  Uiso   1.00
C637   C     0.25000   0.50000   0.89842   0.00000  Uiso   1.00
C638   C     0.25000   0.50000   0.10158   0.00000  Uiso   1.00
C639   C    -0.00000   0.75000   0.89842   0.00000  Uiso   1.00
C640   C    -0.00000   0.75000   0.10158   0.00000  Uiso   1.00
O641   O     0.25000   0.50000   0.25000   0.00000  Uiso   1.00
O642   O     0.25000   0.50000   0.75000   0.00000  Uiso   1.00
O643   O     0.00000   0.75000   0.25000   0.00000  Uiso   1.00
O644   O     0.00000   0.75000   0.75000   0.00000  Uiso   1.00
O645   O     0.25000   0.96964   0.33755   0.00000  Uiso   1.00
O646   O     0.25000   0.53037   0.66245   0.00000  Uiso   1.00
O647   O     0.03037   0.75000   0.33755   0.00000  Uiso   1.00
O648   O     0.46964   0.75000   0.66245   0.00000  Uiso   1.00
O649   O     0.25000   0.53037   0.33755   0.00000  Uiso   1.00
O650   O     0.25000   0.96964   0.66245   0.00000  Uiso   1.00
O651   O     0.46964   0.75000   0.33755   0.00000  Uiso   1.00
O652   O     0.03037   0.75000   0.66245   0.00000  Uiso   1.00
O653   O     0.00000   0.71964   0.83755   0.00000  Uiso   1.00
O654   O     0.00000   0.78037   0.16245   0.00000  Uiso   1.00
O655   O     0.28037   0.50000   0.83755   0.00000  Uiso   1.00
O656   O     0.21964   0.50000   0.16245   0.00000  Uiso   1.00
O657   O     0.00000   0.78037   0.83755   0.00000  Uiso   1.00
O658   O     0.00000   0.71964   0.16245   0.00000  Uiso   1.00
O659   O     0.21964   0.50000   0.83755   0.00000  Uiso   1.00
O660   O     0.28037   0.50000   0.16245   0.00000  Uiso   1.00
O661   O     0.20725   0.57308   0.27302   0.00000  Uiso   1.00
O662   O     0.29276   0.92693   0.72698   0.00000  Uiso   1.00
O663   O     0.42693   0.70725   0.27302   0.00000  Uiso   1.00
O664   O     0.07308   0.79276   0.72698   0.00000  Uiso   1.00
O665   O     0.29276   0.92693   0.27302   0.00000  Uiso   1.00
O666   O     0.20725   0.57308   0.72698   0.00000  Uiso   1.00
O667   O     0.07308   0.79276   0.27302   0.00000  Uiso   1.00
O668   O     0.42693   0.70725   0.72698   0.00000  Uiso   1.00
O669   O     0.20725   0.92693   0.72698   0.00000  Uiso   1.00
O670   O     0.29276   0.57308   0.27302   0.00000  Uiso   1.00
O671   O     0.42693   0.79276   0.72698   0.00000  Uiso   1.00
O672   O     0.07308   0.70725   0.27302   0.00000  Uiso   1.00
O673   O     0.29276   0.57308   0.72698   0.00000  Uiso   1.00
O674   O     0.20725   0.92693   0.27302   0.00000  Uiso   1.00
O675   O     0.07308   0.70725   0.72698   0.00000  Uiso   1.00
O676   O     0.42693   0.79276   0.27302   0.00000  Uiso   1.00
O677   O     0.45725   0.82308   0.77302   0.00000  Uiso   1.00
O678   O     0.04276   0.67693   0.22698   0.00000  Uiso   1.00
O679   O     0.17693   0.95725   0.77302   0.00000  Uiso   1.00
O680   O     0.32308   0.54276   0.22698   0.00000  Uiso   1.00
O681   O     0.04276   0.67693   0.77302   0.00000  Uiso   1.00
O682   O     0.45725   0.82308   0.22698   0.00000  Uiso   1.00
O683   O     0.32308   0.54276   0.77302   0.00000  Uiso   1.00
O684   O     0.17693   0.95725   0.22698   0.00000  Uiso   1.00
O685   O     0.45725   0.67693   0.22698   0.00000  Uiso   1.00
O686   O     0.04276   0.82308   0.77302   0.00000  Uiso   1.00
O687   O     0.17693   0.54276   0.22698   0.00000  Uiso   1.00
O688   O     0.32308   0.95725   0.77302   0.00000  Uiso   1.00
O689   O     0.04276   0.82308   0.22698   0.00000  Uiso   1.00
O690   O     0.45725   0.67693   0.77302   0.00000  Uiso   1.00
O691   O     0.32308   0.95725   0.22698   0.00000  Uiso   1.00
O692   O     0.17693   0.54276   0.77302   0.00000  Uiso   1.00
C693   C     0.43313   0.74626   0.47963   0.00000  Uiso   1.00
C694   C     0.06682   0.75451   0.52036   0.00000  Uiso   1.00
C695   C     0.25266   0.56692   0.47964   0.00000  Uiso   1.00
C696   C     0.24647   0.93312   0.52036   0.00000  Uiso   1.00
C697   C     0.06687   0.75372   0.47963   0.00000  Uiso   1.00
C698   C     0.43318   0.74545   0.52036   0.00000  Uiso   1.00
C699   C     0.24727   0.93309   0.47963   0.00000  Uiso   1.00
C700   C     0.25346   0.56688   0.52036   0.00000  Uiso   1.00
C701   C     0.18305   0.99844   0.97964   0.00000  Uiso   1.00
C702   C     0.31696   0.50078   0.02036   0.00000  Uiso   1.00
C703   C     0.00323   0.81689   0.97964   0.00000  Uiso   1.00
C704   C     0.49754   0.68308   0.02037   0.00000  Uiso   1.00
C705   C     0.31695   0.50157   0.97964   0.00000  Uiso   1.00
C706   C     0.18304   0.99923   0.02036   0.00000  Uiso   1.00
C707   C     0.49675   0.68311   0.97964   0.00000  Uiso   1.00
C708   C     0.00243   0.81693   0.02037   0.00000  Uiso   1.00
C709   C     0.25000   0.50000   0.35597   0.00000  Uiso   1.00
C710   C     0.25000   0.50000   0.64403   0.00000  Uiso   1.00
C711   C     0.00000   0.75000   0.35597   0.00000  Uiso   1.00
C712   C     0.00000   0.75000   0.64403   0.00000  Uiso   1.00
C713   C     0.00000   0.75000   0.85597   0.00000  Uiso   1.00
C714   C    -0.00000   0.75000   0.14403   0.00000  Uiso   1.00
C715   C     0.25000   0.50000   0.85597   0.00000  Uiso   1.00
C716   C     0.25000   0.50000   0.14403   0.00000  Uiso   1.00
C717   C     0.17994   0.57006   0.25000   0.00000  Uiso   1.00
C718   C     0.32006   0.92994   0.75000   0.00000  Uiso   1.00
C719   C     0.42994   0.67994   0.25000   0.00000  Uiso   1.00
C720   C     0.07006   0.82006   0.75000   0.00000  Uiso   1.00
C721   C     0.32006   0.92994   0.25000   0.00000  Uiso   1.00
C722   C     0.17994   0.57006   0.75000   0.00000  Uiso   1.00
C723   C     0.07006   0.82006   0.25000   0.00000  Uiso   1.00
C724   C     0.42994   0.67994   0.75000   0.00000  Uiso   1.00
C725   C     0.17994   0.92994   0.75000   0.00000  Uiso   1.00
C726   C     0.32006   0.57006   0.25000   0.00000  Uiso   1.00
C727   C     0.42994   0.82006   0.75000   0.00000  Uiso   1.00
C728   C     0.07006   0.67994   0.25000   0.00000  Uiso   1.00
C729   C     0.32006   0.57006   0.75000   0.00000  Uiso   1.00
C730   C     0.17994   0.92994   0.25000   0.00000  Uiso   1.00
C731   C     0.07006   0.67994   0.75000   0.00000  Uiso   1.00
C732   C     0.42994   0.82006   0.25000   0.00000  Uiso   1.00
C733   C     0.12199   0.90475   0.22482   0.00000  Uiso   1.00
C734   C     0.37797   0.59530   0.77525   0.00000  Uiso   1.00
C735   C     0.09527   0.62200   0.22480   0.00000  Uiso   1.00
C736   C     0.40477   0.87804   0.77514   0.00000  Uiso   1.00
C737   C     0.37801   0.59525   0.22482   0.00000  Uiso   1.00
C738   C     0.12203   0.90470   0.77525   0.00000  Uiso   1.00
C739   C     0.40473   0.87800   0.22480   0.00000  Uiso   1.00
C740   C     0.09523   0.62196   0.77514   0.00000  Uiso   1.00
C741   C     0.12196   0.59523   0.77514   0.00000  Uiso   1.00
C742   C     0.37800   0.90473   0.22480   0.00000  Uiso   1.00
C743   C     0.09530   0.87797   0.77525   0.00000  Uiso   1.00
C744   C     0.40475   0.62199   0.22482   0.00000  Uiso   1.00
C745   C     0.37804   0.90477   0.77514   0.00000  Uiso   1.00
C746   C     0.12200   0.59527   0.22480   0.00000  Uiso   1.00
C747   C     0.40470   0.62203   0.77525   0.00000  Uiso   1.00
C748   C     0.09525   0.87801   0.22482   0.00000  Uiso   1.00
C749   C     0.37204   0.65470   0.72475   0.00000  Uiso   1.00
C750   C     0.12801   0.84525   0.27518   0.00000  Uiso   1.00
C751   C     0.34523   0.87196   0.72486   0.00000  Uiso   1.00
C752   C     0.15473   0.62800   0.27520   0.00000  Uiso   1.00
C753   C     0.12796   0.84530   0.72475   0.00000  Uiso   1.00
C754   C     0.37199   0.65475   0.27518   0.00000  Uiso   1.00
C755   C     0.15477   0.62804   0.72486   0.00000  Uiso   1.00
C756   C     0.34527   0.87200   0.27520   0.00000  Uiso   1.00
C757   C     0.37200   0.84527   0.27520   0.00000  Uiso   1.00
C758   C     0.12804   0.65477   0.72486   0.00000  Uiso   1.00
C759   C     0.34525   0.62801   0.27518   0.00000  Uiso   1.00
C760   C     0.15470   0.87204   0.72475   0.00000  Uiso   1.00
C761   C     0.12800   0.65473   0.27520   0.00000  Uiso   1.00
C762   C     0.37196   0.84523   0.72486   0.00000  Uiso   1.00
C763   C     0.15475   0.87199   0.27518   0.00000  Uiso   1.00
C764   C     0.34530   0.62797   0.72475   0.00000  Uiso   1.00
H765   H     0.11923   0.92760   0.20512   0.00000  Uiso   1.00
H766   H     0.38069   0.57248   0.79500   0.00000  Uiso   1.00
H767   H     0.07243   0.61925   0.20508   0.00000  Uiso   1.00
H768   H     0.42765   0.88082   0.79481   0.00000  Uiso   1.00
H769   H     0.38077   0.57240   0.20513   0.00000  Uiso   1.00
H770   H     0.11931   0.92752   0.79500   0.00000  Uiso   1.00
H771   H     0.42757   0.88075   0.20508   0.00000  Uiso   1.00
H772   H     0.07235   0.61918   0.79481   0.00000  Uiso   1.00
H773   H     0.11918   0.57235   0.79481   0.00000  Uiso   1.00
H774   H     0.38075   0.92757   0.20508   0.00000  Uiso   1.00
H775   H     0.07248   0.88069   0.79500   0.00000  Uiso   1.00
H776   H     0.42760   0.61923   0.20513   0.00000  Uiso   1.00
H777   H     0.38082   0.92765   0.79481   0.00000  Uiso   1.00
H778   H     0.11925   0.57243   0.20508   0.00000  Uiso   1.00
H779   H     0.42752   0.61931   0.79500   0.00000  Uiso   1.00
H780   H     0.07240   0.88077   0.20512   0.00000  Uiso   1.00
H781   H     0.36931   0.67752   0.70500   0.00000  Uiso   1.00
H782   H     0.13077   0.82240   0.29488   0.00000  Uiso   1.00
H783   H     0.32235   0.86918   0.70519   0.00000  Uiso   1.00
H784   H     0.17758   0.63075   0.29492   0.00000  Uiso   1.00
H785   H     0.13069   0.82248   0.70500   0.00000  Uiso   1.00
H786   H     0.36923   0.67760   0.29488   0.00000  Uiso   1.00
H787   H     0.17765   0.63082   0.70519   0.00000  Uiso   1.00
H788   H     0.32242   0.86925   0.29492   0.00000  Uiso   1.00
H789   H     0.36925   0.82242   0.29492   0.00000  Uiso   1.00
H790   H     0.13082   0.67765   0.70519   0.00000  Uiso   1.00
H791   H     0.32240   0.63077   0.29488   0.00000  Uiso   1.00
H792   H     0.17752   0.86931   0.70500   0.00000  Uiso   1.00
H793   H     0.13075   0.67758   0.29492   0.00000  Uiso   1.00
H794   H     0.36918   0.82235   0.70519   0.00000  Uiso   1.00
H795   H     0.17760   0.86923   0.29488   0.00000  Uiso   1.00
H796   H     0.32248   0.63069   0.70500   0.00000  Uiso   1.00
C797   C     0.46649   0.74824   0.45922   0.00000  Uiso   1.00
C798   C     0.03348   0.75232   0.54077   0.00000  Uiso   1.00
C799   C     0.25122   0.53354   0.45922   0.00000  Uiso   1.00
C800   C     0.24816   0.96649   0.54077   0.00000  Uiso   1.00
C801   C     0.03351   0.75175   0.45922   0.00000  Uiso   1.00
C802   C     0.46652   0.74765   0.54077   0.00000  Uiso   1.00
C803   C     0.24873   0.96646   0.45922   0.00000  Uiso   1.00
C804   C     0.25180   0.53351   0.54077   0.00000  Uiso   1.00
C805   C     0.21645   0.99914   0.95923   0.00000  Uiso   1.00
C806   C     0.28356   0.50030   0.04077   0.00000  Uiso   1.00
C807   C     0.00169   0.78352   0.95923   0.00000  Uiso   1.00
C808   C     0.49887   0.71646   0.04078   0.00000  Uiso   1.00
C809   C     0.28355   0.50087   0.95923   0.00000  Uiso   1.00
C810   C     0.21644   0.99971   0.04077   0.00000  Uiso   1.00
C811   C     0.49830   0.71648   0.95923   0.00000  Uiso   1.00
C812   C     0.00111   0.78354   0.04078   0.00000  Uiso   1.00
H813   H     0.05807   0.75480   0.40244   0.00000  Uiso   1.00
H814   H     0.44177   0.74772   0.59754   0.00000  Uiso   1.00
H815   H     0.24606   0.94187   0.40245   0.00000  Uiso   1.00
H816   H     0.25138   0.55825   0.59754   0.00000  Uiso   1.00
H817   H     0.44193   0.74519   0.40244   0.00000  Uiso   1.00
H818   H     0.05823   0.75227   0.59754   0.00000  Uiso   1.00
H819   H     0.25392   0.55813   0.40245   0.00000  Uiso   1.00
H820   H     0.24860   0.94175   0.59754   0.00000  Uiso   1.00
H821   H     0.30827   0.99974   0.90246   0.00000  Uiso   1.00
H822   H     0.19178   0.99772   0.09755   0.00000  Uiso   1.00
H823   H     0.49884   0.69174   0.90246   0.00000  Uiso   1.00
H824   H     0.00369   0.80815   0.09755   0.00000  Uiso   1.00
H825   H     0.19173   0.50027   0.90246   0.00000  Uiso   1.00
H826   H     0.30822   0.50228   0.09755   0.00000  Uiso   1.00
H827   H     0.00116   0.80826   0.90246   0.00000  Uiso   1.00
H828   H     0.49630   0.69185   0.09755   0.00000  Uiso   1.00
C829   C     0.09813   0.84813   0.25000   0.00000  Uiso   1.00
C830   C     0.40187   0.65187   0.75000   0.00000  Uiso   1.00
C831   C     0.15187   0.59813   0.25000   0.00000  Uiso   1.00
C832   C     0.34813   0.90187   0.75000   0.00000  Uiso   1.00
C833   C     0.40187   0.65187   0.25000   0.00000  Uiso   1.00
C834   C     0.09813   0.84813   0.75000   0.00000  Uiso   1.00
C835   C     0.34813   0.90187   0.25000   0.00000  Uiso   1.00
C836   C     0.15187   0.59813   0.75000   0.00000  Uiso   1.00
C837   C     0.09813   0.65187   0.75000   0.00000  Uiso   1.00
C838   C     0.40187   0.84813   0.25000   0.00000  Uiso   1.00
C839   C     0.15187   0.90187   0.75000   0.00000  Uiso   1.00
C840   C     0.34813   0.59813   0.25000   0.00000  Uiso   1.00
C841   C     0.40187   0.84813   0.75000   0.00000  Uiso   1.00
C842   C     0.09813   0.65187   0.25000   0.00000  Uiso   1.00
C843   C     0.34813   0.59813   0.75000   0.00000  Uiso   1.00
C844   C     0.15187   0.90187   0.25000   0.00000  Uiso   1.00
C845   C     0.00000   0.74999   0.47964   0.00000  Uiso   1.00
C846   C     0.00000   0.74999   0.52036   0.00000  Uiso   1.00
C847   C     0.24998   0.50000   0.47964   0.00000  Uiso   1.00
C848   C     0.24998   0.50000   0.52036   0.00000  Uiso   1.00
C849   C     0.25000   0.50000   0.97964   0.00000  Uiso   1.00
C850   C     0.25000   0.50000   0.02036   0.00000  Uiso   1.00
C851   C     0.49999   0.75000   0.97964   0.00000  Uiso   1.00
C852   C     0.49999   0.75000   0.02036   0.00000  Uiso   1.00
N853   N     0.39903   0.74447   0.45921   0.00000  Uiso   1.00
O854   O     0.38833   0.77192   0.43816   0.00000  Uiso   1.00
O855   O     0.37709   0.71704   0.46466   0.00000  Uiso   1.00
N856   N     0.10087   0.75704   0.54078   0.00000  Uiso   1.00
O857   O     0.10801   0.78558   0.56188   0.00000  Uiso   1.00
O858   O     0.12614   0.73266   0.53524   0.00000  Uiso   1.00
N859   N     0.25389   0.60104   0.45922   0.00000  Uiso   1.00
O860   O     0.22628   0.61127   0.43813   0.00000  Uiso   1.00
O861   O     0.28091   0.62346   0.46471   0.00000  Uiso   1.00
N862   N     0.24445   0.89903   0.54078   0.00000  Uiso   1.00
O863   O     0.21601   0.89149   0.56190   0.00000  Uiso   1.00
O864   O     0.26918   0.87412   0.53523   0.00000  Uiso   1.00
N865   N     0.10097   0.75551   0.45921   0.00000  Uiso   1.00
O866   O     0.11167   0.72806   0.43815   0.00000  Uiso   1.00
O867   O     0.12292   0.78292   0.46468   0.00000  Uiso   1.00
N868   N     0.39913   0.74289   0.54078   0.00000  Uiso   1.00
O869   O     0.39203   0.71435   0.56190   0.00000  Uiso   1.00
O870   O     0.37382   0.76723   0.53522   0.00000  Uiso   1.00
N871   N     0.24601   0.89896   0.45921   0.00000  Uiso   1.00
O872   O     0.27362   0.88869   0.43815   0.00000  Uiso   1.00
O873   O     0.21893   0.87659   0.46467   0.00000  Uiso   1.00
N874   N     0.25542   0.60097   0.54078   0.00000  Uiso   1.00
O875   O     0.28386   0.60859   0.56186   0.00000  Uiso   1.00
O876   O     0.23060   0.62581   0.53528   0.00000  Uiso   1.00
N877   N     0.14892   0.99747   0.95922   0.00000  Uiso   1.00
O878   O     0.14048   0.96926   0.93814   0.00000  Uiso   1.00
O879   O     0.12481   0.52300   0.96472   0.00000  Uiso   1.00
N880   N     0.35111   0.50103   0.04078   0.00000  Uiso   1.00
O881   O     0.36055   0.97314   0.06186   0.00000  Uiso   1.00
O882   O     0.37429   0.52741   0.03529   0.00000  Uiso   1.00
N883   N     0.00508   0.85099   0.95922   0.00000  Uiso   1.00
O884   O     0.03348   0.85869   0.93812   0.00000  Uiso   1.00
O885   O     0.48020   0.87577   0.96475   0.00000  Uiso   1.00
N886   N     0.49639   0.64895   0.04079   0.00000  Uiso   1.00
O887   O     0.02404   0.63876   0.06183   0.00000  Uiso   1.00
O888   O     0.46938   0.62650   0.03535   0.00000  Uiso   1.00
N889   N     0.35108   0.50255   0.95922   0.00000  Uiso   1.00
O890   O     0.35952   0.53075   0.93813   0.00000  Uiso   1.00
O891   O     0.37520   0.97702   0.96472   0.00000  Uiso   1.00
N892   N     0.14889   0.99899   0.04078   0.00000  Uiso   1.00
O893   O     0.13946   0.52688   0.06187   0.00000  Uiso   1.00
O894   O     0.12570   0.97262   0.03529   0.00000  Uiso   1.00
N895   N     0.49489   0.64901   0.95923   0.00000  Uiso   1.00
O896   O     0.46649   0.64133   0.93811   0.00000  Uiso   1.00
O897   O     0.01974   0.62421   0.96477   0.00000  Uiso   1.00
N898   N     0.00354   0.85105   0.04079   0.00000  Uiso   1.00
O899   O     0.47589   0.86121   0.06185   0.00000  Uiso   1.00
O900   O     0.03051   0.87355   0.03532   0.00000  Uiso   1.00
Zn901  Zn    0.70660   0.50000   0.21735   0.00000  Uiso   1.00
Zn902  Zn    0.79341   0.50000   0.78265   0.00000  Uiso   1.00
Zn903  Zn    0.50000   0.70660   0.21735   0.00000  Uiso   1.00
Zn904  Zn    0.50000   0.79341   0.78265   0.00000  Uiso   1.00
Zn905  Zn    0.79341   0.50000   0.21735   0.00000  Uiso   1.00
Zn906  Zn    0.70660   0.50000   0.78265   0.00000  Uiso   1.00
Zn907  Zn    0.50000   0.79341   0.21735   0.00000  Uiso   1.00
Zn908  Zn    0.50000   0.70660   0.78265   0.00000  Uiso   1.00
Zn909  Zn    0.95660   0.75000   0.71735   0.00000  Uiso   1.00
Zn910  Zn    0.54341   0.75000   0.28265   0.00000  Uiso   1.00
Zn911  Zn    0.75000   0.95660   0.71735   0.00000  Uiso   1.00
Zn912  Zn    0.75000   0.54341   0.28265   0.00000  Uiso   1.00
Zn913  Zn    0.54341   0.75000   0.71735   0.00000  Uiso   1.00
Zn914  Zn    0.95660   0.75000   0.28265   0.00000  Uiso   1.00
Zn915  Zn    0.75000   0.54341   0.71735   0.00000  Uiso   1.00
Zn916  Zn    0.75000   0.95660   0.28265   0.00000  Uiso   1.00
C917   C     0.53293   0.75232   0.41865   0.00000  Uiso   1.00
C918   C     0.96703   0.74836   0.58134   0.00000  Uiso   1.00
C919   C     0.74815   0.96704   0.41865   0.00000  Uiso   1.00
C920   C     0.75112   0.53299   0.58134   0.00000  Uiso   1.00
C921   C     0.96707   0.74767   0.41865   0.00000  Uiso   1.00
C922   C     0.53297   0.75162   0.58134   0.00000  Uiso   1.00
C923   C     0.75182   0.53296   0.41865   0.00000  Uiso   1.00
C924   C     0.74885   0.96701   0.58134   0.00000  Uiso   1.00
C925   C     0.78301   0.50021   0.91866   0.00000  Uiso   1.00
C926   C     0.71701   0.99909   0.08135   0.00000  Uiso   1.00
C927   C     0.99899   0.71701   0.91866   0.00000  Uiso   1.00
C928   C     0.50170   0.78296   0.08135   0.00000  Uiso   1.00
C929   C     0.71699   0.99979   0.91866   0.00000  Uiso   1.00
C930   C     0.78300   0.50092   0.08135   0.00000  Uiso   1.00
C931   C     0.50100   0.78299   0.91866   0.00000  Uiso   1.00
C932   C     0.99829   0.71704   0.08135   0.00000  Uiso   1.00
C933   C     0.50000   0.75000   0.39842   0.00000  Uiso   1.00
C934   C     0.50000   0.75000   0.60158   0.00000  Uiso   1.00
C935   C     0.74999   0.50000   0.39842   0.00000  Uiso   1.00
C936   C     0.74999   0.50000   0.60158   0.00000  Uiso   1.00
C937   C     0.75000   0.50000   0.89842   0.00000  Uiso   1.00
C938   C     0.75000   0.50000   0.10158   0.00000  Uiso   1.00
C939   C     0.50000   0.75000   0.89842   0.00000  Uiso   1.00
C940   C     0.50000   0.75000   0.10158   0.00000  Uiso   1.00
O941   O     0.75000   0.50000   0.25000   0.00000  Uiso   1.00
O942   O     0.75000   0.50000   0.75000   0.00000  Uiso   1.00
O943   O     0.50000   0.75000   0.25000   0.00000  Uiso   1.00
O944   O     0.50000   0.75000   0.75000   0.00000  Uiso   1.00
O945   O     0.75000   0.96964   0.33755   0.00000  Uiso   1.00
O946   O     0.75000   0.53037   0.66245   0.00000  Uiso   1.00
O947   O     0.53037   0.75000   0.33755   0.00000  Uiso   1.00
O948   O     0.96964   0.75000   0.66245   0.00000  Uiso   1.00
O949   O     0.75000   0.53037   0.33755   0.00000  Uiso   1.00
O950   O     0.75000   0.96964   0.66245   0.00000  Uiso   1.00
O951   O     0.96964   0.75000   0.33755   0.00000  Uiso   1.00
O952   O     0.53037   0.75000   0.66245   0.00000  Uiso   1.00
O953   O     0.50000   0.71964   0.83755   0.00000  Uiso   1.00
O954   O     0.50000   0.78037   0.16245   0.00000  Uiso   1.00
O955   O     0.78037   0.50000   0.83755   0.00000  Uiso   1.00
O956   O     0.71964   0.50000   0.16245   0.00000  Uiso   1.00
O957   O     0.50000   0.78037   0.83755   0.00000  Uiso   1.00
O958   O     0.50000   0.71964   0.16245   0.00000  Uiso   1.00
O959   O     0.71964   0.50000   0.83755   0.00000  Uiso   1.00
O960   O     0.78037   0.50000   0.16245   0.00000  Uiso   1.00
O961   O     0.70725   0.57308   0.27302   0.00000  Uiso   1.00
O962   O     0.79276   0.92693   0.72698   0.00000  Uiso   1.00
O963   O     0.92693   0.70725   0.27302   0.00000  Uiso   1.00
O964   O     0.57308   0.79276   0.72698   0.00000  Uiso   1.00
O965   O     0.79276   0.92693   0.27302   0.00000  Uiso   1.00
O966   O     0.70725   0.57308   0.72698   0.00000  Uiso   1.00
O967   O     0.57308   0.79276   0.27302   0.00000  Uiso   1.00
O968   O     0.92693   0.70725   0.72698   0.00000  Uiso   1.00
O969   O     0.70725   0.92693   0.72698   0.00000  Uiso   1.00
O970   O     0.79276   0.57308   0.27302   0.00000  Uiso   1.00
O971   O     0.92693   0.79276   0.72698   0.00000  Uiso   1.00
O972   O     0.57308   0.70725   0.27302   0.00000  Uiso   1.00
O973   O     0.79276   0.57308   0.72698   0.00000  Uiso   1.00
O974   O     0.70725   0.92693   0.27302   0.00000  Uiso   1.00
O975   O     0.57308   0.70725   0.72698   0.00000  Uiso   1.00
O976   O     0.92693   0.79276   0.27302   0.00000  Uiso   1.00
O977   O     0.95725   0.82308   0.77302   0.00000  Uiso   1.00
O978   O     0.54276   0.67693   0.22698   0.00000  Uiso   1.00
O979   O     0.67693   0.95725   0.77302   0.00000  Uiso   1.00
O980   O     0.82308   0.54276   0.22698   0.00000  Uiso   1.00
O981   O     0.54276   0.67693   0.77302   0.00000  Uiso   1.00
O982   O     0.95725   0.82308   0.22698   0.00000  Uiso   1.00
O983   O     0.82308   0.54276   0.77302   0.00000  Uiso   1.00
O984   O     0.67693   0.95725   0.22698   0.00000  Uiso   1.00
O985   O     0.95725   0.67693   0.22698   0.00000  Uiso   1.00
O986   O     0.54276   0.82308   0.77302   0.00000  Uiso   1.00
O987   O     0.67693   0.54276   0.22698   0.00000  Uiso   1.00
O988   O     0.82308   0.95725   0.77302   0.00000  Uiso   1.00
O989   O     0.54276   0.82308   0.22698   0.00000  Uiso   1.00
O990   O     0.95725   0.67693   0.77302   0.00000  Uiso   1.00
O991   O     0.82308   0.95725   0.22698   0.00000  Uiso   1.00
O992   O     0.67693   0.54276   0.77302   0.00000  Uiso   1.00
C993   C     0.93313   0.74626   0.47963   0.00000  Uiso   1.00
C994   C     0.56682   0.75451   0.52036   0.00000  Uiso   1.00
C995   C     0.75266   0.56692   0.47964   0.00000  Uiso   1.00
C996   C     0.74647   0.93312   0.52036   0.00000  Uiso   1.00
C997   C     0.56687   0.75372   0.47963   0.00000  Uiso   1.00
C998   C     0.93318   0.74545   0.52036   0.00000  Uiso   1.00
C999   C     0.74727   0.93309   0.47963   0.00000  Uiso   1.00
C1000  C     0.75346   0.56688   0.52036   0.00000  Uiso   1.00
C1001  C     0.68305   0.99844   0.97964   0.00000  Uiso   1.00
C1002  C     0.81696   0.50078   0.02036   0.00000  Uiso   1.00
C1003  C     0.50323   0.81689   0.97964   0.00000  Uiso   1.00
C1004  C     0.99754   0.68308   0.02037   0.00000  Uiso   1.00
C1005  C     0.81695   0.50157   0.97964   0.00000  Uiso   1.00
C1006  C     0.68304   0.99923   0.02036   0.00000  Uiso   1.00
C1007  C     0.99675   0.68311   0.97964   0.00000  Uiso   1.00
C1008  C     0.50243   0.81693   0.02037   0.00000  Uiso   1.00
C1009  C     0.75000   0.50000   0.35597   0.00000  Uiso   1.00
C1010  C     0.75000   0.50000   0.64403   0.00000  Uiso   1.00
C1011  C     0.50000   0.75000   0.35597   0.00000  Uiso   1.00
C1012  C     0.50000   0.75000   0.64403   0.00000  Uiso   1.00
C1013  C     0.50000   0.75000   0.85597   0.00000  Uiso   1.00
C1014  C     0.50000   0.75000   0.14403   0.00000  Uiso   1.00
C1015  C     0.75000   0.50000   0.85597   0.00000  Uiso   1.00
C1016  C     0.75000   0.50000   0.14403   0.00000  Uiso   1.00
C1017  C     0.67994   0.57006   0.25000   0.00000  Uiso   1.00
C1018  C     0.82006   0.92994   0.75000   0.00000  Uiso   1.00
C1019  C     0.92994   0.67994   0.25000   0.00000  Uiso   1.00
C1020  C     0.57006   0.82006   0.75000   0.00000  Uiso   1.00
C1021  C     0.82006   0.92994   0.25000   0.00000  Uiso   1.00
C1022  C     0.67994   0.57006   0.75000   0.00000  Uiso   1.00
C1023  C     0.57006   0.82006   0.25000   0.00000  Uiso   1.00
C1024  C     0.92994   0.67994   0.75000   0.00000  Uiso   1.00
C1025  C     0.67994   0.92994   0.75000   0.00000  Uiso   1.00
C1026  C     0.82006   0.57006   0.25000   0.00000  Uiso   1.00
C1027  C     0.92994   0.82006   0.75000   0.00000  Uiso   1.00
C1028  C     0.57006   0.67994   0.25000   0.00000  Uiso   1.00
C1029  C     0.82006   0.57006   0.75000   0.00000  Uiso   1.00
C1030  C     0.67994   0.92994   0.25000   0.00000  Uiso   1.00
C1031  C     0.57006   0.67994   0.75000   0.00000  Uiso   1.00
C1032  C     0.92994   0.82006   0.25000   0.00000  Uiso   1.00
C1033  C     0.62199   0.90475   0.22482   0.00000  Uiso   1.00
C1034  C     0.87797   0.59530   0.77525   0.00000  Uiso   1.00
C1035  C     0.59527   0.62200   0.22480   0.00000  Uiso   1.00
C1036  C     0.90477   0.87804   0.77514   0.00000  Uiso   1.00
C1037  C     0.87801   0.59525   0.22482   0.00000  Uiso   1.00
C1038  C     0.62203   0.90470   0.77525   0.00000  Uiso   1.00
C1039  C     0.90473   0.87800   0.22480   0.00000  Uiso   1.00
C1040  C     0.59523   0.62196   0.77514   0.00000  Uiso   1.00
C1041  C     0.62196   0.59523   0.77514   0.00000  Uiso   1.00
C1042  C     0.87800   0.90473   0.22480   0.00000  Uiso   1.00
C1043  C     0.59530   0.87797   0.77525   0.00000  Uiso   1.00
C1044  C     0.90475   0.62199   0.22482   0.00000  Uiso   1.00
C1045  C     0.87804   0.90477   0.77514   0.00000  Uiso   1.00
C1046  C     0.62200   0.59527   0.22480   0.00000  Uiso   1.00
C1047  C     0.90470   0.62203   0.77525   0.00000  Uiso   1.00
C1048  C     0.59525   0.87801   0.22482   0.00000  Uiso   1.00
C1049  C     0.87204   0.65470   0.72475   0.00000  Uiso   1.00
C1050  C     0.62801   0.84525   0.27518   0.00000  Uiso   1.00
C1051  C     0.84523   0.87196   0.72486   0.00000  Uiso   1.00
C1052  C     0.65473   0.62800   0.27520   0.00000  Uiso   1.00
C1053  C     0.62796   0.84530   0.72475   0.00000  Uiso   1.00
C1054  C     0.87199   0.65475   0.27518   0.00000  Uiso   1.00
C1055  C     0.65477   0.62804   0.72486   0.00000  Uiso   1.00
C1056  C     0.84527   0.87200   0.27520   0.00000  Uiso   1.00
C1057  C     0.87200   0.84527   0.27520   0.00000  Uiso   1.00
C1058  C     0.62804   0.65477   0.72486   0.00000  Uiso   1.00
C1059  C     0.84525   0.62801   0.27518   0.00000  Uiso   1.00
C1060  C     0.65470   0.87204   0.72475   0.00000  Uiso   1.00
C1061  C     0.62800   0.65473   0.27520   0.00000  Uiso   1.00
C1062  C     0.87196   0.84523   0.72486   0.00000  Uiso   1.00
C1063  C     0.65475   0.87199   0.27518   0.00000  Uiso   1.00
C1064  C     0.84530   0.62797   0.72475   0.00000  Uiso   1.00
H1065  H     0.61923   0.92760   0.20512   0.00000  Uiso   1.00
H1066  H     0.88069   0.57248   0.79500   0.00000  Uiso   1.00
H1067  H     0.57243   0.61925   0.20508   0.00000  Uiso   1.00
H1068  H     0.92765   0.88082   0.79481   0.00000  Uiso   1.00
H1069  H     0.88077   0.57240   0.20513   0.00000  Uiso   1.00
H1070  H     0.61931   0.92752   0.79500   0.00000  Uiso   1.00
H1071  H     0.92757   0.88075   0.20508   0.00000  Uiso   1.00
H1072  H     0.57235   0.61918   0.79481   0.00000  Uiso   1.00
H1073  H     0.61918   0.57235   0.79481   0.00000  Uiso   1.00
H1074  H     0.88075   0.92757   0.20508   0.00000  Uiso   1.00
H1075  H     0.57248   0.88069   0.79500   0.00000  Uiso   1.00
H1076  H     0.92760   0.61923   0.20513   0.00000  Uiso   1.00
H1077  H     0.88082   0.92765   0.79481   0.00000  Uiso   1.00
H1078  H     0.61925   0.57243   0.20508   0.00000  Uiso   1.00
H1079  H     0.92752   0.61931   0.79500   0.00000  Uiso   1.00
H1080  H     0.57240   0.88077   0.20512   0.00000  Uiso   1.00
H1081  H     0.86931   0.67752   0.70500   0.00000  Uiso   1.00
H1082  H     0.63077   0.82240   0.29488   0.00000  Uiso   1.00
H1083  H     0.82235   0.86918   0.70519   0.00000  Uiso   1.00
H1084  H     0.67758   0.63075   0.29492   0.00000  Uiso   1.00
H1085  H     0.63069   0.82248   0.70500   0.00000  Uiso   1.00
H1086  H     0.86923   0.67760   0.29488   0.00000  Uiso   1.00
H1087  H     0.67765   0.63082   0.70519   0.00000  Uiso   1.00
H1088  H     0.82242   0.86925   0.29492   0.00000  Uiso   1.00
H1089  H     0.86925   0.82242   0.29492   0.00000  Uiso   1.00
H1090  H     0.63082   0.67765   0.70519   0.00000  Uiso   1.00
H1091  H     0.82240   0.63077   0.29488   0.00000  Uiso   1.00
H1092  H     0.67752   0.86931   0.70500   0.00000  Uiso   1.00
H1093  H     0.63075   0.67758   0.29492   0.00000  Uiso   1.00
H1094  H     0.86918   0.82235   0.70519   0.00000  Uiso   1.00
H1095  H     0.67760   0.86923   0.29488   0.00000  Uiso   1.00
H1096  H     0.82248   0.63069   0.70500   0.00000  Uiso   1.00
C1097  C     0.96649   0.74824   0.45922   0.00000  Uiso   1.00
C1098  C     0.53348   0.75232   0.54077   0.00000  Uiso   1.00
C1099  C     0.75122   0.53354   0.45922   0.00000  Uiso   1.00
C1100  C     0.74816   0.96649   0.54077   0.00000  Uiso   1.00
C1101  C     0.53351   0.75175   0.45922   0.00000  Uiso   1.00
C1102  C     0.96652   0.74765   0.54077   0.00000  Uiso   1.00
C1103  C     0.74873   0.96646   0.45922   0.00000  Uiso   1.00
C1104  C     0.75180   0.53351   0.54077   0.00000  Uiso   1.00
C1105  C     0.71645   0.99914   0.95923   0.00000  Uiso   1.00
C1106  C     0.78356   0.50030   0.04077   0.00000  Uiso   1.00
C1107  C     0.50169   0.78352   0.95923   0.00000  Uiso   1.00
C1108  C     0.99887   0.71646   0.04078   0.00000  Uiso   1.00
C1109  C     0.78355   0.50087   0.95923   0.00000  Uiso   1.00
C1110  C     0.71644   0.99971   0.04077   0.00000  Uiso   1.00
C1111  C     0.99830   0.71648   0.95923   0.00000  Uiso   1.00
C1112  C     0.50111   0.78354   0.04078   0.00000  Uiso   1.00
H1113  H     0.55807   0.75480   0.40244   0.00000  Uiso   1.00
H1114  H     0.94177   0.74772   0.59754   0.00000  Uiso   1.00
H1115  H     0.74606   0.94187   0.40245   0.00000  Uiso   1.00
H1116  H     0.75138   0.55825   0.59754   0.00000  Uiso   1.00
H1117  H     0.94193   0.74519   0.40244   0.00000  Uiso   1.00
H1118  H     0.55823   0.75227   0.59754   0.00000  Uiso   1.00
H1119  H     0.75392   0.55813   0.40245   0.00000  Uiso   1.00
H1120  H     0.74860   0.94175   0.59754   0.00000  Uiso   1.00
H1121  H     0.80827   0.99974   0.90246   0.00000  Uiso   1.00
H1122  H     0.69178   0.99772   0.09755   0.00000  Uiso   1.00
H1123  H     0.99884   0.69174   0.90246   0.00000  Uiso   1.00
H1124  H     0.50369   0.80815   0.09755   0.00000  Uiso   1.00
H1125  H     0.69173   0.50027   0.90246   0.00000  Uiso   1.00
H1126  H     0.80822   0.50228   0.09755   0.00000  Uiso   1.00
H1127  H     0.50116   0.80826   0.90246   0.00000  Uiso   1.00
H1128  H     0.99630   0.69185   0.09755   0.00000  Uiso   1.00
C1129  C     0.59813   0.84813   0.25000   0.00000  Uiso   1.00
C1130  C     0.90187   0.65187   0.75000   0.00000  Uiso   1.00
C1131  C     0.65187   0.59813   0.25000   0.00000  Uiso   1.00
C1132  C     0.84813   0.90187   0.75000   0.00000  Uiso   1.00
C1133  C     0.90187   0.65187   0.25000   0.00000  Uiso   1.00
C1134  C     0.59813   0.84813   0.75000   0.00000  Uiso   1.00
C1135  C     0.84813   0.90187   0.25000   0.00000  Uiso   1.00
C1136  C     0.65187   0.59813   0.75000   0.00000  Uiso   1.00
C1137  C     0.59813   0.65187   0.75000   0.00000  Uiso   1.00
C1138  C     0.90187   0.84813   0.25000   0.00000  Uiso   1.00
C1139  C     0.65187   0.90187   0.75000   0.00000  Uiso   1.00
C1140  C     0.84813   0.59813   0.25000   0.00000  Uiso   1.00
C1141  C     0.90187   0.84813   0.75000   0.00000  Uiso   1.00
C1142  C     0.59813   0.65187   0.25000   0.00000  Uiso   1.00
C1143  C     0.84813   0.59813   0.75000   0.00000  Uiso   1.00
C1144  C     0.65187   0.90187   0.25000   0.00000  Uiso   1.00
C1145  C     0.50000   0.74999   0.47964   0.00000  Uiso   1.00
C1146  C     0.50000   0.74999   0.52036   0.00000  Uiso   1.00
C1147  C     0.74998   0.50000   0.47964   0.00000  Uiso   1.00
C1148  C     0.74998   0.50000   0.52036   0.00000  Uiso   1.00
C1149  C     0.75000   0.50000   0.97964   0.00000  Uiso   1.00
C1150  C     0.75000   0.50000   0.02036   0.00000  Uiso   1.00
C1151  C     0.99999   0.75000   0.97964   0.00000  Uiso   1.00
C1152  C     0.99999   0.75000   0.02036   0.00000  Uiso   1.00
N1153  N     0.89903   0.74447   0.45921   0.00000  Uiso   1.00
O1154  O     0.88833   0.77192   0.43816   0.00000  Uiso   1.00
O1155  O     0.87709   0.71704   0.46466   0.00000  Uiso   1.00
N1156  N     0.60087   0.75704   0.54078   0.00000  Uiso   1.00
O1157  O     0.60801   0.78558   0.56188   0.00000  Uiso   1.00
O1158  O     0.62614   0.73266   0.53524   0.00000  Uiso   1.00
N1159  N     0.75389   0.60104   0.45922   0.00000  Uiso   1.00
O1160  O     0.72628   0.61127   0.43813   0.00000  Uiso   1.00
O1161  O     0.78091   0.62346   0.46471   0.00000  Uiso   1.00
N1162  N     0.74445   0.89903   0.54078   0.00000  Uiso   1.00
O1163  O     0.71601   0.89149   0.56190   0.00000  Uiso   1.00
O1164  O     0.76918   0.87412   0.53523   0.00000  Uiso   1.00
N1165  N     0.60097   0.75551   0.45921   0.00000  Uiso   1.00
O1166  O     0.61167   0.72806   0.43815   0.00000  Uiso   1.00
O1167  O     0.62292   0.78292   0.46468   0.00000  Uiso   1.00
N1168  N     0.89913   0.74289   0.54078   0.00000  Uiso   1.00
O1169  O     0.89203   0.71435   0.56190   0.00000  Uiso   1.00
O1170  O     0.87382   0.76723   0.53522   0.00000  Uiso   1.00
N1171  N     0.74601   0.89896   0.45921   0.00000  Uiso   1.00
O1172  O     0.77362   0.88869   0.43815   0.00000  Uiso   1.00
O1173  O     0.71893   0.87659   0.46467   0.00000  Uiso   1.00
N1174  N     0.75542   0.60097   0.54078   0.00000  Uiso   1.00
O1175  O     0.78386   0.60859   0.56186   0.00000  Uiso   1.00
O1176  O     0.73060   0.62581   0.53528   0.00000  Uiso   1.00
N1177  N     0.64892   0.99747   0.95922   0.00000  Uiso   1.00
O1178  O     0.64048   0.96926   0.93814   0.00000  Uiso   1.00
O1179  O     0.62481   0.52300   0.96472   0.00000  Uiso   1.00
N1180  N     0.85111   0.50103   0.04078   0.00000  Uiso   1.00
O1181  O     0.86055   0.97314   0.06186   0.00000  Uiso   1.00
O1182  O     0.87429   0.52741   0.03529   0.00000  Uiso   1.00
N1183  N     0.50508   0.85099   0.95922   0.00000  Uiso   1.00
O1184  O     0.53348   0.85869   0.93812   0.00000  Uiso   1.00
O1185  O     0.98020   0.87577   0.96475   0.00000  Uiso   1.00
N1186  N     0.99639   0.64895   0.04079   0.00000  Uiso   1.00
O1187  O     0.52404   0.63876   0.06183   0.00000  Uiso   1.00
O1188  O     0.96938   0.62650   0.03535   0.00000  Uiso   1.00
N1189  N     0.85108   0.50255   0.95922   0.00000  Uiso   1.00
O1190  O     0.85952   0.53075   0.93813   0.00000  Uiso   1.00
O1191  O     0.87520   0.97702   0.96472   0.00000  Uiso   1.00
N1192  N     0.64889   0.99899   0.04078   0.00000  Uiso   1.00
O1193  O     0.63946   0.52688   0.06187   0.00000  Uiso   1.00
O1194  O     0.62570   0.97262   0.03529   0.00000  Uiso   1.00
N1195  N     0.99489   0.64901   0.95923   0.00000  Uiso   1.00
O1196  O     0.96649   0.64133   0.93811   0.00000  Uiso   1.00
O1197  O     0.51974   0.62421   0.96477   0.00000  Uiso   1.00
N1198  N     0.50354   0.85105   0.04079   0.00000  Uiso   1.00
O1199  O     0.97589   0.86121   0.06185   0.00000  Uiso   1.00
O1200  O     0.53051   0.87355   0.03532   0.00000  Uiso   1.00
loop_
_geom_bond_atom_site_label_1
_geom_bond_atom_site_label_2
_geom_bond_distance
_geom_bond_site_symmetry_2
_ccdc_geom_bond_type
Zn1    O87     1.936   .     S
Zn1    O56     1.952   .     S
Zn1    O41     1.949   .     S
Zn1    O684    1.936   1_545 S
Zn2    O55     1.952   .     S
Zn2    O83     1.936   .     S
Zn2    O42     1.949   .     S
Zn2    O688    1.936   1_545 S
Zn3    O58     1.952   .     S
Zn3    O78     1.936   .     S
Zn3    O43     1.949   .     S
Zn3    O385    1.936   1_455 S
Zn4    O44     1.949   .     S
Zn4    O377    1.936   1_455 S
Zn4    O57     1.952   .     S
Zn4    O86     1.936   .     S
Zn5    O60     1.952   .     S
Zn5    O80     1.936   .     S
Zn5    O41     1.949   .     S
Zn5    O691    1.936   1_545 S
Zn6    O92     1.936   .     S
Zn6    O42     1.949   .     S
Zn6    O59     1.952   .     S
Zn6    O679    1.936   1_545 S
Zn7    O43     1.949   .     S
Zn7    O382    1.936   1_455 S
Zn7    O54     1.952   .     S
Zn7    O89     1.936   .     S
Zn8    O53     1.952   .     S
Zn8    O390    1.936   1_455 S
Zn8    O44     1.949   .     S
Zn8    O81     1.936   .     S
Zn9    O48     1.952   .     S
Zn9    O71     1.936   .     S
Zn9    O344    1.949   .     S
Zn9    O68     1.936   .     S
Zn10   O47     1.952   .     S
Zn10   O72     1.936   .     S
Zn10   O67     1.936   .     S
Zn10   O43     1.949   .     S
Zn11   O62     1.936   .     S
Zn11   O69     1.936   .     S
Zn11   O50     1.952   .     S
Zn11   O642    1.949   .     S
Zn12   O49     1.952   .     S
Zn12   O70     1.936   .     S
Zn12   O41     1.949   .     S
Zn12   O61     1.936   .     S
Zn13   O75     1.936   .     S
Zn13   O52     1.952   .     S
Zn13   O64     1.936   .     S
Zn13   O44     1.949   .     S
Zn14   O76     1.936   .     S
Zn14   O343    1.949   .     S
Zn14   O51     1.952   .     S
Zn14   O63     1.936   .     S
Zn15   O66     1.936   .     S
Zn15   O73     1.936   .     S
Zn15   O42     1.949   .     S
Zn15   O46     1.952   .     S
Zn16   O45     1.952   .     S
Zn16   O65     1.936   .     S
Zn16   O74     1.936   .     S
Zn16   O641    1.949   .     S
C17    C201    1.399   .     A
C17    H213    1.082   .     S
C17    C33     1.397   .     S
C18    H214    1.082   .     S
C18    C202    1.399   .     A
C18    C334    1.397   .     A
C19    C203    1.399   .     A
C19    C635    1.397   .     A
C19    H215    1.082   .     S
C20    H216    1.082   .     S
C20    C204    1.399   .     A
C20    C36     1.397   .     S
C21    C333    1.397   .     A
C21    C197    1.399   .     A
C21    H217    1.082   .     S
C22    C198    1.399   .     A
C22    H218    1.082   .     S
C22    C34     1.397   .     S
C23    H219    1.082   .     S
C23    C199    1.399   .     A
C23    C35     1.397   .     S
C24    H220    1.082   .     S
C24    C200    1.399   .     A
C24    C636    1.397   .     A
C25    C37     1.397   .     A
C25    C209    1.399   .     A
C25    H821    1.082   1_545 S
C26    H222    1.082   .     S
C26    C210    1.399   .     A
C26    C638    1.397   .     S
C27    H223    1.082   .     S
C27    C339    1.397   .     A
C27    C211    1.399   .     A
C28    H224    1.082   .     S
C28    C212    1.399   .     A
C28    C40     1.397   .     S
C29    C205    1.399   .     A
C29    C637    1.397   .     S
C29    H825    1.082   .     S
C30    C38     1.397   .     A
C30    H226    1.082   .     S
C30    C206    1.399   .     A
C31    C207    1.399   .     A
C31    H227    1.082   .     S
C31    C39     1.397   .     S
C32    C208    1.399   .     A
C32    H228    1.082   .     S
C32    C340    1.397   .     A
C33    C321    1.397   1_455 A
C33    C111    1.464   .     S
C34    C112    1.464   .     S
C34    C318    1.397   1_455 A
C35    C109    1.464   .     S
C35    C619    1.397   1_545 A
C36    C624    1.397   1_545 A
C36    C110    1.464   .     S
C37    C115    1.464   .     S
C37    C629    1.397   1_545 S
C38    C116    1.464   .     S
C38    C626    1.397   1_545 S
C39    C327    1.397   1_455 A
C39    C113    1.464   .     S
C40    C114    1.464   .     S
C40    C332    1.397   1_455 A
O41    Zn616   1.949   1_545 S
O42    Zn611   1.949   1_545 S
O43    Zn314   1.949   1_455 S
O44    Zn309   1.949   1_455 S
O45    C709    1.281   .     A
O46    C110    1.281   .     S
O47    C111    1.281   .     S
O48    C412    1.281   .     A
O49    C109    1.281   .     S
O50    C710    1.281   .     A
O51    C411    1.281   .     A
O52    C112    1.281   .     S
O53    C113    1.281   .     S
O54    C114    1.281   .     S
O55    C115    1.281   .     A
O56    C116    1.281   .     A
O57    C113    1.281   .     A
O58    C114    1.281   .     S
O59    C115    1.281   .     A
O60    C116    1.281   .     A
O61    C117    1.282   .     A
O62    C118    1.282   .     A
O63    C119    1.282   .     A
O64    C120    1.282   .     A
O65    C121    1.282   .     A
O66    C122    1.282   .     A
O67    C123    1.282   .     A
O68    C124    1.282   .     A
O69    C125    1.282   .     A
O70    C126    1.282   .     A
O71    C127    1.282   .     A
O72    C128    1.282   .     A
O73    C129    1.282   .     A
O74    C130    1.282   .     A
O75    C131    1.282   .     A
O76    C132    1.282   .     A
O77    C127    1.282   .     A
O77    Zn304   1.936   .     S
O78    C128    1.282   .     A
O79    C125    1.282   .     A
O79    Zn606   1.936   .     S
O80    C126    1.282   .     A
O81    C131    1.282   .     A
O82    C132    1.282   .     A
O82    Zn307   1.936   .     S
O83    C129    1.282   .     A
O84    C130    1.282   .     A
O84    Zn601   1.936   .     S
O85    C119    1.282   .     A
O85    Zn303   1.936   .     S
O86    C120    1.282   .     A
O87    C117    1.282   .     A
O88    C118    1.282   .     A
O88    Zn602   1.936   .     S
O89    C123    1.282   .     A
O90    C124    1.282   .     A
O90    Zn308   1.936   .     S
O91    C121    1.282   .     A
O91    Zn605   1.936   .     S
O92    C122    1.282   .     A
C93    N253    1.436   .     S
C93    C197    1.412   .     A
C93    C98     1.405   .     A
C94    C97     1.405   .     A
C94    C198    1.412   .     A
C94    N256    1.436   .     S
C95    C100    1.404   .     A
C95    N259    1.436   .     S
C95    C199    1.412   .     A
C96    C99     1.405   .     A
C96    N262    1.436   .     S
C96    C200    1.412   .     A
C97    C201    1.412   .     A
C97    N265    1.436   .     S
C98    N268    1.436   .     S
C98    C202    1.412   .     A
C99    C203    1.412   .     A
C99    N271    1.436   .     S
C100   N274    1.436   .     S
C100   C204    1.412   .     A
C101   N277    1.436   .     S
C101   C205    1.412   .     A
C101   C106    1.404   1_556 S
C102   N280    1.436   .     S
C102   C206    1.412   .     A
C102   C105    1.404   1_554 S
C103   C207    1.412   .     A
C103   N283    1.436   .     S
C103   C108    1.405   1_556 S
C104   N286    1.436   .     S
C104   C208    1.412   .     A
C104   C107    1.405   1_554 S
C105   N289    1.436   .     S
C105   C209    1.412   .     A
C105   C102    1.404   1_556 S
C106   C210    1.412   .     A
C106   N292    1.436   .     S
C106   C101    1.404   1_554 S
C107   N295    1.436   .     S
C107   C211    1.412   .     A
C107   C104    1.405   1_556 S
C108   C212    1.412   .     A
C108   N298    1.436   .     S
C108   C103    1.405   1_554 S
C109   O645    1.281   1_545 A
C110   O650    1.281   1_545 A
C111   O351    1.281   1_455 A
C112   O348    1.281   1_455 A
C117   C231    1.455   .     S
C118   C232    1.455   .     S
C119   C233    1.455   .     S
C120   C234    1.455   .     S
C121   C235    1.455   .     S
C122   C236    1.455   .     S
C123   C229    1.455   .     S
C124   C230    1.455   .     S
C125   C239    1.455   .     S
C126   C240    1.455   .     S
C127   C241    1.455   .     S
C128   C242    1.455   .     S
C129   C243    1.455   .     S
C130   C244    1.455   .     S
C131   C237    1.455   .     S
C132   C238    1.455   .     S
C133   C244    1.402   .     A
C133   H165    1.083   .     S
C133   C148    1.386   .     A
C134   C147    1.386   .     A
C134   H166    1.083   .     S
C134   C243    1.402   .     A
C135   C146    1.386   .     A
C135   H167    1.083   .     S
C135   C242    1.402   .     A
C136   C241    1.402   .     A
C136   C145    1.386   .     A
C136   H168    1.083   .     S
C137   C144    1.386   .     A
C137   H169    1.083   .     S
C137   C240    1.402   .     A
C138   C143    1.386   .     A
C138   C239    1.402   .     A
C138   H170    1.083   .     S
C139   C142    1.386   .     A
C139   H171    1.083   .     S
C139   C238    1.402   .     A
C140   C141    1.386   .     A
C140   C237    1.402   .     A
C140   H172    1.083   .     S
C141   H173    1.083   .     S
C141   C236    1.402   .     A
C142   C235    1.402   .     A
C142   H174    1.083   .     S
C143   H175    1.083   .     S
C143   C234    1.402   .     A
C144   C233    1.402   .     A
C144   H176    1.083   .     S
C145   C232    1.402   .     A
C145   H177    1.083   .     S
C146   H178    1.083   .     S
C146   C231    1.402   .     A
C147   H179    1.083   .     S
C147   C230    1.402   .     A
C148   H180    1.083   .     S
C148   C229    1.402   .     A
C149   C230    1.402   .     A
C149   C164    1.386   .     A
C149   H181    1.083   .     S
C150   C163    1.386   .     A
C150   H182    1.083   .     S
C150   C229    1.402   .     A
C151   H183    1.083   .     S
C151   C162    1.386   .     A
C151   C232    1.402   .     A
C152   C231    1.402   .     A
C152   C161    1.386   .     A
C152   H184    1.083   .     S
C153   C234    1.402   .     A
C153   C160    1.386   .     A
C153   H185    1.083   .     S
C154   H186    1.083   .     S
C154   C159    1.386   .     A
C154   C233    1.402   .     A
C155   C158    1.386   .     A
C155   H187    1.083   .     S
C155   C236    1.402   .     A
C156   C235    1.402   .     A
C156   H188    1.083   .     S
C156   C157    1.386   .     A
C157   C238    1.402   .     A
C157   H189    1.083   .     S
C158   H190    1.083   .     S
C158   C237    1.402   .     A
C159   C240    1.402   .     A
C159   H191    1.083   .     S
C160   C239    1.402   .     A
C160   H192    1.083   .     S
C161   H193    1.083   .     S
C161   C242    1.402   .     A
C162   C241    1.402   .     A
C162   H194    1.083   .     S
C163   H195    1.083   .     S
C163   C244    1.402   .     A
C164   C243    1.402   .     A
C164   H196    1.083   .     S
C197   C545    1.417   .     A
C198   C246    1.417   .     S
C199   C247    1.417   .     S
C200   C848    1.417   .     A
C201   C245    1.417   .     S
C202   C546    1.417   .     A
C203   C847    1.417   .     A
C204   C248    1.417   .     S
C205   C849    1.417   .     S
C206   C250    1.417   .     A
C207   C551    1.417   1_455 S
C208   C252    1.417   .     A
C209   C249    1.417   .     A
C210   C850    1.417   .     S
C211   C251    1.417   .     A
C212   C552    1.417   1_455 S
H221   C625    1.082   .     S
H225   C629    1.082   1_545 S
C245   C246    1.404   .     A
C245   C497    1.417   1_455 A
C246   C502    1.417   1_455 A
C247   C803    1.417   1_545 A
C247   C248    1.404   .     A
C248   C800    1.417   1_545 A
C249   C805    1.417   1_545 S
C249   C250    1.404   1_556 S
C250   C810    1.417   1_545 S
C250   C249    1.404   1_554 S
C251   C507    1.417   .     S
C251   C252    1.404   1_556 S
C252   C512    1.417   .     S
C252   C251    1.404   1_554 S
N253   O255    1.301   .     A
N253   O254    1.301   .     A
N256   O258    1.301   .     A
N256   O257    1.301   .     A
N259   O261    1.301   .     A
N259   O260    1.301   .     A
N262   O263    1.301   .     A
N262   O264    1.301   .     A
N265   O267    1.301   .     A
N265   O266    1.301   .     A
N268   O270    1.301   .     A
N268   O269    1.301   .     A
N271   O272    1.301   .     A
N271   O273    1.301   .     A
N274   O275    1.301   .     A
N274   O276    1.301   .     A
N277   O278    1.301   .     A
N277   O879    1.301   .     S
O279   N877    1.301   1_545 S
N280   O282    1.301   .     A
N280   O881    1.301   1_545 S
O281   N880    1.301   .     S
N283   O284    1.301   .     A
N283   O585    1.301   1_455 S
O285   N583    1.301   .     S
N286   O288    1.301   .     A
N286   O587    1.301   .     S
O287   N586    1.301   1_455 S
N289   O290    1.301   .     A
N289   O891    1.301   1_545 S
O291   N889    1.301   .     S
N292   O294    1.301   .     A
N292   O893    1.301   .     S
O293   N892    1.301   1_545 S
N295   O296    1.301   .     A
N295   O597    1.301   .     S
O297   N595    1.301   1_455 S
N298   O300    1.301   .     A
N298   O599    1.301   1_455 S
O299   N598    1.301   .     S
Zn301  O387    1.936   .     S
Zn301  O356    1.952   .     S
Zn301  O341    1.949   .     S
Zn301  O984    1.936   1_545 S
Zn302  O355    1.952   .     S
Zn302  O383    1.936   .     S
Zn302  O342    1.949   .     S
Zn302  O988    1.936   1_545 S
Zn303  O358    1.952   .     S
Zn303  O378    1.936   .     S
Zn303  O343    1.949   .     S
Zn304  O344    1.949   .     S
Zn304  O357    1.952   .     S
Zn304  O386    1.936   .     S
Zn305  O360    1.952   .     S
Zn305  O380    1.936   .     S
Zn305  O341    1.949   .     S
Zn305  O991    1.936   1_545 S
Zn306  O392    1.936   .     S
Zn306  O342    1.949   .     S
Zn306  O359    1.952   .     S
Zn306  O979    1.936   1_545 S
Zn307  O343    1.949   .     S
Zn307  O354    1.952   .     S
Zn307  O389    1.936   .     S
Zn308  O353    1.952   .     S
Zn308  O344    1.949   .     S
Zn308  O381    1.936   .     S
Zn309  O348    1.952   .     S
Zn309  O371    1.936   .     S
Zn309  O44     1.949   1_655 S
Zn309  O368    1.936   .     S
Zn310  O347    1.952   .     S
Zn310  O372    1.936   .     S
Zn310  O367    1.936   .     S
Zn310  O343    1.949   .     S
Zn311  O362    1.936   .     S
Zn311  O369    1.936   .     S
Zn311  O350    1.952   .     S
Zn311  O942    1.949   .     S
Zn312  O349    1.952   .     S
Zn312  O370    1.936   .     S
Zn312  O341    1.949   .     S
Zn312  O361    1.936   .     S
Zn313  O375    1.936   .     S
Zn313  O352    1.952   .     S
Zn313  O364    1.936   .     S
Zn313  O344    1.949   .     S
Zn314  O376    1.936   .     S
Zn314  O43     1.949   1_655 S
Zn314  O351    1.952   .     S
Zn314  O363    1.936   .     S
Zn315  O366    1.936   .     S
Zn315  O373    1.936   .     S
Zn315  O342    1.949   .     S
Zn315  O346    1.952   .     S
Zn316  O345    1.952   .     S
Zn316  O365    1.936   .     S
Zn316  O374    1.936   .     S
Zn316  O941    1.949   .     S
C317   C501    1.399   .     A
C317   H513    1.082   .     S
C317   C333    1.397   .     S
C318   H514    1.082   .     S
C318   C502    1.399   .     A
C318   C34     1.397   1_655 A
C319   C503    1.399   .     A
C319   C935    1.397   .     A
C319   H515    1.082   .     S
C320   H516    1.082   .     S
C320   C504    1.399   .     A
C320   C336    1.397   .     S
C321   C33     1.397   1_655 A
C321   C497    1.399   .     A
C321   H517    1.082   .     S
C322   C498    1.399   .     A
C322   H518    1.082   .     S
C322   C334    1.397   .     S
C323   H519    1.082   .     S
C323   C499    1.399   .     A
C323   C335    1.397   .     S
C324   H520    1.082   .     S
C324   C500    1.399   .     A
C324   C936    1.397   .     A
C325   C337    1.397   .     A
C325   C509    1.399   .     A
C325   H1121   1.082   1_545 S
C326   H522    1.082   .     S
C326   C510    1.399   .     A
C326   C938    1.397   .     S
C327   H523    1.082   .     S
C327   C39     1.397   1_655 A
C327   C511    1.399   .     A
C328   H524    1.082   .     S
C328   C512    1.399   .     A
C328   C340    1.397   .     S
C329   C505    1.399   .     A
C329   C937    1.397   .     S
C329   H1125   1.082   .     S
C330   C338    1.397   .     A
C330   H526    1.082   .     S
C330   C506    1.399   .     A
C331   C507    1.399   .     A
C331   H527    1.082   .     S
C331   C339    1.397   .     S
C332   C508    1.399   .     A
C332   H528    1.082   .     S
C332   C40     1.397   1_655 A
C333   C411    1.464   .     S
C334   C412    1.464   .     S
C335   C409    1.464   .     S
C335   C919    1.397   1_545 A
C336   C924    1.397   1_545 A
C336   C410    1.464   .     S
C337   C415    1.464   .     S
C337   C929    1.397   1_545 S
C338   C416    1.464   .     S
C338   C926    1.397   1_545 S
C339   C413    1.464   .     S
C340   C414    1.464   .     S
O341   Zn916   1.949   1_545 S
O342   Zn911   1.949   1_545 S
O345   C1009   1.281   .     A
O346   C410    1.281   .     S
O347   C411    1.281   .     S
O348   C112    1.281   1_655 A
O349   C409    1.281   .     S
O350   C1010   1.281   .     A
O351   C111    1.281   1_655 A
O352   C412    1.281   .     S
O353   C413    1.281   .     S
O354   C414    1.281   .     S
O355   C415    1.281   .     A
O356   C416    1.281   .     A
O357   C413    1.281   .     A
O358   C414    1.281   .     S
O359   C415    1.281   .     A
O360   C416    1.281   .     A
O361   C417    1.282   .     A
O362   C418    1.282   .     A
O363   C419    1.282   .     A
O364   C420    1.282   .     A
O365   C421    1.282   .     A
O366   C422    1.282   .     A
O367   C423    1.282   .     A
O368   C424    1.282   .     A
O369   C425    1.282   .     A
O370   C426    1.282   .     A
O371   C427    1.282   .     A
O372   C428    1.282   .     A
O373   C429    1.282   .     A
O374   C430    1.282   .     A
O375   C431    1.282   .     A
O376   C432    1.282   .     A
O377   C427    1.282   .     A
O377   Zn4     1.936   1_655 S
O378   C428    1.282   .     A
O379   C425    1.282   .     A
O379   Zn906   1.936   .     S
O380   C426    1.282   .     A
O381   C431    1.282   .     A
O382   C432    1.282   .     A
O382   Zn7     1.936   1_655 S
O383   C429    1.282   .     A
O384   C430    1.282   .     A
O384   Zn901   1.936   .     S
O385   C419    1.282   .     A
O385   Zn3     1.936   1_655 S
O386   C420    1.282   .     A
O387   C417    1.282   .     A
O388   C418    1.282   .     A
O388   Zn902   1.936   .     S
O389   C423    1.282   .     A
O390   C424    1.282   .     A
O390   Zn8     1.936   1_655 S
O391   C421    1.282   .     A
O391   Zn905   1.936   .     S
O392   C422    1.282   .     A
C393   N553    1.436   .     S
C393   C497    1.412   .     A
C393   C398    1.405   .     A
C394   C397    1.405   .     A
C394   C498    1.412   .     A
C394   N556    1.436   .     S
C395   C400    1.404   .     A
C395   N559    1.436   .     S
C395   C499    1.412   .     A
C396   C399    1.405   .     A
C396   N562    1.436   .     S
C396   C500    1.412   .     A
C397   C501    1.412   .     A
C397   N565    1.436   .     S
C398   N568    1.436   .     S
C398   C502    1.412   .     A
C399   C503    1.412   .     A
C399   N571    1.436   .     S
C400   N574    1.436   .     S
C400   C504    1.412   .     A
C401   N577    1.436   .     S
C401   C505    1.412   .     A
C401   C406    1.404   1_556 S
C402   N580    1.436   .     S
C402   C506    1.412   .     A
C402   C405    1.404   1_554 S
C403   C507    1.412   .     A
C403   N583    1.436   .     S
C403   C408    1.405   1_556 S
C404   N586    1.436   .     S
C404   C508    1.412   .     A
C404   C407    1.405   1_554 S
C405   N589    1.436   .     S
C405   C509    1.412   .     A
C405   C402    1.404   1_556 S
C406   C510    1.412   .     A
C406   N592    1.436   .     S
C406   C401    1.404   1_554 S
C407   N595    1.436   .     S
C407   C511    1.412   .     A
C407   C404    1.405   1_556 S
C408   C512    1.412   .     A
C408   N598    1.436   .     S
C408   C403    1.405   1_554 S
C409   O945    1.281   1_545 A
C410   O950    1.281   1_545 A
C417   C531    1.455   .     S
C418   C532    1.455   .     S
C419   C533    1.455   .     S
C420   C534    1.455   .     S
C421   C535    1.455   .     S
C422   C536    1.455   .     S
C423   C529    1.455   .     S
C424   C530    1.455   .     S
C425   C539    1.455   .     S
C426   C540    1.455   .     S
C427   C541    1.455   .     S
C428   C542    1.455   .     S
C429   C543    1.455   .     S
C430   C544    1.455   .     S
C431   C537    1.455   .     S
C432   C538    1.455   .     S
C433   C544    1.402   .     A
C433   H465    1.083   .     S
C433   C448    1.386   .     A
C434   C447    1.386   .     A
C434   H466    1.083   .     S
C434   C543    1.402   .     A
C435   C446    1.386   .     A
C435   H467    1.083   .     S
C435   C542    1.402   .     A
C436   C541    1.402   .     A
C436   C445    1.386   .     A
C436   H468    1.083   .     S
C437   C444    1.386   .     A
C437   H469    1.083   .     S
C437   C540    1.402   .     A
C438   C443    1.386   .     A
C438   C539    1.402   .     A
C438   H470    1.083   .     S
C439   C442    1.386   .     A
C439   H471    1.083   .     S
C439   C538    1.402   .     A
C440   C441    1.386   .     A
C440   C537    1.402   .     A
C440   H472    1.083   .     S
C441   H473    1.083   .     S
C441   C536    1.402   .     A
C442   C535    1.402   .     A
C442   H474    1.083   .     S
C443   H475    1.083   .     S
C443   C534    1.402   .     A
C444   C533    1.402   .     A
C444   H476    1.083   .     S
C445   C532    1.402   .     A
C445   H477    1.083   .     S
C446   H478    1.083   .     S
C446   C531    1.402   .     A
C447   H479    1.083   .     S
C447   C530    1.402   .     A
C448   H480    1.083   .     S
C448   C529    1.402   .     A
C449   C530    1.402   .     A
C449   C464    1.386   .     A
C449   H481    1.083   .     S
C450   C463    1.386   .     A
C450   H482    1.083   .     S
C450   C529    1.402   .     A
C451   H483    1.083   .     S
C451   C462    1.386   .     A
C451   C532    1.402   .     A
C452   C531    1.402   .     A
C452   C461    1.386   .     A
C452   H484    1.083   .     S
C453   C534    1.402   .     A
C453   C460    1.386   .     A
C453   H485    1.083   .     S
C454   H486    1.083   .     S
C454   C459    1.386   .     A
C454   C533    1.402   .     A
C455   C458    1.386   .     A
C455   H487    1.083   .     S
C455   C536    1.402   .     A
C456   C535    1.402   .     A
C456   H488    1.083   .     S
C456   C457    1.386   .     A
C457   C538    1.402   .     A
C457   H489    1.083   .     S
C458   H490    1.083   .     S
C458   C537    1.402   .     A
C459   C540    1.402   .     A
C459   H491    1.083   .     S
C460   C539    1.402   .     A
C460   H492    1.083   .     S
C461   H493    1.083   .     S
C461   C542    1.402   .     A
C462   C541    1.402   .     A
C462   H494    1.083   .     S
C463   H495    1.083   .     S
C463   C544    1.402   .     A
C464   C543    1.402   .     A
C464   H496    1.083   .     S
C497   C245    1.417   1_655 A
C498   C546    1.417   .     S
C499   C547    1.417   .     S
C500   C1148   1.417   .     A
C501   C545    1.417   .     S
C502   C246    1.417   1_655 A
C503   C1147   1.417   .     A
C504   C548    1.417   .     S
C505   C1149   1.417   .     S
C506   C550    1.417   .     A
C508   C552    1.417   .     A
C509   C549    1.417   .     A
C510   C1150   1.417   .     S
C511   C551    1.417   .     A
H521   C925    1.082   .     S
H525   C929    1.082   1_545 S
C545   C546    1.404   .     A
C547   C1103   1.417   1_545 A
C547   C548    1.404   .     A
C548   C1100   1.417   1_545 A
C549   C1105   1.417   1_545 S
C549   C550    1.404   1_556 S
C550   C1110   1.417   1_545 S
C550   C549    1.404   1_554 S
C551   C207    1.417   1_655 S
C551   C552    1.404   1_556 S
C552   C212    1.417   1_655 S
C552   C551    1.404   1_554 S
N553   O555    1.301   .     A
N553   O554    1.301   .     A
N556   O558    1.301   .     A
N556   O557    1.301   .     A
N559   O561    1.301   .     A
N559   O560    1.301   .     A
N562   O563    1.301   .     A
N562   O564    1.301   .     A
N565   O567    1.301   .     A
N565   O566    1.301   .     A
N568   O570    1.301   .     A
N568   O569    1.301   .     A
N571   O572    1.301   .     A
N571   O573    1.301   .     A
N574   O575    1.301   .     A
N574   O576    1.301   .     A
N577   O578    1.301   .     A
N577   O1179   1.301   .     S
O579   N1177   1.301   1_545 S
N580   O582    1.301   .     A
N580   O1181   1.301   1_545 S
O581   N1180   1.301   .     S
N583   O584    1.301   .     A
O585   N283    1.301   1_655 S
N586   O588    1.301   .     A
N586   O287    1.301   1_655 S
N589   O590    1.301   .     A
N589   O1191   1.301   1_545 S
O591   N1189   1.301   .     S
N592   O594    1.301   .     A
N592   O1193   1.301   .     S
O593   N1192   1.301   1_545 S
N595   O596    1.301   .     A
N595   O297    1.301   1_655 S
N598   O600    1.301   .     A
O599   N298    1.301   1_655 S
Zn601  O687    1.936   .     S
Zn601  O656    1.952   .     S
Zn601  O641    1.949   .     S
Zn602  O655    1.952   .     S
Zn602  O683    1.936   .     S
Zn602  O642    1.949   .     S
Zn603  O658    1.952   .     S
Zn603  O678    1.936   .     S
Zn603  O643    1.949   .     S
Zn603  O985    1.936   1_455 S
Zn604  O644    1.949   .     S
Zn604  O977    1.936   1_455 S
Zn604  O657    1.952   .     S
Zn604  O686    1.936   .     S
Zn605  O660    1.952   .     S
Zn605  O680    1.936   .     S
Zn605  O641    1.949   .     S
Zn606  O692    1.936   .     S
Zn606  O642    1.949   .     S
Zn606  O659    1.952   .     S
Zn607  O643    1.949   .     S
Zn607  O982    1.936   1_455 S
Zn607  O654    1.952   .     S
Zn607  O689    1.936   .     S
Zn608  O653    1.952   .     S
Zn608  O990    1.936   1_455 S
Zn608  O644    1.949   .     S
Zn608  O681    1.936   .     S
Zn609  O648    1.952   .     S
Zn609  O671    1.936   .     S
Zn609  O944    1.949   .     S
Zn609  O668    1.936   .     S
Zn610  O647    1.952   .     S
Zn610  O672    1.936   .     S
Zn610  O667    1.936   .     S
Zn610  O643    1.949   .     S
Zn611  O662    1.936   .     S
Zn611  O669    1.936   .     S
Zn611  O650    1.952   .     S
Zn611  O42     1.949   1_565 S
Zn612  O649    1.952   .     S
Zn612  O670    1.936   .     S
Zn612  O641    1.949   .     S
Zn612  O661    1.936   .     S
Zn613  O675    1.936   .     S
Zn613  O652    1.952   .     S
Zn613  O664    1.936   .     S
Zn613  O644    1.949   .     S
Zn614  O676    1.936   .     S
Zn614  O943    1.949   .     S
Zn614  O651    1.952   .     S
Zn614  O663    1.936   .     S
Zn615  O666    1.936   .     S
Zn615  O673    1.936   .     S
Zn615  O642    1.949   .     S
Zn615  O646    1.952   .     S
Zn616  O645    1.952   .     S
Zn616  O665    1.936   .     S
Zn616  O674    1.936   .     S
Zn616  O41     1.949   1_565 S
C617   C801    1.399   .     A
C617   H813    1.082   .     S
C617   C633    1.397   .     S
C618   H814    1.082   .     S
C618   C802    1.399   .     A
C618   C934    1.397   .     A
C619   C803    1.399   .     A
C619   C35     1.397   1_565 A
C619   H815    1.082   .     S
C620   H816    1.082   .     S
C620   C804    1.399   .     A
C620   C636    1.397   .     S
C621   C933    1.397   .     A
C621   C797    1.399   .     A
C621   H817    1.082   .     S
C622   C798    1.399   .     A
C622   H818    1.082   .     S
C622   C634    1.397   .     S
C623   H819    1.082   .     S
C623   C799    1.399   .     A
C623   C635    1.397   .     S
C624   H820    1.082   .     S
C624   C800    1.399   .     A
C624   C36     1.397   1_565 A
C625   C637    1.397   .     A
C625   C809    1.399   .     A
C626   H822    1.082   .     S
C626   C810    1.399   .     A
C626   C38     1.397   1_565 S
C627   H823    1.082   .     S
C627   C939    1.397   .     A
C627   C811    1.399   .     A
C628   H824    1.082   .     S
C628   C812    1.399   .     A
C628   C640    1.397   .     S
C629   C805    1.399   .     A
C629   C37     1.397   1_565 S
C629   H225    1.082   1_565 S
C630   C638    1.397   .     A
C630   H826    1.082   .     S
C630   C806    1.399   .     A
C631   C807    1.399   .     A
C631   H827    1.082   .     S
C631   C639    1.397   .     S
C632   C808    1.399   .     A
C632   H828    1.082   .     S
C632   C940    1.397   .     A
C633   C921    1.397   1_455 A
C633   C711    1.464   .     S
C634   C712    1.464   .     S
C634   C918    1.397   1_455 A
C635   C709    1.464   .     S
C636   C710    1.464   .     S
C637   C715    1.464   .     S
C638   C716    1.464   .     S
C639   C927    1.397   1_455 A
C639   C713    1.464   .     S
C640   C714    1.464   .     S
C640   C932    1.397   1_455 A
O643   Zn914   1.949   1_455 S
O644   Zn909   1.949   1_455 S
O645   C109    1.281   1_565 A
O646   C710    1.281   .     S
O647   C711    1.281   .     S
O648   C1012   1.281   .     A
O649   C709    1.281   .     S
O650   C110    1.281   1_565 A
O651   C1011   1.281   .     A
O652   C712    1.281   .     S
O653   C713    1.281   .     S
O654   C714    1.281   .     S
O655   C715    1.281   .     A
O656   C716    1.281   .     A
O657   C713    1.281   .     A
O658   C714    1.281   .     S
O659   C715    1.281   .     A
O660   C716    1.281   .     A
O661   C717    1.282   .     A
O662   C718    1.282   .     A
O663   C719    1.282   .     A
O664   C720    1.282   .     A
O665   C721    1.282   .     A
O666   C722    1.282   .     A
O667   C723    1.282   .     A
O668   C724    1.282   .     A
O669   C725    1.282   .     A
O670   C726    1.282   .     A
O671   C727    1.282   .     A
O672   C728    1.282   .     A
O673   C729    1.282   .     A
O674   C730    1.282   .     A
O675   C731    1.282   .     A
O676   C732    1.282   .     A
O677   C727    1.282   .     A
O677   Zn904   1.936   .     S
O678   C728    1.282   .     A
O679   C725    1.282   .     A
O679   Zn6     1.936   1_565 S
O680   C726    1.282   .     A
O681   C731    1.282   .     A
O682   C732    1.282   .     A
O682   Zn907   1.936   .     S
O683   C729    1.282   .     A
O684   C730    1.282   .     A
O684   Zn1     1.936   1_565 S
O685   C719    1.282   .     A
O685   Zn903   1.936   .     S
O686   C720    1.282   .     A
O687   C717    1.282   .     A
O688   C718    1.282   .     A
O688   Zn2     1.936   1_565 S
O689   C723    1.282   .     A
O690   C724    1.282   .     A
O690   Zn908   1.936   .     S
O691   C721    1.282   .     A
O691   Zn5     1.936   1_565 S
O692   C722    1.282   .     A
C693   N853    1.436   .     S
C693   C797    1.412   .     A
C693   C698    1.405   .     A
C694   C697    1.405   .     A
C694   C798    1.412   .     A
C694   N856    1.436   .     S
C695   C700    1.404   .     A
C695   N859    1.436   .     S
C695   C799    1.412   .     A
C696   C699    1.405   .     A
C696   N862    1.436   .     S
C696   C800    1.412   .     A
C697   C801    1.412   .     A
C697   N865    1.436   .     S
C698   N868    1.436   .     S
C698   C802    1.412   .     A
C699   C803    1.412   .     A
C699   N871    1.436   .     S
C700   N874    1.436   .     S
C700   C804    1.412   .     A
C701   N877    1.436   .     S
C701   C805    1.412   .     A
C701   C706    1.404   1_556 S
C702   N880    1.436   .     S
C702   C806    1.412   .     A
C702   C705    1.404   1_554 S
C703   C807    1.412   .     A
C703   N883    1.436   .     S
C703   C708    1.405   1_556 S
C704   N886    1.436   .     S
C704   C808    1.412   .     A
C704   C707    1.405   1_554 S
C705   N889    1.436   .     S
C705   C809    1.412   .     A
C705   C702    1.404   1_556 S
C706   C810    1.412   .     A
C706   N892    1.436   .     S
C706   C701    1.404   1_554 S
C707   N895    1.436   .     S
C707   C811    1.412   .     A
C707   C704    1.405   1_556 S
C708   C812    1.412   .     A
C708   N898    1.436   .     S
C708   C703    1.405   1_554 S
C711   O951    1.281   1_455 A
C712   O948    1.281   1_455 A
C717   C831    1.455   .     S
C718   C832    1.455   .     S
C719   C833    1.455   .     S
C720   C834    1.455   .     S
C721   C835    1.455   .     S
C722   C836    1.455   .     S
C723   C829    1.455   .     S
C724   C830    1.455   .     S
C725   C839    1.455   .     S
C726   C840    1.455   .     S
C727   C841    1.455   .     S
C728   C842    1.455   .     S
C729   C843    1.455   .     S
C730   C844    1.455   .     S
C731   C837    1.455   .     S
C732   C838    1.455   .     S
C733   C844    1.402   .     A
C733   H765    1.083   .     S
C733   C748    1.386   .     A
C734   C747    1.386   .     A
C734   H766    1.083   .     S
C734   C843    1.402   .     A
C735   C746    1.386   .     A
C735   H767    1.083   .     S
C735   C842    1.402   .     A
C736   C841    1.402   .     A
C736   C745    1.386   .     A
C736   H768    1.083   .     S
C737   C744    1.386   .     A
C737   H769    1.083   .     S
C737   C840    1.402   .     A
C738   C743    1.386   .     A
C738   C839    1.402   .     A
C738   H770    1.083   .     S
C739   C742    1.386   .     A
C739   H771    1.083   .     S
C739   C838    1.402   .     A
C740   C741    1.386   .     A
C740   C837    1.402   .     A
C740   H772    1.083   .     S
C741   H773    1.083   .     S
C741   C836    1.402   .     A
C742   C835    1.402   .     A
C742   H774    1.083   .     S
C743   H775    1.083   .     S
C743   C834    1.402   .     A
C744   C833    1.402   .     A
C744   H776    1.083   .     S
C745   C832    1.402   .     A
C745   H777    1.083   .     S
C746   H778    1.083   .     S
C746   C831    1.402   .     A
C747   H779    1.083   .     S
C747   C830    1.402   .     A
C748   H780    1.083   .     S
C748   C829    1.402   .     A
C749   C830    1.402   .     A
C749   C764    1.386   .     A
C749   H781    1.083   .     S
C750   C763    1.386   .     A
C750   H782    1.083   .     S
C750   C829    1.402   .     A
C751   H783    1.083   .     S
C751   C762    1.386   .     A
C751   C832    1.402   .     A
C752   C831    1.402   .     A
C752   C761    1.386   .     A
C752   H784    1.083   .     S
C753   C834    1.402   .     A
C753   C760    1.386   .     A
C753   H785    1.083   .     S
C754   H786    1.083   .     S
C754   C759    1.386   .     A
C754   C833    1.402   .     A
C755   C758    1.386   .     A
C755   H787    1.083   .     S
C755   C836    1.402   .     A
C756   C835    1.402   .     A
C756   H788    1.083   .     S
C756   C757    1.386   .     A
C757   C838    1.402   .     A
C757   H789    1.083   .     S
C758   H790    1.083   .     S
C758   C837    1.402   .     A
C759   C840    1.402   .     A
C759   H791    1.083   .     S
C760   C839    1.402   .     A
C760   H792    1.083   .     S
C761   H793    1.083   .     S
C761   C842    1.402   .     A
C762   C841    1.402   .     A
C762   H794    1.083   .     S
C763   H795    1.083   .     S
C763   C844    1.402   .     A
C764   C843    1.402   .     A
C764   H796    1.083   .     S
C797   C1145   1.417   .     A
C798   C846    1.417   .     S
C799   C847    1.417   .     S
C800   C248    1.417   1_565 A
C801   C845    1.417   .     S
C802   C1146   1.417   .     A
C803   C247    1.417   1_565 A
C804   C848    1.417   .     S
C805   C249    1.417   1_565 S
C806   C850    1.417   .     A
C807   C1151   1.417   1_455 S
C808   C852    1.417   .     A
C809   C849    1.417   .     A
C810   C250    1.417   1_565 S
C811   C851    1.417   .     A
C812   C1152   1.417   1_455 S
H821   C25     1.082   1_565 S
C845   C846    1.404   .     A
C845   C1097   1.417   1_455 A
C846   C1102   1.417   1_455 A
C847   C848    1.404   .     A
C849   C850    1.404   1_556 S
C850   C849    1.404   1_554 S
C851   C1107   1.417   .     S
C851   C852    1.404   1_556 S
C852   C1112   1.417   .     S
C852   C851    1.404   1_554 S
N853   O855    1.301   .     A
N853   O854    1.301   .     A
N856   O858    1.301   .     A
N856   O857    1.301   .     A
N859   O861    1.301   .     A
N859   O860    1.301   .     A
N862   O863    1.301   .     A
N862   O864    1.301   .     A
N865   O867    1.301   .     A
N865   O866    1.301   .     A
N868   O870    1.301   .     A
N868   O869    1.301   .     A
N871   O872    1.301   .     A
N871   O873    1.301   .     A
N874   O875    1.301   .     A
N874   O876    1.301   .     A
N877   O878    1.301   .     A
N877   O279    1.301   1_565 S
N880   O882    1.301   .     A
O881   N280    1.301   1_565 S
N883   O884    1.301   .     A
N883   O1185   1.301   1_455 S
O885   N1183   1.301   .     S
N886   O888    1.301   .     A
N886   O1187   1.301   .     S
O887   N1186   1.301   1_455 S
N889   O890    1.301   .     A
O891   N289    1.301   1_565 S
N892   O894    1.301   .     A
N892   O293    1.301   1_565 S
N895   O896    1.301   .     A
N895   O1197   1.301   .     S
O897   N1195   1.301   1_455 S
N898   O900    1.301   .     A
N898   O1199   1.301   1_455 S
O899   N1198   1.301   .     S
Zn901  O987    1.936   .     S
Zn901  O956    1.952   .     S
Zn901  O941    1.949   .     S
Zn902  O955    1.952   .     S
Zn902  O983    1.936   .     S
Zn902  O942    1.949   .     S
Zn903  O958    1.952   .     S
Zn903  O978    1.936   .     S
Zn903  O943    1.949   .     S
Zn904  O944    1.949   .     S
Zn904  O957    1.952   .     S
Zn904  O986    1.936   .     S
Zn905  O960    1.952   .     S
Zn905  O980    1.936   .     S
Zn905  O941    1.949   .     S
Zn906  O992    1.936   .     S
Zn906  O942    1.949   .     S
Zn906  O959    1.952   .     S
Zn907  O943    1.949   .     S
Zn907  O954    1.952   .     S
Zn907  O989    1.936   .     S
Zn908  O953    1.952   .     S
Zn908  O944    1.949   .     S
Zn908  O981    1.936   .     S
Zn909  O948    1.952   .     S
Zn909  O971    1.936   .     S
Zn909  O644    1.949   1_655 S
Zn909  O968    1.936   .     S
Zn910  O947    1.952   .     S
Zn910  O972    1.936   .     S
Zn910  O967    1.936   .     S
Zn910  O943    1.949   .     S
Zn911  O962    1.936   .     S
Zn911  O969    1.936   .     S
Zn911  O950    1.952   .     S
Zn911  O342    1.949   1_565 S
Zn912  O949    1.952   .     S
Zn912  O970    1.936   .     S
Zn912  O941    1.949   .     S
Zn912  O961    1.936   .     S
Zn913  O975    1.936   .     S
Zn913  O952    1.952   .     S
Zn913  O964    1.936   .     S
Zn913  O944    1.949   .     S
Zn914  O976    1.936   .     S
Zn914  O643    1.949   1_655 S
Zn914  O951    1.952   .     S
Zn914  O963    1.936   .     S
Zn915  O966    1.936   .     S
Zn915  O973    1.936   .     S
Zn915  O942    1.949   .     S
Zn915  O946    1.952   .     S
Zn916  O945    1.952   .     S
Zn916  O965    1.936   .     S
Zn916  O974    1.936   .     S
Zn916  O341    1.949   1_565 S
C917   C1101   1.399   .     A
C917   H1113   1.082   .     S
C917   C933    1.397   .     S
C918   H1114   1.082   .     S
C918   C1102   1.399   .     A
C918   C634    1.397   1_655 A
C919   C1103   1.399   .     A
C919   C335    1.397   1_565 A
C919   H1115   1.082   .     S
C920   H1116   1.082   .     S
C920   C1104   1.399   .     A
C920   C936    1.397   .     S
C921   C633    1.397   1_655 A
C921   C1097   1.399   .     A
C921   H1117   1.082   .     S
C922   C1098   1.399   .     A
C922   H1118   1.082   .     S
C922   C934    1.397   .     S
C923   H1119   1.082   .     S
C923   C1099   1.399   .     A
C923   C935    1.397   .     S
C924   H1120   1.082   .     S
C924   C1100   1.399   .     A
C924   C336    1.397   1_565 A
C925   C937    1.397   .     A
C925   C1109   1.399   .     A
C926   H1122   1.082   .     S
C926   C1110   1.399   .     A
C926   C338    1.397   1_565 S
C927   H1123   1.082   .     S
C927   C639    1.397   1_655 A
C927   C1111   1.399   .     A
C928   H1124   1.082   .     S
C928   C1112   1.399   .     A
C928   C940    1.397   .     S
C929   C1105   1.399   .     A
C929   C337    1.397   1_565 S
C929   H525    1.082   1_565 S
C930   C938    1.397   .     A
C930   H1126   1.082   .     S
C930   C1106   1.399   .     A
C931   C1107   1.399   .     A
C931   H1127   1.082   .     S
C931   C939    1.397   .     S
C932   C1108   1.399   .     A
C932   H1128   1.082   .     S
C932   C640    1.397   1_655 A
C933   C1011   1.464   .     S
C934   C1012   1.464   .     S
C935   C1009   1.464   .     S
C936   C1010   1.464   .     S
C937   C1015   1.464   .     S
C938   C1016   1.464   .     S
C939   C1013   1.464   .     S
C940   C1014   1.464   .     S
O945   C409    1.281   1_565 A
O946   C1010   1.281   .     S
O947   C1011   1.281   .     S
O948   C712    1.281   1_655 A
O949   C1009   1.281   .     S
O950   C410    1.281   1_565 A
O951   C711    1.281   1_655 A
O952   C1012   1.281   .     S
O953   C1013   1.281   .     S
O954   C1014   1.281   .     S
O955   C1015   1.281   .     A
O956   C1016   1.281   .     A
O957   C1013   1.281   .     A
O958   C1014   1.281   .     S
O959   C1015   1.281   .     A
O960   C1016   1.281   .     A
O961   C1017   1.282   .     A
O962   C1018   1.282   .     A
O963   C1019   1.282   .     A
O964   C1020   1.282   .     A
O965   C1021   1.282   .     A
O966   C1022   1.282   .     A
O967   C1023   1.282   .     A
O968   C1024   1.282   .     A
O969   C1025   1.282   .     A
O970   C1026   1.282   .     A
O971   C1027   1.282   .     A
O972   C1028   1.282   .     A
O973   C1029   1.282   .     A
O974   C1030   1.282   .     A
O975   C1031   1.282   .     A
O976   C1032   1.282   .     A
O977   C1027   1.282   .     A
O977   Zn604   1.936   1_655 S
O978   C1028   1.282   .     A
O979   C1025   1.282   .     A
O979   Zn306   1.936   1_565 S
O980   C1026   1.282   .     A
O981   C1031   1.282   .     A
O982   C1032   1.282   .     A
O982   Zn607   1.936   1_655 S
O983   C1029   1.282   .     A
O984   C1030   1.282   .     A
O984   Zn301   1.936   1_565 S
O985   C1019   1.282   .     A
O985   Zn603   1.936   1_655 S
O986   C1020   1.282   .     A
O987   C1017   1.282   .     A
O988   C1018   1.282   .     A
O988   Zn302   1.936   1_565 S
O989   C1023   1.282   .     A
O990   C1024   1.282   .     A
O990   Zn608   1.936   1_655 S
O991   C1021   1.282   .     A
O991   Zn305   1.936   1_565 S
O992   C1022   1.282   .     A
C993   N1153   1.436   .     S
C993   C1097   1.412   .     A
C993   C998    1.405   .     A
C994   C997    1.405   .     A
C994   C1098   1.412   .     A
C994   N1156   1.436   .     S
C995   C1000   1.404   .     A
C995   N1159   1.436   .     S
C995   C1099   1.412   .     A
C996   C999    1.405   .     A
C996   N1162   1.436   .     S
C996   C1100   1.412   .     A
C997   C1101   1.412   .     A
C997   N1165   1.436   .     S
C998   N1168   1.436   .     S
C998   C1102   1.412   .     A
C999   C1103   1.412   .     A
C999   N1171   1.436   .     S
C1000  N1174   1.436   .     S
C1000  C1104   1.412   .     A
C1001  N1177   1.436   .     S
C1001  C1105   1.412   .     A
C1001  C1006   1.404   1_556 S
C1002  N1180   1.436   .     S
C1002  C1106   1.412   .     A
C1002  C1005   1.404   1_554 S
C1003  C1107   1.412   .     A
C1003  N1183   1.436   .     S
C1003  C1008   1.405   1_556 S
C1004  N1186   1.436   .     S
C1004  C1108   1.412   .     A
C1004  C1007   1.405   1_554 S
C1005  N1189   1.436   .     S
C1005  C1109   1.412   .     A
C1005  C1002   1.404   1_556 S
C1006  C1110   1.412   .     A
C1006  N1192   1.436   .     S
C1006  C1001   1.404   1_554 S
C1007  N1195   1.436   .     S
C1007  C1111   1.412   .     A
C1007  C1004   1.405   1_556 S
C1008  C1112   1.412   .     A
C1008  N1198   1.436   .     S
C1008  C1003   1.405   1_554 S
C1017  C1131   1.455   .     S
C1018  C1132   1.455   .     S
C1019  C1133   1.455   .     S
C1020  C1134   1.455   .     S
C1021  C1135   1.455   .     S
C1022  C1136   1.455   .     S
C1023  C1129   1.455   .     S
C1024  C1130   1.455   .     S
C1025  C1139   1.455   .     S
C1026  C1140   1.455   .     S
C1027  C1141   1.455   .     S
C1028  C1142   1.455   .     S
C1029  C1143   1.455   .     S
C1030  C1144   1.455   .     S
C1031  C1137   1.455   .     S
C1032  C1138   1.455   .     S
C1033  C1144   1.402   .     A
C1033  H1065   1.083   .     S
C1033  C1048   1.386   .     A
C1034  C1047   1.386   .     A
C1034  H1066   1.083   .     S
C1034  C1143   1.402   .     A
C1035  C1046   1.386   .     A
C1035  H1067   1.083   .     S
C1035  C1142   1.402   .     A
C1036  C1141   1.402   .     A
C1036  C1045   1.386   .     A
C1036  H1068   1.083   .     S
C1037  C1044   1.386   .     A
C1037  H1069   1.083   .     S
C1037  C1140   1.402   .     A
C1038  C1043   1.386   .     A
C1038  C1139   1.402   .     A
C1038  H1070   1.083   .     S
C1039  C1042   1.386   .     A
C1039  H1071   1.083   .     S
C1039  C1138   1.402   .     A
C1040  C1041   1.386   .     A
C1040  C1137   1.402   .     A
C1040  H1072   1.083   .     S
C1041  H1073   1.083   .     S
C1041  C1136   1.402   .     A
C1042  C1135   1.402   .     A
C1042  H1074   1.083   .     S
C1043  H1075   1.083   .     S
C1043  C1134   1.402   .     A
C1044  C1133   1.402   .     A
C1044  H1076   1.083   .     S
C1045  C1132   1.402   .     A
C1045  H1077   1.083   .     S
C1046  H1078   1.083   .     S
C1046  C1131   1.402   .     A
C1047  H1079   1.083   .     S
C1047  C1130   1.402   .     A
C1048  H1080   1.083   .     S
C1048  C1129   1.402   .     A
C1049  C1130   1.402   .     A
C1049  C1064   1.386   .     A
C1049  H1081   1.083   .     S
C1050  C1063   1.386   .     A
C1050  H1082   1.083   .     S
C1050  C1129   1.402   .     A
C1051  H1083   1.083   .     S
C1051  C1062   1.386   .     A
C1051  C1132   1.402   .     A
C1052  C1131   1.402   .     A
C1052  C1061   1.386   .     A
C1052  H1084   1.083   .     S
C1053  C1134   1.402   .     A
C1053  C1060   1.386   .     A
C1053  H1085   1.083   .     S
C1054  H1086   1.083   .     S
C1054  C1059   1.386   .     A
C1054  C1133   1.402   .     A
C1055  C1058   1.386   .     A
C1055  H1087   1.083   .     S
C1055  C1136   1.402   .     A
C1056  C1135   1.402   .     A
C1056  H1088   1.083   .     S
C1056  C1057   1.386   .     A
C1057  C1138   1.402   .     A
C1057  H1089   1.083   .     S
C1058  H1090   1.083   .     S
C1058  C1137   1.402   .     A
C1059  C1140   1.402   .     A
C1059  H1091   1.083   .     S
C1060  C1139   1.402   .     A
C1060  H1092   1.083   .     S
C1061  H1093   1.083   .     S
C1061  C1142   1.402   .     A
C1062  C1141   1.402   .     A
C1062  H1094   1.083   .     S
C1063  H1095   1.083   .     S
C1063  C1144   1.402   .     A
C1064  C1143   1.402   .     A
C1064  H1096   1.083   .     S
C1097  C845    1.417   1_655 A
C1098  C1146   1.417   .     S
C1099  C1147   1.417   .     S
C1100  C548    1.417   1_565 A
C1101  C1145   1.417   .     S
C1102  C846    1.417   1_655 A
C1103  C547    1.417   1_565 A
C1104  C1148   1.417   .     S
C1105  C549    1.417   1_565 S
C1106  C1150   1.417   .     A
C1108  C1152   1.417   .     A
C1109  C1149   1.417   .     A
C1110  C550    1.417   1_565 S
C1111  C1151   1.417   .     A
H1121  C325    1.082   1_565 S
C1145  C1146   1.404   .     A
C1147  C1148   1.404   .     A
C1149  C1150   1.404   1_556 S
C1150  C1149   1.404   1_554 S
C1151  C807    1.417   1_655 S
C1151  C1152   1.404   1_556 S
C1152  C812    1.417   1_655 S
C1152  C1151   1.404   1_554 S
N1153  O1155   1.301   .     A
N1153  O1154   1.301   .     A
N1156  O1158   1.301   .     A
N1156  O1157   1.301   .     A
N1159  O1161   1.301   .     A
N1159  O1160   1.301   .     A
N1162  O1163   1.301   .     A
N1162  O1164   1.301   .     A
N1165  O1167   1.301   .     A
N1165  O1166   1.301   .     A
N1168  O1170   1.301   .     A
N1168  O1169   1.301   .     A
N1171  O1172   1.301   .     A
N1171  O1173   1.301   .     A
N1174  O1175   1.301   .     A
N1174  O1176   1.301   .     A
N1177  O1178   1.301   .     A
N1177  O579    1.301   1_565 S
N1180  O1182   1.301   .     A
O1181  N580    1.301   1_565 S
N1183  O1184   1.301   .     A
O1185  N883    1.301   1_655 S
N1186  O1188   1.301   .     A
N1186  O887    1.301   1_655 S
N1189  O1190   1.301   .     A
O1191  N589    1.301   1_565 S
N1192  O1194   1.301   .     A
N1192  O593    1.301   1_565 S
N1195  O1196   1.301   .     A
N1195  O897    1.301   1_655 S
N1198  O1200   1.301   .     A
O1199  N898    1.301   1_655 S
