data_str_m3_o1_o17_pcu_sym.87
_audit_creation_date              2020-01-03
_audit_creation_method            'Materials Studio'
_symmetry_space_group_name_H-M    'P1'
_symmetry_Int_Tables_number       1
_symmetry_cell_setting            triclinic
loop_
_symmetry_equiv_pos_as_xyz
  x,y,z
_cell_length_a                    32.1051
_cell_length_b                    29.5311
_cell_length_c                    29.8803
_cell_angle_alpha                 90.2148
_cell_angle_beta                  90.0135
_cell_angle_gamma                 90.0635
loop_
_atom_site_label
_atom_site_type_symbol
_atom_site_fract_x
_atom_site_fract_y
_atom_site_fract_z
_atom_site_U_iso_or_equiv
_atom_site_adp_type
_atom_site_occupancy
C1     C     0.08664   0.16665   0.24994   0.00000  Uiso   1.00
C2     C     0.04250   0.16662   0.24989   0.00000  Uiso   1.00
C3     C     0.19332   0.02412   0.27695   0.00000  Uiso   1.00
C4     C     0.14001   0.30921   0.22305   0.00000  Uiso   1.00
C5     C     0.14001   0.02384   0.22305   0.00000  Uiso   1.00
C6     C     0.19332   0.30949   0.27695   0.00000  Uiso   1.00
C7     C     0.16529   0.16658   0.16355   0.00000  Uiso   1.00
C8     C     0.16804   0.16676   0.33645   0.00000  Uiso   1.00
C9     C     0.20230   0.14494   0.40740   0.00000  Uiso   1.00
C10    C     0.13103   0.18839   0.09260   0.00000  Uiso   1.00
C11    C     0.16998   0.16707   0.38411   0.00000  Uiso   1.00
C12    C     0.24670   0.16669   0.25006   0.00000  Uiso   1.00
C13    C     0.16335   0.16626   0.11589   0.00000  Uiso   1.00
C14    C     0.13821   0.18996   0.40626   0.00000  Uiso   1.00
C15    C     0.19513   0.14337   0.09374   0.00000  Uiso   1.00
C16    C     0.13677   0.19012   0.45238   0.00000  Uiso   1.00
C17    C     0.19656   0.14321   0.04762   0.00000  Uiso   1.00
C18    C     0.16764   0.16685   0.47664   0.00000  Uiso   1.00
C19    C     0.16569   0.16649   0.02336   0.00000  Uiso   1.00
C20    C     0.20047   0.14404   0.45424   0.00000  Uiso   1.00
C21    C     0.13286   0.18929   0.04576   0.00000  Uiso   1.00
C22    C     0.10459   0.21284   0.47443   0.00000  Uiso   1.00
C23    C     0.10263   0.21252   0.02077   0.00000  Uiso   1.00
C24    C     0.22874   0.12049   0.02557   0.00000  Uiso   1.00
C25    C     0.23070   0.12081   0.47923   0.00000  Uiso   1.00
C26    C     0.02130   0.12744   0.26272   0.00000  Uiso   1.00
C27    C     0.31204   0.20589   0.23728   0.00000  Uiso   1.00
C28    C     0.31195   0.12750   0.26286   0.00000  Uiso   1.00
C29    C     0.02138   0.20584   0.23714   0.00000  Uiso   1.00
C30    C     0.29084   0.16671   0.25011   0.00000  Uiso   1.00
H31    H     0.11407   0.20705   0.38727   0.00000  Uiso   1.00
H32    H     0.03775   0.23615   0.22675   0.00000  Uiso   1.00
H33    H     0.21463   0.04240   0.29850   0.00000  Uiso   1.00
H34    H     0.11870   0.29093   0.20150   0.00000  Uiso   1.00
H35    H     0.11870   0.04190   0.20150   0.00000  Uiso   1.00
H36    H     0.21463   0.29143   0.29850   0.00000  Uiso   1.00
H37    H     0.23568   0.12749   0.35002   0.00000  Uiso   1.00
H38    H     0.26395   0.14314   0.39381   0.00000  Uiso   1.00
H39    H     0.09765   0.20585   0.14998   0.00000  Uiso   1.00
H40    H     0.06939   0.19020   0.10619   0.00000  Uiso   1.00
H41    H     0.21927   0.12628   0.11273   0.00000  Uiso   1.00
H42    H     0.08088   0.23085   0.45581   0.00000  Uiso   1.00
H43    H     0.25246   0.10248   0.04419   0.00000  Uiso   1.00
H44    H     0.07742   0.23074   0.03675   0.00000  Uiso   1.00
H45    H     0.25592   0.10259   0.46325   0.00000  Uiso   1.00
H46    H     0.03760   0.09709   0.27300   0.00000  Uiso   1.00
H47    H     0.29574   0.23624   0.22700   0.00000  Uiso   1.00
H48    H     0.29559   0.09718   0.27325   0.00000  Uiso   1.00
N49    N     0.16667   0.28573   0.25000   0.00000  Uiso   1.00
N50    N     0.16667   0.04760   0.25000   0.00000  Uiso   1.00
N51    N     0.23744   0.12467   0.38470   0.00000  Uiso   1.00
N52    N     0.09590   0.20866   0.11530   0.00000  Uiso   1.00
O53    O     0.10559   0.20487   0.25000   0.00000  Uiso   1.00
O54    O     0.22774   0.12846   0.25001   0.00000  Uiso   1.00
O55    O     0.22774   0.20487   0.25001   0.00000  Uiso   1.00
O56    O     0.10559   0.12846   0.25000   0.00000  Uiso   1.00
O57    O     0.16666   0.20489   0.18393   0.00000  Uiso   1.00
O58    O     0.16667   0.12844   0.31608   0.00000  Uiso   1.00
O59    O     0.16667   0.20489   0.31608   0.00000  Uiso   1.00
O60    O     0.16666   0.12844   0.18393   0.00000  Uiso   1.00
Zn61   Zn    0.16667   0.21771   0.25000   0.00000  Uiso   1.00
Zn62   Zn    0.16667   0.11563   0.25000   0.00000  Uiso   1.00
C63    C     0.41997   0.16665   0.24994   0.00000  Uiso   1.00
C64    C     0.37583   0.16662   0.24989   0.00000  Uiso   1.00
C65    C     0.52665   0.02412   0.27695   0.00000  Uiso   1.00
C66    C     0.47334   0.30921   0.22305   0.00000  Uiso   1.00
C67    C     0.47335   0.02384   0.22305   0.00000  Uiso   1.00
C68    C     0.52665   0.30949   0.27695   0.00000  Uiso   1.00
C69    C     0.49863   0.16658   0.16355   0.00000  Uiso   1.00
C70    C     0.50137   0.16676   0.33645   0.00000  Uiso   1.00
C71    C     0.53564   0.14494   0.40740   0.00000  Uiso   1.00
C72    C     0.46436   0.18839   0.09260   0.00000  Uiso   1.00
C73    C     0.50332   0.16707   0.38411   0.00000  Uiso   1.00
C74    C     0.58003   0.16669   0.25006   0.00000  Uiso   1.00
C75    C     0.49668   0.16626   0.11589   0.00000  Uiso   1.00
C76    C     0.47154   0.18996   0.40626   0.00000  Uiso   1.00
C77    C     0.52846   0.14337   0.09374   0.00000  Uiso   1.00
C78    C     0.47011   0.19012   0.45238   0.00000  Uiso   1.00
C79    C     0.52989   0.14321   0.04762   0.00000  Uiso   1.00
C80    C     0.50098   0.16685   0.47664   0.00000  Uiso   1.00
C81    C     0.49902   0.16649   0.02336   0.00000  Uiso   1.00
C82    C     0.53380   0.14404   0.45424   0.00000  Uiso   1.00
C83    C     0.46620   0.18929   0.04576   0.00000  Uiso   1.00
C84    C     0.43793   0.21284   0.47443   0.00000  Uiso   1.00
C85    C     0.43596   0.21252   0.02077   0.00000  Uiso   1.00
C86    C     0.56207   0.12049   0.02557   0.00000  Uiso   1.00
C87    C     0.56404   0.12081   0.47923   0.00000  Uiso   1.00
C88    C     0.35463   0.12744   0.26272   0.00000  Uiso   1.00
C89    C     0.64537   0.20589   0.23728   0.00000  Uiso   1.00
C90    C     0.64528   0.12750   0.26286   0.00000  Uiso   1.00
C91    C     0.35471   0.20584   0.23714   0.00000  Uiso   1.00
C92    C     0.62417   0.16671   0.25011   0.00000  Uiso   1.00
H93    H     0.44740   0.20705   0.38727   0.00000  Uiso   1.00
H94    H     0.37108   0.23615   0.22675   0.00000  Uiso   1.00
H95    H     0.54796   0.04240   0.29850   0.00000  Uiso   1.00
H96    H     0.45204   0.29093   0.20150   0.00000  Uiso   1.00
H97    H     0.45204   0.04190   0.20150   0.00000  Uiso   1.00
H98    H     0.54796   0.29143   0.29850   0.00000  Uiso   1.00
H99    H     0.56902   0.12749   0.35002   0.00000  Uiso   1.00
H100   H     0.59728   0.14314   0.39381   0.00000  Uiso   1.00
H101   H     0.43098   0.20585   0.14998   0.00000  Uiso   1.00
H102   H     0.40272   0.19020   0.10619   0.00000  Uiso   1.00
H103   H     0.55260   0.12628   0.11273   0.00000  Uiso   1.00
H104   H     0.41421   0.23085   0.45581   0.00000  Uiso   1.00
H105   H     0.58579   0.10248   0.04419   0.00000  Uiso   1.00
H106   H     0.41075   0.23074   0.03675   0.00000  Uiso   1.00
H107   H     0.58925   0.10259   0.46325   0.00000  Uiso   1.00
H108   H     0.37093   0.09709   0.27300   0.00000  Uiso   1.00
H109   H     0.62907   0.23624   0.22700   0.00000  Uiso   1.00
H110   H     0.62892   0.09718   0.27325   0.00000  Uiso   1.00
N111   N     0.50000   0.28573   0.25000   0.00000  Uiso   1.00
N112   N     0.50000   0.04760   0.25000   0.00000  Uiso   1.00
N113   N     0.57077   0.12467   0.38470   0.00000  Uiso   1.00
N114   N     0.42923   0.20866   0.11530   0.00000  Uiso   1.00
O115   O     0.43892   0.20487   0.25000   0.00000  Uiso   1.00
O116   O     0.56108   0.12846   0.25001   0.00000  Uiso   1.00
O117   O     0.56108   0.20487   0.25001   0.00000  Uiso   1.00
O118   O     0.43892   0.12846   0.25000   0.00000  Uiso   1.00
O119   O     0.49999   0.20489   0.18393   0.00000  Uiso   1.00
O120   O     0.50001   0.12844   0.31608   0.00000  Uiso   1.00
O121   O     0.50001   0.20489   0.31608   0.00000  Uiso   1.00
O122   O     0.49999   0.12844   0.18393   0.00000  Uiso   1.00
Zn123  Zn    0.50000   0.21771   0.25000   0.00000  Uiso   1.00
Zn124  Zn    0.50000   0.11563   0.25000   0.00000  Uiso   1.00
C125   C     0.75330   0.16665   0.24994   0.00000  Uiso   1.00
C126   C     0.70916   0.16662   0.24989   0.00000  Uiso   1.00
C127   C     0.85999   0.02412   0.27695   0.00000  Uiso   1.00
C128   C     0.80668   0.30921   0.22305   0.00000  Uiso   1.00
C129   C     0.80668   0.02384   0.22305   0.00000  Uiso   1.00
C130   C     0.85999   0.30949   0.27695   0.00000  Uiso   1.00
C131   C     0.83196   0.16658   0.16355   0.00000  Uiso   1.00
C132   C     0.83471   0.16676   0.33645   0.00000  Uiso   1.00
C133   C     0.86897   0.14494   0.40740   0.00000  Uiso   1.00
C134   C     0.79770   0.18839   0.09260   0.00000  Uiso   1.00
C135   C     0.83665   0.16707   0.38411   0.00000  Uiso   1.00
C136   C     0.91336   0.16669   0.25006   0.00000  Uiso   1.00
C137   C     0.83002   0.16626   0.11589   0.00000  Uiso   1.00
C138   C     0.80487   0.18996   0.40626   0.00000  Uiso   1.00
C139   C     0.86179   0.14337   0.09374   0.00000  Uiso   1.00
C140   C     0.80344   0.19012   0.45238   0.00000  Uiso   1.00
C141   C     0.86322   0.14321   0.04762   0.00000  Uiso   1.00
C142   C     0.83431   0.16685   0.47664   0.00000  Uiso   1.00
C143   C     0.83236   0.16649   0.02336   0.00000  Uiso   1.00
C144   C     0.86714   0.14404   0.45424   0.00000  Uiso   1.00
C145   C     0.79953   0.18929   0.04576   0.00000  Uiso   1.00
C146   C     0.77126   0.21284   0.47443   0.00000  Uiso   1.00
C147   C     0.76930   0.21252   0.02077   0.00000  Uiso   1.00
C148   C     0.89540   0.12049   0.02557   0.00000  Uiso   1.00
C149   C     0.89737   0.12081   0.47923   0.00000  Uiso   1.00
C150   C     0.68796   0.12744   0.26272   0.00000  Uiso   1.00
C151   C     0.97870   0.20589   0.23728   0.00000  Uiso   1.00
C152   C     0.97862   0.12750   0.26286   0.00000  Uiso   1.00
C153   C     0.68805   0.20584   0.23714   0.00000  Uiso   1.00
C154   C     0.95750   0.16671   0.25011   0.00000  Uiso   1.00
H155   H     0.78073   0.20705   0.38727   0.00000  Uiso   1.00
H156   H     0.70441   0.23615   0.22675   0.00000  Uiso   1.00
H157   H     0.88130   0.04240   0.29850   0.00000  Uiso   1.00
H158   H     0.78537   0.29093   0.20150   0.00000  Uiso   1.00
H159   H     0.78537   0.04190   0.20150   0.00000  Uiso   1.00
H160   H     0.88130   0.29143   0.29850   0.00000  Uiso   1.00
H161   H     0.90235   0.12749   0.35002   0.00000  Uiso   1.00
H162   H     0.93061   0.14314   0.39381   0.00000  Uiso   1.00
H163   H     0.76432   0.20585   0.14998   0.00000  Uiso   1.00
H164   H     0.73605   0.19020   0.10619   0.00000  Uiso   1.00
H165   H     0.88593   0.12628   0.11273   0.00000  Uiso   1.00
H166   H     0.74754   0.23085   0.45581   0.00000  Uiso   1.00
H167   H     0.91912   0.10248   0.04419   0.00000  Uiso   1.00
H168   H     0.74408   0.23074   0.03675   0.00000  Uiso   1.00
H169   H     0.92258   0.10259   0.46325   0.00000  Uiso   1.00
H170   H     0.70426   0.09709   0.27300   0.00000  Uiso   1.00
H171   H     0.96240   0.23624   0.22700   0.00000  Uiso   1.00
H172   H     0.96225   0.09718   0.27325   0.00000  Uiso   1.00
N173   N     0.83333   0.28573   0.25000   0.00000  Uiso   1.00
N174   N     0.83333   0.04760   0.25000   0.00000  Uiso   1.00
N175   N     0.90410   0.12467   0.38470   0.00000  Uiso   1.00
N176   N     0.76256   0.20866   0.11530   0.00000  Uiso   1.00
O177   O     0.77226   0.20487   0.25000   0.00000  Uiso   1.00
O178   O     0.89441   0.12846   0.25001   0.00000  Uiso   1.00
O179   O     0.89441   0.20487   0.25001   0.00000  Uiso   1.00
O180   O     0.77226   0.12846   0.25000   0.00000  Uiso   1.00
O181   O     0.83333   0.20489   0.18393   0.00000  Uiso   1.00
O182   O     0.83334   0.12844   0.31608   0.00000  Uiso   1.00
O183   O     0.83334   0.20489   0.31608   0.00000  Uiso   1.00
O184   O     0.83333   0.12844   0.18393   0.00000  Uiso   1.00
Zn185  Zn    0.83333   0.21771   0.25000   0.00000  Uiso   1.00
Zn186  Zn    0.83333   0.11563   0.25000   0.00000  Uiso   1.00
C187   C     0.08664   0.49998   0.24994   0.00000  Uiso   1.00
C188   C     0.04250   0.49996   0.24989   0.00000  Uiso   1.00
C189   C     0.19332   0.35745   0.27695   0.00000  Uiso   1.00
C190   C     0.14001   0.64255   0.22305   0.00000  Uiso   1.00
C191   C     0.14001   0.35718   0.22305   0.00000  Uiso   1.00
C192   C     0.19332   0.64282   0.27695   0.00000  Uiso   1.00
C193   C     0.16529   0.49991   0.16355   0.00000  Uiso   1.00
C194   C     0.16804   0.50009   0.33645   0.00000  Uiso   1.00
C195   C     0.20230   0.47828   0.40740   0.00000  Uiso   1.00
C196   C     0.13103   0.52172   0.09260   0.00000  Uiso   1.00
C197   C     0.16998   0.50041   0.38411   0.00000  Uiso   1.00
C198   C     0.24670   0.50002   0.25006   0.00000  Uiso   1.00
C199   C     0.16335   0.49959   0.11589   0.00000  Uiso   1.00
C200   C     0.13821   0.52329   0.40626   0.00000  Uiso   1.00
C201   C     0.19513   0.47670   0.09374   0.00000  Uiso   1.00
C202   C     0.13677   0.52345   0.45238   0.00000  Uiso   1.00
C203   C     0.19656   0.47655   0.04762   0.00000  Uiso   1.00
C204   C     0.16764   0.50018   0.47664   0.00000  Uiso   1.00
C205   C     0.16569   0.49982   0.02336   0.00000  Uiso   1.00
C206   C     0.20047   0.47738   0.45424   0.00000  Uiso   1.00
C207   C     0.13286   0.52262   0.04576   0.00000  Uiso   1.00
C208   C     0.10459   0.54618   0.47443   0.00000  Uiso   1.00
C209   C     0.10263   0.54585   0.02077   0.00000  Uiso   1.00
C210   C     0.22874   0.45382   0.02557   0.00000  Uiso   1.00
C211   C     0.23070   0.45414   0.47923   0.00000  Uiso   1.00
C212   C     0.02130   0.46078   0.26272   0.00000  Uiso   1.00
C213   C     0.31204   0.53922   0.23728   0.00000  Uiso   1.00
C214   C     0.31195   0.46083   0.26286   0.00000  Uiso   1.00
C215   C     0.02138   0.53917   0.23714   0.00000  Uiso   1.00
C216   C     0.29084   0.50004   0.25011   0.00000  Uiso   1.00
H217   H     0.11407   0.54038   0.38727   0.00000  Uiso   1.00
H218   H     0.03775   0.56948   0.22675   0.00000  Uiso   1.00
H219   H     0.21463   0.37574   0.29850   0.00000  Uiso   1.00
H220   H     0.11870   0.62426   0.20150   0.00000  Uiso   1.00
H221   H     0.11870   0.37524   0.20150   0.00000  Uiso   1.00
H222   H     0.21463   0.62476   0.29850   0.00000  Uiso   1.00
H223   H     0.23568   0.46082   0.35002   0.00000  Uiso   1.00
H224   H     0.26395   0.47647   0.39381   0.00000  Uiso   1.00
H225   H     0.09765   0.53918   0.14998   0.00000  Uiso   1.00
H226   H     0.06939   0.52353   0.10619   0.00000  Uiso   1.00
H227   H     0.21927   0.45962   0.11273   0.00000  Uiso   1.00
H228   H     0.08088   0.56418   0.45581   0.00000  Uiso   1.00
H229   H     0.25246   0.43582   0.04419   0.00000  Uiso   1.00
H230   H     0.07742   0.56407   0.03675   0.00000  Uiso   1.00
H231   H     0.25592   0.43592   0.46325   0.00000  Uiso   1.00
H232   H     0.03760   0.43043   0.27300   0.00000  Uiso   1.00
H233   H     0.29574   0.56957   0.22700   0.00000  Uiso   1.00
H234   H     0.29559   0.43052   0.27325   0.00000  Uiso   1.00
N235   N     0.16667   0.61907   0.25000   0.00000  Uiso   1.00
N236   N     0.16667   0.38093   0.25000   0.00000  Uiso   1.00
N237   N     0.23744   0.45800   0.38470   0.00000  Uiso   1.00
N238   N     0.09590   0.54200   0.11530   0.00000  Uiso   1.00
O239   O     0.10559   0.53821   0.25000   0.00000  Uiso   1.00
O240   O     0.22774   0.46179   0.25001   0.00000  Uiso   1.00
O241   O     0.22774   0.53821   0.25001   0.00000  Uiso   1.00
O242   O     0.10559   0.46179   0.25000   0.00000  Uiso   1.00
O243   O     0.16666   0.53823   0.18393   0.00000  Uiso   1.00
O244   O     0.16667   0.46177   0.31608   0.00000  Uiso   1.00
O245   O     0.16667   0.53823   0.31608   0.00000  Uiso   1.00
O246   O     0.16666   0.46177   0.18393   0.00000  Uiso   1.00
Zn247  Zn    0.16667   0.55104   0.25000   0.00000  Uiso   1.00
Zn248  Zn    0.16667   0.44896   0.25000   0.00000  Uiso   1.00
C249   C     0.41997   0.49998   0.24994   0.00000  Uiso   1.00
C250   C     0.37583   0.49996   0.24989   0.00000  Uiso   1.00
C251   C     0.52665   0.35745   0.27695   0.00000  Uiso   1.00
C252   C     0.47334   0.64255   0.22305   0.00000  Uiso   1.00
C253   C     0.47335   0.35718   0.22305   0.00000  Uiso   1.00
C254   C     0.52665   0.64282   0.27695   0.00000  Uiso   1.00
C255   C     0.49863   0.49991   0.16355   0.00000  Uiso   1.00
C256   C     0.50137   0.50009   0.33645   0.00000  Uiso   1.00
C257   C     0.53564   0.47828   0.40740   0.00000  Uiso   1.00
C258   C     0.46436   0.52172   0.09260   0.00000  Uiso   1.00
C259   C     0.50332   0.50041   0.38411   0.00000  Uiso   1.00
C260   C     0.58003   0.50002   0.25006   0.00000  Uiso   1.00
C261   C     0.49668   0.49959   0.11589   0.00000  Uiso   1.00
C262   C     0.47154   0.52329   0.40626   0.00000  Uiso   1.00
C263   C     0.52846   0.47670   0.09374   0.00000  Uiso   1.00
C264   C     0.47011   0.52345   0.45238   0.00000  Uiso   1.00
C265   C     0.52989   0.47655   0.04762   0.00000  Uiso   1.00
C266   C     0.50098   0.50018   0.47664   0.00000  Uiso   1.00
C267   C     0.49902   0.49982   0.02336   0.00000  Uiso   1.00
C268   C     0.53380   0.47738   0.45424   0.00000  Uiso   1.00
C269   C     0.46620   0.52262   0.04576   0.00000  Uiso   1.00
C270   C     0.43793   0.54618   0.47443   0.00000  Uiso   1.00
C271   C     0.43596   0.54585   0.02077   0.00000  Uiso   1.00
C272   C     0.56207   0.45382   0.02557   0.00000  Uiso   1.00
C273   C     0.56404   0.45414   0.47923   0.00000  Uiso   1.00
C274   C     0.35463   0.46078   0.26272   0.00000  Uiso   1.00
C275   C     0.64537   0.53922   0.23728   0.00000  Uiso   1.00
C276   C     0.64528   0.46083   0.26286   0.00000  Uiso   1.00
C277   C     0.35471   0.53917   0.23714   0.00000  Uiso   1.00
C278   C     0.62417   0.50004   0.25011   0.00000  Uiso   1.00
H279   H     0.44740   0.54038   0.38727   0.00000  Uiso   1.00
H280   H     0.37108   0.56948   0.22675   0.00000  Uiso   1.00
H281   H     0.54796   0.37574   0.29850   0.00000  Uiso   1.00
H282   H     0.45204   0.62426   0.20150   0.00000  Uiso   1.00
H283   H     0.45204   0.37524   0.20150   0.00000  Uiso   1.00
H284   H     0.54796   0.62476   0.29850   0.00000  Uiso   1.00
H285   H     0.56902   0.46082   0.35002   0.00000  Uiso   1.00
H286   H     0.59728   0.47647   0.39381   0.00000  Uiso   1.00
H287   H     0.43098   0.53918   0.14998   0.00000  Uiso   1.00
H288   H     0.40272   0.52353   0.10619   0.00000  Uiso   1.00
H289   H     0.55260   0.45962   0.11273   0.00000  Uiso   1.00
H290   H     0.41421   0.56418   0.45581   0.00000  Uiso   1.00
H291   H     0.58579   0.43582   0.04419   0.00000  Uiso   1.00
H292   H     0.41075   0.56407   0.03675   0.00000  Uiso   1.00
H293   H     0.58925   0.43592   0.46325   0.00000  Uiso   1.00
H294   H     0.37093   0.43043   0.27300   0.00000  Uiso   1.00
H295   H     0.62907   0.56957   0.22700   0.00000  Uiso   1.00
H296   H     0.62892   0.43052   0.27325   0.00000  Uiso   1.00
N297   N     0.50000   0.61907   0.25000   0.00000  Uiso   1.00
N298   N     0.50000   0.38093   0.25000   0.00000  Uiso   1.00
N299   N     0.57077   0.45800   0.38470   0.00000  Uiso   1.00
N300   N     0.42923   0.54200   0.11530   0.00000  Uiso   1.00
O301   O     0.43892   0.53821   0.25000   0.00000  Uiso   1.00
O302   O     0.56108   0.46179   0.25001   0.00000  Uiso   1.00
O303   O     0.56108   0.53821   0.25001   0.00000  Uiso   1.00
O304   O     0.43892   0.46179   0.25000   0.00000  Uiso   1.00
O305   O     0.49999   0.53823   0.18393   0.00000  Uiso   1.00
O306   O     0.50001   0.46177   0.31608   0.00000  Uiso   1.00
O307   O     0.50001   0.53823   0.31608   0.00000  Uiso   1.00
O308   O     0.49999   0.46177   0.18393   0.00000  Uiso   1.00
Zn309  Zn    0.50000   0.55104   0.25000   0.00000  Uiso   1.00
Zn310  Zn    0.50000   0.44896   0.25000   0.00000  Uiso   1.00
C311   C     0.75330   0.49998   0.24994   0.00000  Uiso   1.00
C312   C     0.70916   0.49996   0.24989   0.00000  Uiso   1.00
C313   C     0.85999   0.35745   0.27695   0.00000  Uiso   1.00
C314   C     0.80668   0.64255   0.22305   0.00000  Uiso   1.00
C315   C     0.80668   0.35718   0.22305   0.00000  Uiso   1.00
C316   C     0.85999   0.64282   0.27695   0.00000  Uiso   1.00
C317   C     0.83196   0.49991   0.16355   0.00000  Uiso   1.00
C318   C     0.83471   0.50009   0.33645   0.00000  Uiso   1.00
C319   C     0.86897   0.47828   0.40740   0.00000  Uiso   1.00
C320   C     0.79770   0.52172   0.09260   0.00000  Uiso   1.00
C321   C     0.83665   0.50041   0.38411   0.00000  Uiso   1.00
C322   C     0.91336   0.50002   0.25006   0.00000  Uiso   1.00
C323   C     0.83002   0.49959   0.11589   0.00000  Uiso   1.00
C324   C     0.80487   0.52329   0.40626   0.00000  Uiso   1.00
C325   C     0.86179   0.47670   0.09374   0.00000  Uiso   1.00
C326   C     0.80344   0.52345   0.45238   0.00000  Uiso   1.00
C327   C     0.86322   0.47655   0.04762   0.00000  Uiso   1.00
C328   C     0.83431   0.50018   0.47664   0.00000  Uiso   1.00
C329   C     0.83236   0.49982   0.02336   0.00000  Uiso   1.00
C330   C     0.86714   0.47738   0.45424   0.00000  Uiso   1.00
C331   C     0.79953   0.52262   0.04576   0.00000  Uiso   1.00
C332   C     0.77126   0.54618   0.47443   0.00000  Uiso   1.00
C333   C     0.76930   0.54585   0.02077   0.00000  Uiso   1.00
C334   C     0.89540   0.45382   0.02557   0.00000  Uiso   1.00
C335   C     0.89737   0.45414   0.47923   0.00000  Uiso   1.00
C336   C     0.68796   0.46078   0.26272   0.00000  Uiso   1.00
C337   C     0.97870   0.53922   0.23728   0.00000  Uiso   1.00
C338   C     0.97862   0.46083   0.26286   0.00000  Uiso   1.00
C339   C     0.68805   0.53917   0.23714   0.00000  Uiso   1.00
C340   C     0.95750   0.50004   0.25011   0.00000  Uiso   1.00
H341   H     0.78073   0.54038   0.38727   0.00000  Uiso   1.00
H342   H     0.70441   0.56948   0.22675   0.00000  Uiso   1.00
H343   H     0.88130   0.37574   0.29850   0.00000  Uiso   1.00
H344   H     0.78537   0.62426   0.20150   0.00000  Uiso   1.00
H345   H     0.78537   0.37524   0.20150   0.00000  Uiso   1.00
H346   H     0.88130   0.62476   0.29850   0.00000  Uiso   1.00
H347   H     0.90235   0.46082   0.35002   0.00000  Uiso   1.00
H348   H     0.93061   0.47647   0.39381   0.00000  Uiso   1.00
H349   H     0.76432   0.53918   0.14998   0.00000  Uiso   1.00
H350   H     0.73605   0.52353   0.10619   0.00000  Uiso   1.00
H351   H     0.88593   0.45962   0.11273   0.00000  Uiso   1.00
H352   H     0.74754   0.56418   0.45581   0.00000  Uiso   1.00
H353   H     0.91912   0.43582   0.04419   0.00000  Uiso   1.00
H354   H     0.74408   0.56407   0.03675   0.00000  Uiso   1.00
H355   H     0.92258   0.43592   0.46325   0.00000  Uiso   1.00
H356   H     0.70426   0.43043   0.27300   0.00000  Uiso   1.00
H357   H     0.96240   0.56957   0.22700   0.00000  Uiso   1.00
H358   H     0.96225   0.43052   0.27325   0.00000  Uiso   1.00
N359   N     0.83333   0.61907   0.25000   0.00000  Uiso   1.00
N360   N     0.83333   0.38093   0.25000   0.00000  Uiso   1.00
N361   N     0.90410   0.45800   0.38470   0.00000  Uiso   1.00
N362   N     0.76256   0.54200   0.11530   0.00000  Uiso   1.00
O363   O     0.77226   0.53821   0.25000   0.00000  Uiso   1.00
O364   O     0.89441   0.46179   0.25001   0.00000  Uiso   1.00
O365   O     0.89441   0.53821   0.25001   0.00000  Uiso   1.00
O366   O     0.77226   0.46179   0.25000   0.00000  Uiso   1.00
O367   O     0.83333   0.53823   0.18393   0.00000  Uiso   1.00
O368   O     0.83334   0.46177   0.31608   0.00000  Uiso   1.00
O369   O     0.83334   0.53823   0.31608   0.00000  Uiso   1.00
O370   O     0.83333   0.46177   0.18393   0.00000  Uiso   1.00
Zn371  Zn    0.83333   0.55104   0.25000   0.00000  Uiso   1.00
Zn372  Zn    0.83333   0.44896   0.25000   0.00000  Uiso   1.00
C373   C     0.08664   0.83331   0.24994   0.00000  Uiso   1.00
C374   C     0.04250   0.83329   0.24989   0.00000  Uiso   1.00
C375   C     0.19332   0.69079   0.27695   0.00000  Uiso   1.00
C376   C     0.14001   0.97588   0.22305   0.00000  Uiso   1.00
C377   C     0.14001   0.69051   0.22305   0.00000  Uiso   1.00
C378   C     0.19332   0.97616   0.27695   0.00000  Uiso   1.00
C379   C     0.16529   0.83324   0.16355   0.00000  Uiso   1.00
C380   C     0.16804   0.83342   0.33645   0.00000  Uiso   1.00
C381   C     0.20230   0.81161   0.40740   0.00000  Uiso   1.00
C382   C     0.13103   0.85506   0.09260   0.00000  Uiso   1.00
C383   C     0.16998   0.83374   0.38411   0.00000  Uiso   1.00
C384   C     0.24670   0.83335   0.25006   0.00000  Uiso   1.00
C385   C     0.16335   0.83293   0.11589   0.00000  Uiso   1.00
C386   C     0.13821   0.85663   0.40626   0.00000  Uiso   1.00
C387   C     0.19513   0.81004   0.09374   0.00000  Uiso   1.00
C388   C     0.13677   0.85679   0.45238   0.00000  Uiso   1.00
C389   C     0.19656   0.80988   0.04762   0.00000  Uiso   1.00
C390   C     0.16764   0.83351   0.47664   0.00000  Uiso   1.00
C391   C     0.16569   0.83315   0.02336   0.00000  Uiso   1.00
C392   C     0.20047   0.81071   0.45424   0.00000  Uiso   1.00
C393   C     0.13286   0.85595   0.04576   0.00000  Uiso   1.00
C394   C     0.10459   0.87951   0.47443   0.00000  Uiso   1.00
C395   C     0.10263   0.87919   0.02077   0.00000  Uiso   1.00
C396   C     0.22874   0.78716   0.02557   0.00000  Uiso   1.00
C397   C     0.23070   0.78748   0.47923   0.00000  Uiso   1.00
C398   C     0.02130   0.79411   0.26272   0.00000  Uiso   1.00
C399   C     0.31204   0.87256   0.23728   0.00000  Uiso   1.00
C400   C     0.31195   0.79416   0.26286   0.00000  Uiso   1.00
C401   C     0.02138   0.87250   0.23714   0.00000  Uiso   1.00
C402   C     0.29084   0.83338   0.25011   0.00000  Uiso   1.00
H403   H     0.11407   0.87372   0.38727   0.00000  Uiso   1.00
H404   H     0.03775   0.90282   0.22675   0.00000  Uiso   1.00
H405   H     0.21463   0.70907   0.29850   0.00000  Uiso   1.00
H406   H     0.11870   0.95759   0.20150   0.00000  Uiso   1.00
H407   H     0.11870   0.70857   0.20150   0.00000  Uiso   1.00
H408   H     0.21463   0.95810   0.29850   0.00000  Uiso   1.00
H409   H     0.23568   0.79415   0.35002   0.00000  Uiso   1.00
H410   H     0.26395   0.80980   0.39381   0.00000  Uiso   1.00
H411   H     0.09765   0.87251   0.14998   0.00000  Uiso   1.00
H412   H     0.06939   0.85686   0.10619   0.00000  Uiso   1.00
H413   H     0.21927   0.79295   0.11273   0.00000  Uiso   1.00
H414   H     0.08088   0.89751   0.45581   0.00000  Uiso   1.00
H415   H     0.25246   0.76915   0.04419   0.00000  Uiso   1.00
H416   H     0.07742   0.89741   0.03675   0.00000  Uiso   1.00
H417   H     0.25592   0.76926   0.46325   0.00000  Uiso   1.00
H418   H     0.03760   0.76376   0.27300   0.00000  Uiso   1.00
H419   H     0.29574   0.90291   0.22700   0.00000  Uiso   1.00
H420   H     0.29559   0.76385   0.27325   0.00000  Uiso   1.00
N421   N     0.16667   0.95240   0.25000   0.00000  Uiso   1.00
N422   N     0.16667   0.71427   0.25000   0.00000  Uiso   1.00
N423   N     0.23744   0.79134   0.38470   0.00000  Uiso   1.00
N424   N     0.09590   0.87533   0.11530   0.00000  Uiso   1.00
O425   O     0.10559   0.87154   0.25000   0.00000  Uiso   1.00
O426   O     0.22774   0.79513   0.25001   0.00000  Uiso   1.00
O427   O     0.22774   0.87154   0.25001   0.00000  Uiso   1.00
O428   O     0.10559   0.79513   0.25000   0.00000  Uiso   1.00
O429   O     0.16666   0.87156   0.18393   0.00000  Uiso   1.00
O430   O     0.16667   0.79511   0.31608   0.00000  Uiso   1.00
O431   O     0.16667   0.87156   0.31608   0.00000  Uiso   1.00
O432   O     0.16666   0.79511   0.18393   0.00000  Uiso   1.00
Zn433  Zn    0.16667   0.88437   0.25000   0.00000  Uiso   1.00
Zn434  Zn    0.16667   0.78229   0.25000   0.00000  Uiso   1.00
C435   C     0.41997   0.83331   0.24994   0.00000  Uiso   1.00
C436   C     0.37583   0.83329   0.24989   0.00000  Uiso   1.00
C437   C     0.52665   0.69079   0.27695   0.00000  Uiso   1.00
C438   C     0.47334   0.97588   0.22305   0.00000  Uiso   1.00
C439   C     0.47335   0.69051   0.22305   0.00000  Uiso   1.00
C440   C     0.52665   0.97616   0.27695   0.00000  Uiso   1.00
C441   C     0.49863   0.83324   0.16355   0.00000  Uiso   1.00
C442   C     0.50137   0.83342   0.33645   0.00000  Uiso   1.00
C443   C     0.53564   0.81161   0.40740   0.00000  Uiso   1.00
C444   C     0.46436   0.85506   0.09260   0.00000  Uiso   1.00
C445   C     0.50332   0.83374   0.38411   0.00000  Uiso   1.00
C446   C     0.58003   0.83335   0.25006   0.00000  Uiso   1.00
C447   C     0.49668   0.83293   0.11589   0.00000  Uiso   1.00
C448   C     0.47154   0.85663   0.40626   0.00000  Uiso   1.00
C449   C     0.52846   0.81004   0.09374   0.00000  Uiso   1.00
C450   C     0.47011   0.85679   0.45238   0.00000  Uiso   1.00
C451   C     0.52989   0.80988   0.04762   0.00000  Uiso   1.00
C452   C     0.50098   0.83351   0.47664   0.00000  Uiso   1.00
C453   C     0.49902   0.83315   0.02336   0.00000  Uiso   1.00
C454   C     0.53380   0.81071   0.45424   0.00000  Uiso   1.00
C455   C     0.46620   0.85595   0.04576   0.00000  Uiso   1.00
C456   C     0.43793   0.87951   0.47443   0.00000  Uiso   1.00
C457   C     0.43596   0.87919   0.02077   0.00000  Uiso   1.00
C458   C     0.56207   0.78716   0.02557   0.00000  Uiso   1.00
C459   C     0.56404   0.78748   0.47923   0.00000  Uiso   1.00
C460   C     0.35463   0.79411   0.26272   0.00000  Uiso   1.00
C461   C     0.64537   0.87256   0.23728   0.00000  Uiso   1.00
C462   C     0.64528   0.79416   0.26286   0.00000  Uiso   1.00
C463   C     0.35471   0.87250   0.23714   0.00000  Uiso   1.00
C464   C     0.62417   0.83338   0.25011   0.00000  Uiso   1.00
H465   H     0.44740   0.87372   0.38727   0.00000  Uiso   1.00
H466   H     0.37108   0.90282   0.22675   0.00000  Uiso   1.00
H467   H     0.54796   0.70907   0.29850   0.00000  Uiso   1.00
H468   H     0.45204   0.95759   0.20150   0.00000  Uiso   1.00
H469   H     0.45204   0.70857   0.20150   0.00000  Uiso   1.00
H470   H     0.54796   0.95810   0.29850   0.00000  Uiso   1.00
H471   H     0.56902   0.79415   0.35002   0.00000  Uiso   1.00
H472   H     0.59728   0.80980   0.39381   0.00000  Uiso   1.00
H473   H     0.43098   0.87251   0.14998   0.00000  Uiso   1.00
H474   H     0.40272   0.85686   0.10619   0.00000  Uiso   1.00
H475   H     0.55260   0.79295   0.11273   0.00000  Uiso   1.00
H476   H     0.41421   0.89751   0.45581   0.00000  Uiso   1.00
H477   H     0.58579   0.76915   0.04419   0.00000  Uiso   1.00
H478   H     0.41075   0.89741   0.03675   0.00000  Uiso   1.00
H479   H     0.58925   0.76926   0.46325   0.00000  Uiso   1.00
H480   H     0.37093   0.76376   0.27300   0.00000  Uiso   1.00
H481   H     0.62907   0.90291   0.22700   0.00000  Uiso   1.00
H482   H     0.62892   0.76385   0.27325   0.00000  Uiso   1.00
N483   N     0.50000   0.95240   0.25000   0.00000  Uiso   1.00
N484   N     0.50000   0.71427   0.25000   0.00000  Uiso   1.00
N485   N     0.57077   0.79134   0.38470   0.00000  Uiso   1.00
N486   N     0.42923   0.87533   0.11530   0.00000  Uiso   1.00
O487   O     0.43892   0.87154   0.25000   0.00000  Uiso   1.00
O488   O     0.56108   0.79513   0.25001   0.00000  Uiso   1.00
O489   O     0.56108   0.87154   0.25001   0.00000  Uiso   1.00
O490   O     0.43892   0.79513   0.25000   0.00000  Uiso   1.00
O491   O     0.49999   0.87156   0.18393   0.00000  Uiso   1.00
O492   O     0.50001   0.79511   0.31608   0.00000  Uiso   1.00
O493   O     0.50001   0.87156   0.31608   0.00000  Uiso   1.00
O494   O     0.49999   0.79511   0.18393   0.00000  Uiso   1.00
Zn495  Zn    0.50000   0.88437   0.25000   0.00000  Uiso   1.00
Zn496  Zn    0.50000   0.78229   0.25000   0.00000  Uiso   1.00
C497   C     0.75330   0.83331   0.24994   0.00000  Uiso   1.00
C498   C     0.70916   0.83329   0.24989   0.00000  Uiso   1.00
C499   C     0.85999   0.69079   0.27695   0.00000  Uiso   1.00
C500   C     0.80668   0.97588   0.22305   0.00000  Uiso   1.00
C501   C     0.80668   0.69051   0.22305   0.00000  Uiso   1.00
C502   C     0.85999   0.97616   0.27695   0.00000  Uiso   1.00
C503   C     0.83196   0.83324   0.16355   0.00000  Uiso   1.00
C504   C     0.83471   0.83342   0.33645   0.00000  Uiso   1.00
C505   C     0.86897   0.81161   0.40740   0.00000  Uiso   1.00
C506   C     0.79770   0.85506   0.09260   0.00000  Uiso   1.00
C507   C     0.83665   0.83374   0.38411   0.00000  Uiso   1.00
C508   C     0.91336   0.83335   0.25006   0.00000  Uiso   1.00
C509   C     0.83002   0.83293   0.11589   0.00000  Uiso   1.00
C510   C     0.80487   0.85663   0.40626   0.00000  Uiso   1.00
C511   C     0.86179   0.81004   0.09374   0.00000  Uiso   1.00
C512   C     0.80344   0.85679   0.45238   0.00000  Uiso   1.00
C513   C     0.86322   0.80988   0.04762   0.00000  Uiso   1.00
C514   C     0.83431   0.83351   0.47664   0.00000  Uiso   1.00
C515   C     0.83236   0.83315   0.02336   0.00000  Uiso   1.00
C516   C     0.86714   0.81071   0.45424   0.00000  Uiso   1.00
C517   C     0.79953   0.85595   0.04576   0.00000  Uiso   1.00
C518   C     0.77126   0.87951   0.47443   0.00000  Uiso   1.00
C519   C     0.76930   0.87919   0.02077   0.00000  Uiso   1.00
C520   C     0.89540   0.78716   0.02557   0.00000  Uiso   1.00
C521   C     0.89737   0.78748   0.47923   0.00000  Uiso   1.00
C522   C     0.68796   0.79411   0.26272   0.00000  Uiso   1.00
C523   C     0.97870   0.87256   0.23728   0.00000  Uiso   1.00
C524   C     0.97862   0.79416   0.26286   0.00000  Uiso   1.00
C525   C     0.68805   0.87250   0.23714   0.00000  Uiso   1.00
C526   C     0.95750   0.83338   0.25011   0.00000  Uiso   1.00
H527   H     0.78073   0.87372   0.38727   0.00000  Uiso   1.00
H528   H     0.70441   0.90282   0.22675   0.00000  Uiso   1.00
H529   H     0.88130   0.70907   0.29850   0.00000  Uiso   1.00
H530   H     0.78537   0.95759   0.20150   0.00000  Uiso   1.00
H531   H     0.78537   0.70857   0.20150   0.00000  Uiso   1.00
H532   H     0.88130   0.95810   0.29850   0.00000  Uiso   1.00
H533   H     0.90235   0.79415   0.35002   0.00000  Uiso   1.00
H534   H     0.93061   0.80980   0.39381   0.00000  Uiso   1.00
H535   H     0.76432   0.87251   0.14998   0.00000  Uiso   1.00
H536   H     0.73605   0.85686   0.10619   0.00000  Uiso   1.00
H537   H     0.88593   0.79295   0.11273   0.00000  Uiso   1.00
H538   H     0.74754   0.89751   0.45581   0.00000  Uiso   1.00
H539   H     0.91912   0.76915   0.04419   0.00000  Uiso   1.00
H540   H     0.74408   0.89741   0.03675   0.00000  Uiso   1.00
H541   H     0.92258   0.76926   0.46325   0.00000  Uiso   1.00
H542   H     0.70426   0.76376   0.27300   0.00000  Uiso   1.00
H543   H     0.96240   0.90291   0.22700   0.00000  Uiso   1.00
H544   H     0.96225   0.76385   0.27325   0.00000  Uiso   1.00
N545   N     0.83333   0.95240   0.25000   0.00000  Uiso   1.00
N546   N     0.83333   0.71427   0.25000   0.00000  Uiso   1.00
N547   N     0.90410   0.79134   0.38470   0.00000  Uiso   1.00
N548   N     0.76256   0.87533   0.11530   0.00000  Uiso   1.00
O549   O     0.77226   0.87154   0.25000   0.00000  Uiso   1.00
O550   O     0.89441   0.79513   0.25001   0.00000  Uiso   1.00
O551   O     0.89441   0.87154   0.25001   0.00000  Uiso   1.00
O552   O     0.77226   0.79513   0.25000   0.00000  Uiso   1.00
O553   O     0.83333   0.87156   0.18393   0.00000  Uiso   1.00
O554   O     0.83334   0.79511   0.31608   0.00000  Uiso   1.00
O555   O     0.83334   0.87156   0.31608   0.00000  Uiso   1.00
O556   O     0.83333   0.79511   0.18393   0.00000  Uiso   1.00
Zn557  Zn    0.83333   0.88437   0.25000   0.00000  Uiso   1.00
Zn558  Zn    0.83333   0.78229   0.25000   0.00000  Uiso   1.00
C559   C     0.08664   0.16665   0.74994   0.00000  Uiso   1.00
C560   C     0.04250   0.16662   0.74989   0.00000  Uiso   1.00
C561   C     0.19332   0.02412   0.77695   0.00000  Uiso   1.00
C562   C     0.14001   0.30921   0.72305   0.00000  Uiso   1.00
C563   C     0.14001   0.02384   0.72305   0.00000  Uiso   1.00
C564   C     0.19332   0.30949   0.77695   0.00000  Uiso   1.00
C565   C     0.16529   0.16658   0.66355   0.00000  Uiso   1.00
C566   C     0.16804   0.16676   0.83645   0.00000  Uiso   1.00
C567   C     0.20230   0.14494   0.90740   0.00000  Uiso   1.00
C568   C     0.13103   0.18839   0.59260   0.00000  Uiso   1.00
C569   C     0.16998   0.16707   0.88411   0.00000  Uiso   1.00
C570   C     0.24670   0.16669   0.75006   0.00000  Uiso   1.00
C571   C     0.16335   0.16626   0.61589   0.00000  Uiso   1.00
C572   C     0.13821   0.18996   0.90626   0.00000  Uiso   1.00
C573   C     0.19513   0.14337   0.59374   0.00000  Uiso   1.00
C574   C     0.13677   0.19012   0.95238   0.00000  Uiso   1.00
C575   C     0.19656   0.14321   0.54762   0.00000  Uiso   1.00
C576   C     0.16764   0.16685   0.97664   0.00000  Uiso   1.00
C577   C     0.16569   0.16649   0.52336   0.00000  Uiso   1.00
C578   C     0.20047   0.14404   0.95424   0.00000  Uiso   1.00
C579   C     0.13286   0.18929   0.54576   0.00000  Uiso   1.00
C580   C     0.10459   0.21284   0.97443   0.00000  Uiso   1.00
C581   C     0.10263   0.21252   0.52077   0.00000  Uiso   1.00
C582   C     0.22874   0.12049   0.52557   0.00000  Uiso   1.00
C583   C     0.23070   0.12081   0.97923   0.00000  Uiso   1.00
C584   C     0.02130   0.12744   0.76272   0.00000  Uiso   1.00
C585   C     0.31204   0.20589   0.73728   0.00000  Uiso   1.00
C586   C     0.31195   0.12750   0.76286   0.00000  Uiso   1.00
C587   C     0.02138   0.20584   0.73714   0.00000  Uiso   1.00
C588   C     0.29084   0.16671   0.75011   0.00000  Uiso   1.00
H589   H     0.11407   0.20705   0.88727   0.00000  Uiso   1.00
H590   H     0.03775   0.23615   0.72675   0.00000  Uiso   1.00
H591   H     0.21463   0.04240   0.79850   0.00000  Uiso   1.00
H592   H     0.11870   0.29093   0.70150   0.00000  Uiso   1.00
H593   H     0.11870   0.04190   0.70150   0.00000  Uiso   1.00
H594   H     0.21463   0.29143   0.79850   0.00000  Uiso   1.00
H595   H     0.23568   0.12749   0.85002   0.00000  Uiso   1.00
H596   H     0.26395   0.14314   0.89381   0.00000  Uiso   1.00
H597   H     0.09765   0.20585   0.64998   0.00000  Uiso   1.00
H598   H     0.06939   0.19020   0.60619   0.00000  Uiso   1.00
H599   H     0.21927   0.12628   0.61273   0.00000  Uiso   1.00
H600   H     0.08088   0.23085   0.95581   0.00000  Uiso   1.00
H601   H     0.25246   0.10248   0.54419   0.00000  Uiso   1.00
H602   H     0.07742   0.23074   0.53675   0.00000  Uiso   1.00
H603   H     0.25592   0.10259   0.96325   0.00000  Uiso   1.00
H604   H     0.03760   0.09709   0.77300   0.00000  Uiso   1.00
H605   H     0.29574   0.23624   0.72700   0.00000  Uiso   1.00
H606   H     0.29559   0.09718   0.77325   0.00000  Uiso   1.00
N607   N     0.16667   0.28573   0.75000   0.00000  Uiso   1.00
N608   N     0.16667   0.04760   0.75000   0.00000  Uiso   1.00
N609   N     0.23744   0.12467   0.88470   0.00000  Uiso   1.00
N610   N     0.09590   0.20866   0.61530   0.00000  Uiso   1.00
O611   O     0.10559   0.20487   0.75000   0.00000  Uiso   1.00
O612   O     0.22774   0.12846   0.75001   0.00000  Uiso   1.00
O613   O     0.22774   0.20487   0.75001   0.00000  Uiso   1.00
O614   O     0.10559   0.12846   0.75000   0.00000  Uiso   1.00
O615   O     0.16666   0.20489   0.68393   0.00000  Uiso   1.00
O616   O     0.16667   0.12844   0.81608   0.00000  Uiso   1.00
O617   O     0.16667   0.20489   0.81608   0.00000  Uiso   1.00
O618   O     0.16666   0.12844   0.68393   0.00000  Uiso   1.00
Zn619  Zn    0.16667   0.21771   0.75000   0.00000  Uiso   1.00
Zn620  Zn    0.16667   0.11563   0.75000   0.00000  Uiso   1.00
C621   C     0.41997   0.16665   0.74994   0.00000  Uiso   1.00
C622   C     0.37583   0.16662   0.74989   0.00000  Uiso   1.00
C623   C     0.52665   0.02412   0.77695   0.00000  Uiso   1.00
C624   C     0.47334   0.30921   0.72305   0.00000  Uiso   1.00
C625   C     0.47335   0.02384   0.72305   0.00000  Uiso   1.00
C626   C     0.52665   0.30949   0.77695   0.00000  Uiso   1.00
C627   C     0.49863   0.16658   0.66355   0.00000  Uiso   1.00
C628   C     0.50137   0.16676   0.83645   0.00000  Uiso   1.00
C629   C     0.53564   0.14494   0.90740   0.00000  Uiso   1.00
C630   C     0.46436   0.18839   0.59260   0.00000  Uiso   1.00
C631   C     0.50332   0.16707   0.88411   0.00000  Uiso   1.00
C632   C     0.58003   0.16669   0.75006   0.00000  Uiso   1.00
C633   C     0.49668   0.16626   0.61589   0.00000  Uiso   1.00
C634   C     0.47154   0.18996   0.90626   0.00000  Uiso   1.00
C635   C     0.52846   0.14337   0.59374   0.00000  Uiso   1.00
C636   C     0.47011   0.19012   0.95238   0.00000  Uiso   1.00
C637   C     0.52989   0.14321   0.54762   0.00000  Uiso   1.00
C638   C     0.50098   0.16685   0.97664   0.00000  Uiso   1.00
C639   C     0.49902   0.16649   0.52336   0.00000  Uiso   1.00
C640   C     0.53380   0.14404   0.95424   0.00000  Uiso   1.00
C641   C     0.46620   0.18929   0.54576   0.00000  Uiso   1.00
C642   C     0.43793   0.21284   0.97443   0.00000  Uiso   1.00
C643   C     0.43596   0.21252   0.52077   0.00000  Uiso   1.00
C644   C     0.56207   0.12049   0.52557   0.00000  Uiso   1.00
C645   C     0.56404   0.12081   0.97923   0.00000  Uiso   1.00
C646   C     0.35463   0.12744   0.76272   0.00000  Uiso   1.00
C647   C     0.64537   0.20589   0.73728   0.00000  Uiso   1.00
C648   C     0.64528   0.12750   0.76286   0.00000  Uiso   1.00
C649   C     0.35471   0.20584   0.73714   0.00000  Uiso   1.00
C650   C     0.62417   0.16671   0.75011   0.00000  Uiso   1.00
H651   H     0.44740   0.20705   0.88727   0.00000  Uiso   1.00
H652   H     0.37108   0.23615   0.72675   0.00000  Uiso   1.00
H653   H     0.54796   0.04240   0.79850   0.00000  Uiso   1.00
H654   H     0.45204   0.29093   0.70150   0.00000  Uiso   1.00
H655   H     0.45204   0.04190   0.70150   0.00000  Uiso   1.00
H656   H     0.54796   0.29143   0.79850   0.00000  Uiso   1.00
H657   H     0.56902   0.12749   0.85002   0.00000  Uiso   1.00
H658   H     0.59728   0.14314   0.89381   0.00000  Uiso   1.00
H659   H     0.43098   0.20585   0.64998   0.00000  Uiso   1.00
H660   H     0.40272   0.19020   0.60619   0.00000  Uiso   1.00
H661   H     0.55260   0.12628   0.61273   0.00000  Uiso   1.00
H662   H     0.41421   0.23085   0.95581   0.00000  Uiso   1.00
H663   H     0.58579   0.10248   0.54419   0.00000  Uiso   1.00
H664   H     0.41075   0.23074   0.53675   0.00000  Uiso   1.00
H665   H     0.58925   0.10259   0.96325   0.00000  Uiso   1.00
H666   H     0.37093   0.09709   0.77300   0.00000  Uiso   1.00
H667   H     0.62907   0.23624   0.72700   0.00000  Uiso   1.00
H668   H     0.62892   0.09718   0.77325   0.00000  Uiso   1.00
N669   N     0.50000   0.28573   0.75000   0.00000  Uiso   1.00
N670   N     0.50000   0.04760   0.75000   0.00000  Uiso   1.00
N671   N     0.57077   0.12467   0.88470   0.00000  Uiso   1.00
N672   N     0.42923   0.20866   0.61530   0.00000  Uiso   1.00
O673   O     0.43892   0.20487   0.75000   0.00000  Uiso   1.00
O674   O     0.56108   0.12846   0.75001   0.00000  Uiso   1.00
O675   O     0.56108   0.20487   0.75001   0.00000  Uiso   1.00
O676   O     0.43892   0.12846   0.75000   0.00000  Uiso   1.00
O677   O     0.49999   0.20489   0.68393   0.00000  Uiso   1.00
O678   O     0.50001   0.12844   0.81608   0.00000  Uiso   1.00
O679   O     0.50001   0.20489   0.81608   0.00000  Uiso   1.00
O680   O     0.49999   0.12844   0.68393   0.00000  Uiso   1.00
Zn681  Zn    0.50000   0.21771   0.75000   0.00000  Uiso   1.00
Zn682  Zn    0.50000   0.11563   0.75000   0.00000  Uiso   1.00
C683   C     0.75330   0.16665   0.74994   0.00000  Uiso   1.00
C684   C     0.70916   0.16662   0.74989   0.00000  Uiso   1.00
C685   C     0.85999   0.02412   0.77695   0.00000  Uiso   1.00
C686   C     0.80668   0.30921   0.72305   0.00000  Uiso   1.00
C687   C     0.80668   0.02384   0.72305   0.00000  Uiso   1.00
C688   C     0.85999   0.30949   0.77695   0.00000  Uiso   1.00
C689   C     0.83196   0.16658   0.66355   0.00000  Uiso   1.00
C690   C     0.83471   0.16676   0.83645   0.00000  Uiso   1.00
C691   C     0.86897   0.14494   0.90740   0.00000  Uiso   1.00
C692   C     0.79770   0.18839   0.59260   0.00000  Uiso   1.00
C693   C     0.83665   0.16707   0.88411   0.00000  Uiso   1.00
C694   C     0.91336   0.16669   0.75006   0.00000  Uiso   1.00
C695   C     0.83002   0.16626   0.61589   0.00000  Uiso   1.00
C696   C     0.80487   0.18996   0.90626   0.00000  Uiso   1.00
C697   C     0.86179   0.14337   0.59374   0.00000  Uiso   1.00
C698   C     0.80344   0.19012   0.95238   0.00000  Uiso   1.00
C699   C     0.86322   0.14321   0.54762   0.00000  Uiso   1.00
C700   C     0.83431   0.16685   0.97664   0.00000  Uiso   1.00
C701   C     0.83236   0.16649   0.52336   0.00000  Uiso   1.00
C702   C     0.86714   0.14404   0.95424   0.00000  Uiso   1.00
C703   C     0.79953   0.18929   0.54576   0.00000  Uiso   1.00
C704   C     0.77126   0.21284   0.97443   0.00000  Uiso   1.00
C705   C     0.76930   0.21252   0.52077   0.00000  Uiso   1.00
C706   C     0.89540   0.12049   0.52557   0.00000  Uiso   1.00
C707   C     0.89737   0.12081   0.97923   0.00000  Uiso   1.00
C708   C     0.68796   0.12744   0.76272   0.00000  Uiso   1.00
C709   C     0.97870   0.20589   0.73728   0.00000  Uiso   1.00
C710   C     0.97862   0.12750   0.76286   0.00000  Uiso   1.00
C711   C     0.68805   0.20584   0.73714   0.00000  Uiso   1.00
C712   C     0.95750   0.16671   0.75011   0.00000  Uiso   1.00
H713   H     0.78073   0.20705   0.88727   0.00000  Uiso   1.00
H714   H     0.70441   0.23615   0.72675   0.00000  Uiso   1.00
H715   H     0.88130   0.04240   0.79850   0.00000  Uiso   1.00
H716   H     0.78537   0.29093   0.70150   0.00000  Uiso   1.00
H717   H     0.78537   0.04190   0.70150   0.00000  Uiso   1.00
H718   H     0.88130   0.29143   0.79850   0.00000  Uiso   1.00
H719   H     0.90235   0.12749   0.85002   0.00000  Uiso   1.00
H720   H     0.93061   0.14314   0.89381   0.00000  Uiso   1.00
H721   H     0.76432   0.20585   0.64998   0.00000  Uiso   1.00
H722   H     0.73605   0.19020   0.60619   0.00000  Uiso   1.00
H723   H     0.88593   0.12628   0.61273   0.00000  Uiso   1.00
H724   H     0.74754   0.23085   0.95581   0.00000  Uiso   1.00
H725   H     0.91912   0.10248   0.54419   0.00000  Uiso   1.00
H726   H     0.74408   0.23074   0.53675   0.00000  Uiso   1.00
H727   H     0.92258   0.10259   0.96325   0.00000  Uiso   1.00
H728   H     0.70426   0.09709   0.77300   0.00000  Uiso   1.00
H729   H     0.96240   0.23624   0.72700   0.00000  Uiso   1.00
H730   H     0.96225   0.09718   0.77325   0.00000  Uiso   1.00
N731   N     0.83333   0.28573   0.75000   0.00000  Uiso   1.00
N732   N     0.83333   0.04760   0.75000   0.00000  Uiso   1.00
N733   N     0.90410   0.12467   0.88470   0.00000  Uiso   1.00
N734   N     0.76256   0.20866   0.61530   0.00000  Uiso   1.00
O735   O     0.77226   0.20487   0.75000   0.00000  Uiso   1.00
O736   O     0.89441   0.12846   0.75001   0.00000  Uiso   1.00
O737   O     0.89441   0.20487   0.75001   0.00000  Uiso   1.00
O738   O     0.77226   0.12846   0.75000   0.00000  Uiso   1.00
O739   O     0.83333   0.20489   0.68393   0.00000  Uiso   1.00
O740   O     0.83334   0.12844   0.81608   0.00000  Uiso   1.00
O741   O     0.83334   0.20489   0.81608   0.00000  Uiso   1.00
O742   O     0.83333   0.12844   0.68393   0.00000  Uiso   1.00
Zn743  Zn    0.83333   0.21771   0.75000   0.00000  Uiso   1.00
Zn744  Zn    0.83333   0.11563   0.75000   0.00000  Uiso   1.00
C745   C     0.08664   0.49998   0.74994   0.00000  Uiso   1.00
C746   C     0.04250   0.49996   0.74989   0.00000  Uiso   1.00
C747   C     0.19332   0.35745   0.77695   0.00000  Uiso   1.00
C748   C     0.14001   0.64255   0.72305   0.00000  Uiso   1.00
C749   C     0.14001   0.35718   0.72305   0.00000  Uiso   1.00
C750   C     0.19332   0.64282   0.77695   0.00000  Uiso   1.00
C751   C     0.16529   0.49991   0.66355   0.00000  Uiso   1.00
C752   C     0.16804   0.50009   0.83645   0.00000  Uiso   1.00
C753   C     0.20230   0.47828   0.90740   0.00000  Uiso   1.00
C754   C     0.13103   0.52172   0.59260   0.00000  Uiso   1.00
C755   C     0.16998   0.50041   0.88411   0.00000  Uiso   1.00
C756   C     0.24670   0.50002   0.75006   0.00000  Uiso   1.00
C757   C     0.16335   0.49959   0.61589   0.00000  Uiso   1.00
C758   C     0.13821   0.52329   0.90626   0.00000  Uiso   1.00
C759   C     0.19513   0.47670   0.59374   0.00000  Uiso   1.00
C760   C     0.13677   0.52345   0.95238   0.00000  Uiso   1.00
C761   C     0.19656   0.47655   0.54762   0.00000  Uiso   1.00
C762   C     0.16764   0.50018   0.97664   0.00000  Uiso   1.00
C763   C     0.16569   0.49982   0.52336   0.00000  Uiso   1.00
C764   C     0.20047   0.47738   0.95424   0.00000  Uiso   1.00
C765   C     0.13286   0.52262   0.54576   0.00000  Uiso   1.00
C766   C     0.10459   0.54618   0.97443   0.00000  Uiso   1.00
C767   C     0.10263   0.54585   0.52077   0.00000  Uiso   1.00
C768   C     0.22874   0.45382   0.52557   0.00000  Uiso   1.00
C769   C     0.23070   0.45414   0.97923   0.00000  Uiso   1.00
C770   C     0.02130   0.46078   0.76272   0.00000  Uiso   1.00
C771   C     0.31204   0.53922   0.73728   0.00000  Uiso   1.00
C772   C     0.31195   0.46083   0.76286   0.00000  Uiso   1.00
C773   C     0.02138   0.53917   0.73714   0.00000  Uiso   1.00
C774   C     0.29084   0.50004   0.75011   0.00000  Uiso   1.00
H775   H     0.11407   0.54038   0.88727   0.00000  Uiso   1.00
H776   H     0.03775   0.56948   0.72675   0.00000  Uiso   1.00
H777   H     0.21463   0.37574   0.79850   0.00000  Uiso   1.00
H778   H     0.11870   0.62426   0.70150   0.00000  Uiso   1.00
H779   H     0.11870   0.37524   0.70150   0.00000  Uiso   1.00
H780   H     0.21463   0.62476   0.79850   0.00000  Uiso   1.00
H781   H     0.23568   0.46082   0.85002   0.00000  Uiso   1.00
H782   H     0.26395   0.47647   0.89381   0.00000  Uiso   1.00
H783   H     0.09765   0.53918   0.64998   0.00000  Uiso   1.00
H784   H     0.06939   0.52353   0.60619   0.00000  Uiso   1.00
H785   H     0.21927   0.45962   0.61273   0.00000  Uiso   1.00
H786   H     0.08088   0.56418   0.95581   0.00000  Uiso   1.00
H787   H     0.25246   0.43582   0.54419   0.00000  Uiso   1.00
H788   H     0.07742   0.56407   0.53675   0.00000  Uiso   1.00
H789   H     0.25592   0.43592   0.96325   0.00000  Uiso   1.00
H790   H     0.03760   0.43043   0.77300   0.00000  Uiso   1.00
H791   H     0.29574   0.56957   0.72700   0.00000  Uiso   1.00
H792   H     0.29559   0.43052   0.77325   0.00000  Uiso   1.00
N793   N     0.16667   0.61907   0.75000   0.00000  Uiso   1.00
N794   N     0.16667   0.38093   0.75000   0.00000  Uiso   1.00
N795   N     0.23744   0.45800   0.88470   0.00000  Uiso   1.00
N796   N     0.09590   0.54200   0.61530   0.00000  Uiso   1.00
O797   O     0.10559   0.53821   0.75000   0.00000  Uiso   1.00
O798   O     0.22774   0.46179   0.75001   0.00000  Uiso   1.00
O799   O     0.22774   0.53821   0.75001   0.00000  Uiso   1.00
O800   O     0.10559   0.46179   0.75000   0.00000  Uiso   1.00
O801   O     0.16666   0.53823   0.68393   0.00000  Uiso   1.00
O802   O     0.16667   0.46177   0.81608   0.00000  Uiso   1.00
O803   O     0.16667   0.53823   0.81608   0.00000  Uiso   1.00
O804   O     0.16666   0.46177   0.68393   0.00000  Uiso   1.00
Zn805  Zn    0.16667   0.55104   0.75000   0.00000  Uiso   1.00
Zn806  Zn    0.16667   0.44896   0.75000   0.00000  Uiso   1.00
C807   C     0.41997   0.49998   0.74994   0.00000  Uiso   1.00
C808   C     0.37583   0.49996   0.74989   0.00000  Uiso   1.00
C809   C     0.52665   0.35745   0.77695   0.00000  Uiso   1.00
C810   C     0.47334   0.64255   0.72305   0.00000  Uiso   1.00
C811   C     0.47335   0.35718   0.72305   0.00000  Uiso   1.00
C812   C     0.52665   0.64282   0.77695   0.00000  Uiso   1.00
C813   C     0.49863   0.49991   0.66355   0.00000  Uiso   1.00
C814   C     0.50137   0.50009   0.83645   0.00000  Uiso   1.00
C815   C     0.53564   0.47828   0.90740   0.00000  Uiso   1.00
C816   C     0.46436   0.52172   0.59260   0.00000  Uiso   1.00
C817   C     0.50332   0.50041   0.88411   0.00000  Uiso   1.00
C818   C     0.58003   0.50002   0.75006   0.00000  Uiso   1.00
C819   C     0.49668   0.49959   0.61589   0.00000  Uiso   1.00
C820   C     0.47154   0.52329   0.90626   0.00000  Uiso   1.00
C821   C     0.52846   0.47670   0.59374   0.00000  Uiso   1.00
C822   C     0.47011   0.52345   0.95238   0.00000  Uiso   1.00
C823   C     0.52989   0.47655   0.54762   0.00000  Uiso   1.00
C824   C     0.50098   0.50018   0.97664   0.00000  Uiso   1.00
C825   C     0.49902   0.49982   0.52336   0.00000  Uiso   1.00
C826   C     0.53380   0.47738   0.95424   0.00000  Uiso   1.00
C827   C     0.46620   0.52262   0.54576   0.00000  Uiso   1.00
C828   C     0.43793   0.54618   0.97443   0.00000  Uiso   1.00
C829   C     0.43596   0.54585   0.52077   0.00000  Uiso   1.00
C830   C     0.56207   0.45382   0.52557   0.00000  Uiso   1.00
C831   C     0.56404   0.45414   0.97923   0.00000  Uiso   1.00
C832   C     0.35463   0.46078   0.76272   0.00000  Uiso   1.00
C833   C     0.64537   0.53922   0.73728   0.00000  Uiso   1.00
C834   C     0.64528   0.46083   0.76286   0.00000  Uiso   1.00
C835   C     0.35471   0.53917   0.73714   0.00000  Uiso   1.00
C836   C     0.62417   0.50004   0.75011   0.00000  Uiso   1.00
H837   H     0.44740   0.54038   0.88727   0.00000  Uiso   1.00
H838   H     0.37108   0.56948   0.72675   0.00000  Uiso   1.00
H839   H     0.54796   0.37574   0.79850   0.00000  Uiso   1.00
H840   H     0.45204   0.62426   0.70150   0.00000  Uiso   1.00
H841   H     0.45204   0.37524   0.70150   0.00000  Uiso   1.00
H842   H     0.54796   0.62476   0.79850   0.00000  Uiso   1.00
H843   H     0.56902   0.46082   0.85002   0.00000  Uiso   1.00
H844   H     0.59728   0.47647   0.89381   0.00000  Uiso   1.00
H845   H     0.43098   0.53918   0.64998   0.00000  Uiso   1.00
H846   H     0.40272   0.52353   0.60619   0.00000  Uiso   1.00
H847   H     0.55260   0.45962   0.61273   0.00000  Uiso   1.00
H848   H     0.41421   0.56418   0.95581   0.00000  Uiso   1.00
H849   H     0.58579   0.43582   0.54419   0.00000  Uiso   1.00
H850   H     0.41075   0.56407   0.53675   0.00000  Uiso   1.00
H851   H     0.58925   0.43592   0.96325   0.00000  Uiso   1.00
H852   H     0.37093   0.43043   0.77300   0.00000  Uiso   1.00
H853   H     0.62907   0.56957   0.72700   0.00000  Uiso   1.00
H854   H     0.62892   0.43052   0.77325   0.00000  Uiso   1.00
N855   N     0.50000   0.61907   0.75000   0.00000  Uiso   1.00
N856   N     0.50000   0.38093   0.75000   0.00000  Uiso   1.00
N857   N     0.57077   0.45800   0.88470   0.00000  Uiso   1.00
N858   N     0.42923   0.54200   0.61530   0.00000  Uiso   1.00
O859   O     0.43892   0.53821   0.75000   0.00000  Uiso   1.00
O860   O     0.56108   0.46179   0.75001   0.00000  Uiso   1.00
O861   O     0.56108   0.53821   0.75001   0.00000  Uiso   1.00
O862   O     0.43892   0.46179   0.75000   0.00000  Uiso   1.00
O863   O     0.49999   0.53823   0.68393   0.00000  Uiso   1.00
O864   O     0.50001   0.46177   0.81608   0.00000  Uiso   1.00
O865   O     0.50001   0.53823   0.81608   0.00000  Uiso   1.00
O866   O     0.49999   0.46177   0.68393   0.00000  Uiso   1.00
Zn867  Zn    0.50000   0.55104   0.75000   0.00000  Uiso   1.00
Zn868  Zn    0.50000   0.44896   0.75000   0.00000  Uiso   1.00
C869   C     0.75330   0.49998   0.74994   0.00000  Uiso   1.00
C870   C     0.70916   0.49996   0.74989   0.00000  Uiso   1.00
C871   C     0.85999   0.35745   0.77695   0.00000  Uiso   1.00
C872   C     0.80668   0.64255   0.72305   0.00000  Uiso   1.00
C873   C     0.80668   0.35718   0.72305   0.00000  Uiso   1.00
C874   C     0.85999   0.64282   0.77695   0.00000  Uiso   1.00
C875   C     0.83196   0.49991   0.66355   0.00000  Uiso   1.00
C876   C     0.83471   0.50009   0.83645   0.00000  Uiso   1.00
C877   C     0.86897   0.47828   0.90740   0.00000  Uiso   1.00
C878   C     0.79770   0.52172   0.59260   0.00000  Uiso   1.00
C879   C     0.83665   0.50041   0.88411   0.00000  Uiso   1.00
C880   C     0.91336   0.50002   0.75006   0.00000  Uiso   1.00
C881   C     0.83002   0.49959   0.61589   0.00000  Uiso   1.00
C882   C     0.80487   0.52329   0.90626   0.00000  Uiso   1.00
C883   C     0.86179   0.47670   0.59374   0.00000  Uiso   1.00
C884   C     0.80344   0.52345   0.95238   0.00000  Uiso   1.00
C885   C     0.86322   0.47655   0.54762   0.00000  Uiso   1.00
C886   C     0.83431   0.50018   0.97664   0.00000  Uiso   1.00
C887   C     0.83236   0.49982   0.52336   0.00000  Uiso   1.00
C888   C     0.86714   0.47738   0.95424   0.00000  Uiso   1.00
C889   C     0.79953   0.52262   0.54576   0.00000  Uiso   1.00
C890   C     0.77126   0.54618   0.97443   0.00000  Uiso   1.00
C891   C     0.76930   0.54585   0.52077   0.00000  Uiso   1.00
C892   C     0.89540   0.45382   0.52557   0.00000  Uiso   1.00
C893   C     0.89737   0.45414   0.97923   0.00000  Uiso   1.00
C894   C     0.68796   0.46078   0.76272   0.00000  Uiso   1.00
C895   C     0.97870   0.53922   0.73728   0.00000  Uiso   1.00
C896   C     0.97862   0.46083   0.76286   0.00000  Uiso   1.00
C897   C     0.68805   0.53917   0.73714   0.00000  Uiso   1.00
C898   C     0.95750   0.50004   0.75011   0.00000  Uiso   1.00
H899   H     0.78073   0.54038   0.88727   0.00000  Uiso   1.00
H900   H     0.70441   0.56948   0.72675   0.00000  Uiso   1.00
H901   H     0.88130   0.37574   0.79850   0.00000  Uiso   1.00
H902   H     0.78537   0.62426   0.70150   0.00000  Uiso   1.00
H903   H     0.78537   0.37524   0.70150   0.00000  Uiso   1.00
H904   H     0.88130   0.62476   0.79850   0.00000  Uiso   1.00
H905   H     0.90235   0.46082   0.85002   0.00000  Uiso   1.00
H906   H     0.93061   0.47647   0.89381   0.00000  Uiso   1.00
H907   H     0.76432   0.53918   0.64998   0.00000  Uiso   1.00
H908   H     0.73605   0.52353   0.60619   0.00000  Uiso   1.00
H909   H     0.88593   0.45962   0.61273   0.00000  Uiso   1.00
H910   H     0.74754   0.56418   0.95581   0.00000  Uiso   1.00
H911   H     0.91912   0.43582   0.54419   0.00000  Uiso   1.00
H912   H     0.74408   0.56407   0.53675   0.00000  Uiso   1.00
H913   H     0.92258   0.43592   0.96325   0.00000  Uiso   1.00
H914   H     0.70426   0.43043   0.77300   0.00000  Uiso   1.00
H915   H     0.96240   0.56957   0.72700   0.00000  Uiso   1.00
H916   H     0.96225   0.43052   0.77325   0.00000  Uiso   1.00
N917   N     0.83333   0.61907   0.75000   0.00000  Uiso   1.00
N918   N     0.83333   0.38093   0.75000   0.00000  Uiso   1.00
N919   N     0.90410   0.45800   0.88470   0.00000  Uiso   1.00
N920   N     0.76256   0.54200   0.61530   0.00000  Uiso   1.00
O921   O     0.77226   0.53821   0.75000   0.00000  Uiso   1.00
O922   O     0.89441   0.46179   0.75001   0.00000  Uiso   1.00
O923   O     0.89441   0.53821   0.75001   0.00000  Uiso   1.00
O924   O     0.77226   0.46179   0.75000   0.00000  Uiso   1.00
O925   O     0.83333   0.53823   0.68393   0.00000  Uiso   1.00
O926   O     0.83334   0.46177   0.81608   0.00000  Uiso   1.00
O927   O     0.83334   0.53823   0.81608   0.00000  Uiso   1.00
O928   O     0.83333   0.46177   0.68393   0.00000  Uiso   1.00
Zn929  Zn    0.83333   0.55104   0.75000   0.00000  Uiso   1.00
Zn930  Zn    0.83333   0.44896   0.75000   0.00000  Uiso   1.00
C931   C     0.08664   0.83331   0.74994   0.00000  Uiso   1.00
C932   C     0.04250   0.83329   0.74989   0.00000  Uiso   1.00
C933   C     0.19332   0.69079   0.77695   0.00000  Uiso   1.00
C934   C     0.14001   0.97588   0.72305   0.00000  Uiso   1.00
C935   C     0.14001   0.69051   0.72305   0.00000  Uiso   1.00
C936   C     0.19332   0.97616   0.77695   0.00000  Uiso   1.00
C937   C     0.16529   0.83324   0.66355   0.00000  Uiso   1.00
C938   C     0.16804   0.83342   0.83645   0.00000  Uiso   1.00
C939   C     0.20230   0.81161   0.90740   0.00000  Uiso   1.00
C940   C     0.13103   0.85506   0.59260   0.00000  Uiso   1.00
C941   C     0.16998   0.83374   0.88411   0.00000  Uiso   1.00
C942   C     0.24670   0.83335   0.75006   0.00000  Uiso   1.00
C943   C     0.16335   0.83293   0.61589   0.00000  Uiso   1.00
C944   C     0.13821   0.85663   0.90626   0.00000  Uiso   1.00
C945   C     0.19513   0.81004   0.59374   0.00000  Uiso   1.00
C946   C     0.13677   0.85679   0.95238   0.00000  Uiso   1.00
C947   C     0.19656   0.80988   0.54762   0.00000  Uiso   1.00
C948   C     0.16764   0.83351   0.97664   0.00000  Uiso   1.00
C949   C     0.16569   0.83315   0.52336   0.00000  Uiso   1.00
C950   C     0.20047   0.81071   0.95424   0.00000  Uiso   1.00
C951   C     0.13286   0.85595   0.54576   0.00000  Uiso   1.00
C952   C     0.10459   0.87951   0.97443   0.00000  Uiso   1.00
C953   C     0.10263   0.87919   0.52077   0.00000  Uiso   1.00
C954   C     0.22874   0.78716   0.52557   0.00000  Uiso   1.00
C955   C     0.23070   0.78748   0.97923   0.00000  Uiso   1.00
C956   C     0.02130   0.79411   0.76272   0.00000  Uiso   1.00
C957   C     0.31204   0.87256   0.73728   0.00000  Uiso   1.00
C958   C     0.31195   0.79416   0.76286   0.00000  Uiso   1.00
C959   C     0.02138   0.87250   0.73714   0.00000  Uiso   1.00
C960   C     0.29084   0.83338   0.75011   0.00000  Uiso   1.00
H961   H     0.11407   0.87372   0.88727   0.00000  Uiso   1.00
H962   H     0.03775   0.90282   0.72675   0.00000  Uiso   1.00
H963   H     0.21463   0.70907   0.79850   0.00000  Uiso   1.00
H964   H     0.11870   0.95759   0.70150   0.00000  Uiso   1.00
H965   H     0.11870   0.70857   0.70150   0.00000  Uiso   1.00
H966   H     0.21463   0.95810   0.79850   0.00000  Uiso   1.00
H967   H     0.23568   0.79415   0.85002   0.00000  Uiso   1.00
H968   H     0.26395   0.80980   0.89381   0.00000  Uiso   1.00
H969   H     0.09765   0.87251   0.64998   0.00000  Uiso   1.00
H970   H     0.06939   0.85686   0.60619   0.00000  Uiso   1.00
H971   H     0.21927   0.79295   0.61273   0.00000  Uiso   1.00
H972   H     0.08088   0.89751   0.95581   0.00000  Uiso   1.00
H973   H     0.25246   0.76915   0.54419   0.00000  Uiso   1.00
H974   H     0.07742   0.89741   0.53675   0.00000  Uiso   1.00
H975   H     0.25592   0.76926   0.96325   0.00000  Uiso   1.00
H976   H     0.03760   0.76376   0.77300   0.00000  Uiso   1.00
H977   H     0.29574   0.90291   0.72700   0.00000  Uiso   1.00
H978   H     0.29559   0.76385   0.77325   0.00000  Uiso   1.00
N979   N     0.16667   0.95240   0.75000   0.00000  Uiso   1.00
N980   N     0.16667   0.71427   0.75000   0.00000  Uiso   1.00
N981   N     0.23744   0.79134   0.88470   0.00000  Uiso   1.00
N982   N     0.09590   0.87533   0.61530   0.00000  Uiso   1.00
O983   O     0.10559   0.87154   0.75000   0.00000  Uiso   1.00
O984   O     0.22774   0.79513   0.75001   0.00000  Uiso   1.00
O985   O     0.22774   0.87154   0.75001   0.00000  Uiso   1.00
O986   O     0.10559   0.79513   0.75000   0.00000  Uiso   1.00
O987   O     0.16666   0.87156   0.68393   0.00000  Uiso   1.00
O988   O     0.16667   0.79511   0.81608   0.00000  Uiso   1.00
O989   O     0.16667   0.87156   0.81608   0.00000  Uiso   1.00
O990   O     0.16666   0.79511   0.68393   0.00000  Uiso   1.00
Zn991  Zn    0.16667   0.88437   0.75000   0.00000  Uiso   1.00
Zn992  Zn    0.16667   0.78229   0.75000   0.00000  Uiso   1.00
C993   C     0.41997   0.83331   0.74994   0.00000  Uiso   1.00
C994   C     0.37583   0.83329   0.74989   0.00000  Uiso   1.00
C995   C     0.52665   0.69079   0.77695   0.00000  Uiso   1.00
C996   C     0.47334   0.97588   0.72305   0.00000  Uiso   1.00
C997   C     0.47335   0.69051   0.72305   0.00000  Uiso   1.00
C998   C     0.52665   0.97616   0.77695   0.00000  Uiso   1.00
C999   C     0.49863   0.83324   0.66355   0.00000  Uiso   1.00
C1000  C     0.50137   0.83342   0.83645   0.00000  Uiso   1.00
C1001  C     0.53564   0.81161   0.90740   0.00000  Uiso   1.00
C1002  C     0.46436   0.85506   0.59260   0.00000  Uiso   1.00
C1003  C     0.50332   0.83374   0.88411   0.00000  Uiso   1.00
C1004  C     0.58003   0.83335   0.75006   0.00000  Uiso   1.00
C1005  C     0.49668   0.83293   0.61589   0.00000  Uiso   1.00
C1006  C     0.47154   0.85663   0.90626   0.00000  Uiso   1.00
C1007  C     0.52846   0.81004   0.59374   0.00000  Uiso   1.00
C1008  C     0.47011   0.85679   0.95238   0.00000  Uiso   1.00
C1009  C     0.52989   0.80988   0.54762   0.00000  Uiso   1.00
C1010  C     0.50098   0.83351   0.97664   0.00000  Uiso   1.00
C1011  C     0.49902   0.83315   0.52336   0.00000  Uiso   1.00
C1012  C     0.53380   0.81071   0.95424   0.00000  Uiso   1.00
C1013  C     0.46620   0.85595   0.54576   0.00000  Uiso   1.00
C1014  C     0.43793   0.87951   0.97443   0.00000  Uiso   1.00
C1015  C     0.43596   0.87919   0.52077   0.00000  Uiso   1.00
C1016  C     0.56207   0.78716   0.52557   0.00000  Uiso   1.00
C1017  C     0.56404   0.78748   0.97923   0.00000  Uiso   1.00
C1018  C     0.35463   0.79411   0.76272   0.00000  Uiso   1.00
C1019  C     0.64537   0.87256   0.73728   0.00000  Uiso   1.00
C1020  C     0.64528   0.79416   0.76286   0.00000  Uiso   1.00
C1021  C     0.35471   0.87250   0.73714   0.00000  Uiso   1.00
C1022  C     0.62417   0.83338   0.75011   0.00000  Uiso   1.00
H1023  H     0.44740   0.87372   0.88727   0.00000  Uiso   1.00
H1024  H     0.37108   0.90282   0.72675   0.00000  Uiso   1.00
H1025  H     0.54796   0.70907   0.79850   0.00000  Uiso   1.00
H1026  H     0.45204   0.95759   0.70150   0.00000  Uiso   1.00
H1027  H     0.45204   0.70857   0.70150   0.00000  Uiso   1.00
H1028  H     0.54796   0.95810   0.79850   0.00000  Uiso   1.00
H1029  H     0.56902   0.79415   0.85002   0.00000  Uiso   1.00
H1030  H     0.59728   0.80980   0.89381   0.00000  Uiso   1.00
H1031  H     0.43098   0.87251   0.64998   0.00000  Uiso   1.00
H1032  H     0.40272   0.85686   0.60619   0.00000  Uiso   1.00
H1033  H     0.55260   0.79295   0.61273   0.00000  Uiso   1.00
H1034  H     0.41421   0.89751   0.95581   0.00000  Uiso   1.00
H1035  H     0.58579   0.76915   0.54419   0.00000  Uiso   1.00
H1036  H     0.41075   0.89741   0.53675   0.00000  Uiso   1.00
H1037  H     0.58925   0.76926   0.96325   0.00000  Uiso   1.00
H1038  H     0.37093   0.76376   0.77300   0.00000  Uiso   1.00
H1039  H     0.62907   0.90291   0.72700   0.00000  Uiso   1.00
H1040  H     0.62892   0.76385   0.77325   0.00000  Uiso   1.00
N1041  N     0.50000   0.95240   0.75000   0.00000  Uiso   1.00
N1042  N     0.50000   0.71427   0.75000   0.00000  Uiso   1.00
N1043  N     0.57077   0.79134   0.88470   0.00000  Uiso   1.00
N1044  N     0.42923   0.87533   0.61530   0.00000  Uiso   1.00
O1045  O     0.43892   0.87154   0.75000   0.00000  Uiso   1.00
O1046  O     0.56108   0.79513   0.75001   0.00000  Uiso   1.00
O1047  O     0.56108   0.87154   0.75001   0.00000  Uiso   1.00
O1048  O     0.43892   0.79513   0.75000   0.00000  Uiso   1.00
O1049  O     0.49999   0.87156   0.68393   0.00000  Uiso   1.00
O1050  O     0.50001   0.79511   0.81608   0.00000  Uiso   1.00
O1051  O     0.50001   0.87156   0.81608   0.00000  Uiso   1.00
O1052  O     0.49999   0.79511   0.68393   0.00000  Uiso   1.00
Zn1053 Zn    0.50000   0.88437   0.75000   0.00000  Uiso   1.00
Zn1054 Zn    0.50000   0.78229   0.75000   0.00000  Uiso   1.00
C1055  C     0.75330   0.83331   0.74994   0.00000  Uiso   1.00
C1056  C     0.70916   0.83329   0.74989   0.00000  Uiso   1.00
C1057  C     0.85999   0.69079   0.77695   0.00000  Uiso   1.00
C1058  C     0.80668   0.97588   0.72305   0.00000  Uiso   1.00
C1059  C     0.80668   0.69051   0.72305   0.00000  Uiso   1.00
C1060  C     0.85999   0.97616   0.77695   0.00000  Uiso   1.00
C1061  C     0.83196   0.83324   0.66355   0.00000  Uiso   1.00
C1062  C     0.83471   0.83342   0.83645   0.00000  Uiso   1.00
C1063  C     0.86897   0.81161   0.90740   0.00000  Uiso   1.00
C1064  C     0.79770   0.85506   0.59260   0.00000  Uiso   1.00
C1065  C     0.83665   0.83374   0.88411   0.00000  Uiso   1.00
C1066  C     0.91336   0.83335   0.75006   0.00000  Uiso   1.00
C1067  C     0.83002   0.83293   0.61589   0.00000  Uiso   1.00
C1068  C     0.80487   0.85663   0.90626   0.00000  Uiso   1.00
C1069  C     0.86179   0.81004   0.59374   0.00000  Uiso   1.00
C1070  C     0.80344   0.85679   0.95238   0.00000  Uiso   1.00
C1071  C     0.86322   0.80988   0.54762   0.00000  Uiso   1.00
C1072  C     0.83431   0.83351   0.97664   0.00000  Uiso   1.00
C1073  C     0.83236   0.83315   0.52336   0.00000  Uiso   1.00
C1074  C     0.86714   0.81071   0.95424   0.00000  Uiso   1.00
C1075  C     0.79953   0.85595   0.54576   0.00000  Uiso   1.00
C1076  C     0.77126   0.87951   0.97443   0.00000  Uiso   1.00
C1077  C     0.76930   0.87919   0.52077   0.00000  Uiso   1.00
C1078  C     0.89540   0.78716   0.52557   0.00000  Uiso   1.00
C1079  C     0.89737   0.78748   0.97923   0.00000  Uiso   1.00
C1080  C     0.68796   0.79411   0.76272   0.00000  Uiso   1.00
C1081  C     0.97870   0.87256   0.73728   0.00000  Uiso   1.00
C1082  C     0.97862   0.79416   0.76286   0.00000  Uiso   1.00
C1083  C     0.68805   0.87250   0.73714   0.00000  Uiso   1.00
C1084  C     0.95750   0.83338   0.75011   0.00000  Uiso   1.00
H1085  H     0.78073   0.87372   0.88727   0.00000  Uiso   1.00
H1086  H     0.70441   0.90282   0.72675   0.00000  Uiso   1.00
H1087  H     0.88130   0.70907   0.79850   0.00000  Uiso   1.00
H1088  H     0.78537   0.95759   0.70150   0.00000  Uiso   1.00
H1089  H     0.78537   0.70857   0.70150   0.00000  Uiso   1.00
H1090  H     0.88130   0.95810   0.79850   0.00000  Uiso   1.00
H1091  H     0.90235   0.79415   0.85002   0.00000  Uiso   1.00
H1092  H     0.93061   0.80980   0.89381   0.00000  Uiso   1.00
H1093  H     0.76432   0.87251   0.64998   0.00000  Uiso   1.00
H1094  H     0.73605   0.85686   0.60619   0.00000  Uiso   1.00
H1095  H     0.88593   0.79295   0.61273   0.00000  Uiso   1.00
H1096  H     0.74754   0.89751   0.95581   0.00000  Uiso   1.00
H1097  H     0.91912   0.76915   0.54419   0.00000  Uiso   1.00
H1098  H     0.74408   0.89741   0.53675   0.00000  Uiso   1.00
H1099  H     0.92258   0.76926   0.96325   0.00000  Uiso   1.00
H1100  H     0.70426   0.76376   0.77300   0.00000  Uiso   1.00
H1101  H     0.96240   0.90291   0.72700   0.00000  Uiso   1.00
H1102  H     0.96225   0.76385   0.77325   0.00000  Uiso   1.00
N1103  N     0.83333   0.95240   0.75000   0.00000  Uiso   1.00
N1104  N     0.83333   0.71427   0.75000   0.00000  Uiso   1.00
N1105  N     0.90410   0.79134   0.88470   0.00000  Uiso   1.00
N1106  N     0.76256   0.87533   0.61530   0.00000  Uiso   1.00
O1107  O     0.77226   0.87154   0.75000   0.00000  Uiso   1.00
O1108  O     0.89441   0.79513   0.75001   0.00000  Uiso   1.00
O1109  O     0.89441   0.87154   0.75001   0.00000  Uiso   1.00
O1110  O     0.77226   0.79513   0.75000   0.00000  Uiso   1.00
O1111  O     0.83333   0.87156   0.68393   0.00000  Uiso   1.00
O1112  O     0.83334   0.79511   0.81608   0.00000  Uiso   1.00
O1113  O     0.83334   0.87156   0.81608   0.00000  Uiso   1.00
O1114  O     0.83333   0.79511   0.68393   0.00000  Uiso   1.00
Zn1115 Zn    0.83333   0.88437   0.75000   0.00000  Uiso   1.00
Zn1116 Zn    0.83333   0.78229   0.75000   0.00000  Uiso   1.00
loop_
_geom_bond_atom_site_label_1
_geom_bond_atom_site_label_2
_geom_bond_distance
_geom_bond_site_symmetry_2
_ccdc_geom_bond_type
C1     O53     1.282   .     A
C1     O56     1.282   .     A
C1     C2      1.417   .     S
C2     C26     1.397   .     A
C2     C29     1.397   .     A
C3     H33     1.082   .     S
C3     N50     1.366   .     A
C3     C378    1.416   1_545 S
C4     H34     1.082   .     S
C4     N49     1.366   .     A
C4     C191    1.416   .     S
C5     H35     1.082   .     S
C5     N50     1.366   .     A
C5     C376    1.416   1_545 S
C6     N49     1.366   .     A
C6     H36     1.082   .     S
C6     C189    1.416   .     S
C7     O60     1.283   .     A
C7     C13     1.426   .     S
C7     O57     1.284   .     A
C8     O59     1.283   .     A
C8     C11     1.426   .     S
C8     O58     1.284   .     A
C9     C20     1.401   .     A
C9     N51     1.446   .     S
C9     C11     1.412   .     A
C10    N52     1.446   .     S
C10    C21     1.401   .     A
C10    C13     1.412   .     A
C11    C14     1.391   .     A
C12    O55     1.282   .     A
C12    C30     1.417   .     S
C12    O54     1.282   .     A
C13    C15     1.391   .     A
C14    H31     1.086   .     S
C14    C16     1.379   .     A
C15    H41     1.086   .     S
C15    C17     1.379   .     A
C16    C18     1.409   .     A
C16    C22     1.397   .     A
C17    C19     1.409   .     A
C17    C24     1.397   .     A
C18    C20     1.418   .     A
C18    C577    1.398   .     S
C19    C21     1.418   .     A
C19    C576    1.398   1_554 S
C20    C25     1.405   .     A
C21    C23     1.405   .     A
C22    H42     1.084   .     S
C22    C581    1.386   .     S
C23    H44     1.082   .     S
C23    C580    1.386   1_554 S
C24    H43     1.084   .     S
C24    C583    1.386   1_554 S
C25    H45     1.082   .     S
C25    C582    1.386   .     S
C26    H46     1.084   .     S
C26    C152    1.370   1_455 S
C27    C30     1.397   .     A
C27    H47     1.084   .     S
C27    C91     1.370   .     S
C28    C30     1.397   .     A
C28    H48     1.084   .     S
C28    C88     1.370   .     S
C29    H32     1.084   .     S
C29    C151    1.370   1_455 S
H37    N51     1.041   .     S
H38    N51     1.046   .     S
H39    N52     1.041   .     S
H40    N52     1.046   .     S
N49    Zn61    2.009   .     S
N50    Zn62    2.009   .     S
O53    Zn61    1.997   .     S
O54    Zn62    1.997   .     S
O55    Zn61    1.998   .     S
O56    Zn62    1.998   .     S
O57    Zn61    2.009   .     S
O58    Zn62    2.009   .     S
O59    Zn61    2.012   .     S
O60    Zn62    2.012   .     S
C63    O115    1.282   .     A
C63    O118    1.282   .     A
C63    C64     1.417   .     S
C64    C88     1.397   .     A
C64    C91     1.397   .     A
C65    H95     1.082   .     S
C65    N112    1.366   .     A
C65    C440    1.416   1_545 S
C66    H96     1.082   .     S
C66    N111    1.366   .     A
C66    C253    1.416   .     S
C67    H97     1.082   .     S
C67    N112    1.366   .     A
C67    C438    1.416   1_545 S
C68    N111    1.366   .     A
C68    H98     1.082   .     S
C68    C251    1.416   .     S
C69    O122    1.283   .     A
C69    C75     1.426   .     S
C69    O119    1.284   .     A
C70    O121    1.283   .     A
C70    C73     1.426   .     S
C70    O120    1.284   .     A
C71    C82     1.401   .     A
C71    N113    1.446   .     S
C71    C73     1.412   .     A
C72    N114    1.446   .     S
C72    C83     1.401   .     A
C72    C75     1.412   .     A
C73    C76     1.391   .     A
C74    O117    1.282   .     A
C74    C92     1.417   .     S
C74    O116    1.282   .     A
C75    C77     1.391   .     A
C76    H93     1.086   .     S
C76    C78     1.379   .     A
C77    H103    1.086   .     S
C77    C79     1.379   .     A
C78    C80     1.409   .     A
C78    C84     1.397   .     A
C79    C81     1.409   .     A
C79    C86     1.397   .     A
C80    C82     1.418   .     A
C80    C639    1.398   .     S
C81    C83     1.418   .     A
C81    C638    1.398   1_554 S
C82    C87     1.405   .     A
C83    C85     1.405   .     A
C84    H104    1.084   .     S
C84    C643    1.386   .     S
C85    H106    1.082   .     S
C85    C642    1.386   1_554 S
C86    H105    1.084   .     S
C86    C645    1.386   1_554 S
C87    H107    1.082   .     S
C87    C644    1.386   .     S
C88    H108    1.084   .     S
C89    C92     1.397   .     A
C89    H109    1.084   .     S
C89    C153    1.370   .     S
C90    C92     1.397   .     A
C90    H110    1.084   .     S
C90    C150    1.370   .     S
C91    H94     1.084   .     S
H99    N113    1.041   .     S
H100   N113    1.046   .     S
H101   N114    1.041   .     S
H102   N114    1.046   .     S
N111   Zn123   2.009   .     S
N112   Zn124   2.009   .     S
O115   Zn123   1.997   .     S
O116   Zn124   1.997   .     S
O117   Zn123   1.998   .     S
O118   Zn124   1.998   .     S
O119   Zn123   2.009   .     S
O120   Zn124   2.009   .     S
O121   Zn123   2.012   .     S
O122   Zn124   2.012   .     S
C125   O177    1.282   .     A
C125   O180    1.282   .     A
C125   C126    1.417   .     S
C126   C150    1.397   .     A
C126   C153    1.397   .     A
C127   H157    1.082   .     S
C127   N174    1.366   .     A
C127   C502    1.416   1_545 S
C128   H158    1.082   .     S
C128   N173    1.366   .     A
C128   C315    1.416   .     S
C129   H159    1.082   .     S
C129   N174    1.366   .     A
C129   C500    1.416   1_545 S
C130   N173    1.366   .     A
C130   H160    1.082   .     S
C130   C313    1.416   .     S
C131   O184    1.283   .     A
C131   C137    1.426   .     S
C131   O181    1.284   .     A
C132   O183    1.283   .     A
C132   C135    1.426   .     S
C132   O182    1.284   .     A
C133   C144    1.401   .     A
C133   N175    1.446   .     S
C133   C135    1.412   .     A
C134   N176    1.446   .     S
C134   C145    1.401   .     A
C134   C137    1.412   .     A
C135   C138    1.391   .     A
C136   O179    1.282   .     A
C136   C154    1.417   .     S
C136   O178    1.282   .     A
C137   C139    1.391   .     A
C138   H155    1.086   .     S
C138   C140    1.379   .     A
C139   H165    1.086   .     S
C139   C141    1.379   .     A
C140   C142    1.409   .     A
C140   C146    1.397   .     A
C141   C143    1.409   .     A
C141   C148    1.397   .     A
C142   C144    1.418   .     A
C142   C701    1.398   .     S
C143   C145    1.418   .     A
C143   C700    1.398   1_554 S
C144   C149    1.405   .     A
C145   C147    1.405   .     A
C146   H166    1.084   .     S
C146   C705    1.386   .     S
C147   H168    1.082   .     S
C147   C704    1.386   1_554 S
C148   H167    1.084   .     S
C148   C707    1.386   1_554 S
C149   H169    1.082   .     S
C149   C706    1.386   .     S
C150   H170    1.084   .     S
C151   C154    1.397   .     A
C151   H171    1.084   .     S
C151   C29     1.370   1_655 S
C152   C154    1.397   .     A
C152   H172    1.084   .     S
C152   C26     1.370   1_655 S
C153   H156    1.084   .     S
H161   N175    1.041   .     S
H162   N175    1.046   .     S
H163   N176    1.041   .     S
H164   N176    1.046   .     S
N173   Zn185   2.009   .     S
N174   Zn186   2.009   .     S
O177   Zn185   1.997   .     S
O178   Zn186   1.997   .     S
O179   Zn185   1.998   .     S
O180   Zn186   1.998   .     S
O181   Zn185   2.009   .     S
O182   Zn186   2.009   .     S
O183   Zn185   2.012   .     S
O184   Zn186   2.012   .     S
C187   O239    1.282   .     A
C187   O242    1.282   .     A
C187   C188    1.417   .     S
C188   C212    1.397   .     A
C188   C215    1.397   .     A
C189   H219    1.082   .     S
C189   N236    1.366   .     A
C190   H220    1.082   .     S
C190   N235    1.366   .     A
C190   C377    1.416   .     S
C191   H221    1.082   .     S
C191   N236    1.366   .     A
C192   N235    1.366   .     A
C192   H222    1.082   .     S
C192   C375    1.416   .     S
C193   O246    1.283   .     A
C193   C199    1.426   .     S
C193   O243    1.284   .     A
C194   O245    1.283   .     A
C194   C197    1.426   .     S
C194   O244    1.284   .     A
C195   C206    1.401   .     A
C195   N237    1.446   .     S
C195   C197    1.412   .     A
C196   N238    1.446   .     S
C196   C207    1.401   .     A
C196   C199    1.412   .     A
C197   C200    1.391   .     A
C198   O241    1.282   .     A
C198   C216    1.417   .     S
C198   O240    1.282   .     A
C199   C201    1.391   .     A
C200   H217    1.086   .     S
C200   C202    1.379   .     A
C201   H227    1.086   .     S
C201   C203    1.379   .     A
C202   C204    1.409   .     A
C202   C208    1.397   .     A
C203   C205    1.409   .     A
C203   C210    1.397   .     A
C204   C206    1.418   .     A
C204   C763    1.398   .     S
C205   C207    1.418   .     A
C205   C762    1.398   1_554 S
C206   C211    1.405   .     A
C207   C209    1.405   .     A
C208   H228    1.084   .     S
C208   C767    1.386   .     S
C209   H230    1.082   .     S
C209   C766    1.386   1_554 S
C210   H229    1.084   .     S
C210   C769    1.386   1_554 S
C211   H231    1.082   .     S
C211   C768    1.386   .     S
C212   H232    1.084   .     S
C212   C338    1.370   1_455 S
C213   C216    1.397   .     A
C213   H233    1.084   .     S
C213   C277    1.370   .     S
C214   C216    1.397   .     A
C214   H234    1.084   .     S
C214   C274    1.370   .     S
C215   H218    1.084   .     S
C215   C337    1.370   1_455 S
H223   N237    1.041   .     S
H224   N237    1.046   .     S
H225   N238    1.041   .     S
H226   N238    1.046   .     S
N235   Zn247   2.009   .     S
N236   Zn248   2.009   .     S
O239   Zn247   1.997   .     S
O240   Zn248   1.997   .     S
O241   Zn247   1.998   .     S
O242   Zn248   1.998   .     S
O243   Zn247   2.009   .     S
O244   Zn248   2.009   .     S
O245   Zn247   2.012   .     S
O246   Zn248   2.012   .     S
C249   O301    1.282   .     A
C249   O304    1.282   .     A
C249   C250    1.417   .     S
C250   C274    1.397   .     A
C250   C277    1.397   .     A
C251   H281    1.082   .     S
C251   N298    1.366   .     A
C252   H282    1.082   .     S
C252   N297    1.366   .     A
C252   C439    1.416   .     S
C253   H283    1.082   .     S
C253   N298    1.366   .     A
C254   N297    1.366   .     A
C254   H284    1.082   .     S
C254   C437    1.416   .     S
C255   O308    1.283   .     A
C255   C261    1.426   .     S
C255   O305    1.284   .     A
C256   O307    1.283   .     A
C256   C259    1.426   .     S
C256   O306    1.284   .     A
C257   C268    1.401   .     A
C257   N299    1.446   .     S
C257   C259    1.412   .     A
C258   N300    1.446   .     S
C258   C269    1.401   .     A
C258   C261    1.412   .     A
C259   C262    1.391   .     A
C260   O303    1.282   .     A
C260   C278    1.417   .     S
C260   O302    1.282   .     A
C261   C263    1.391   .     A
C262   H279    1.086   .     S
C262   C264    1.379   .     A
C263   H289    1.086   .     S
C263   C265    1.379   .     A
C264   C266    1.409   .     A
C264   C270    1.397   .     A
C265   C267    1.409   .     A
C265   C272    1.397   .     A
C266   C268    1.418   .     A
C266   C825    1.398   .     S
C267   C269    1.418   .     A
C267   C824    1.398   1_554 S
C268   C273    1.405   .     A
C269   C271    1.405   .     A
C270   H290    1.084   .     S
C270   C829    1.386   .     S
C271   H292    1.082   .     S
C271   C828    1.386   1_554 S
C272   H291    1.084   .     S
C272   C831    1.386   1_554 S
C273   H293    1.082   .     S
C273   C830    1.386   .     S
C274   H294    1.084   .     S
C275   C278    1.397   .     A
C275   H295    1.084   .     S
C275   C339    1.370   .     S
C276   C278    1.397   .     A
C276   H296    1.084   .     S
C276   C336    1.370   .     S
C277   H280    1.084   .     S
H285   N299    1.041   .     S
H286   N299    1.046   .     S
H287   N300    1.041   .     S
H288   N300    1.046   .     S
N297   Zn309   2.009   .     S
N298   Zn310   2.009   .     S
O301   Zn309   1.997   .     S
O302   Zn310   1.997   .     S
O303   Zn309   1.998   .     S
O304   Zn310   1.998   .     S
O305   Zn309   2.009   .     S
O306   Zn310   2.009   .     S
O307   Zn309   2.012   .     S
O308   Zn310   2.012   .     S
C311   O363    1.282   .     A
C311   O366    1.282   .     A
C311   C312    1.417   .     S
C312   C336    1.397   .     A
C312   C339    1.397   .     A
C313   H343    1.082   .     S
C313   N360    1.366   .     A
C314   H344    1.082   .     S
C314   N359    1.366   .     A
C314   C501    1.416   .     S
C315   H345    1.082   .     S
C315   N360    1.366   .     A
C316   N359    1.366   .     A
C316   H346    1.082   .     S
C316   C499    1.416   .     S
C317   O370    1.283   .     A
C317   C323    1.426   .     S
C317   O367    1.284   .     A
C318   O369    1.283   .     A
C318   C321    1.426   .     S
C318   O368    1.284   .     A
C319   C330    1.401   .     A
C319   N361    1.446   .     S
C319   C321    1.412   .     A
C320   N362    1.446   .     S
C320   C331    1.401   .     A
C320   C323    1.412   .     A
C321   C324    1.391   .     A
C322   O365    1.282   .     A
C322   C340    1.417   .     S
C322   O364    1.282   .     A
C323   C325    1.391   .     A
C324   H341    1.086   .     S
C324   C326    1.379   .     A
C325   H351    1.086   .     S
C325   C327    1.379   .     A
C326   C328    1.409   .     A
C326   C332    1.397   .     A
C327   C329    1.409   .     A
C327   C334    1.397   .     A
C328   C330    1.418   .     A
C328   C887    1.398   .     S
C329   C331    1.418   .     A
C329   C886    1.398   1_554 S
C330   C335    1.405   .     A
C331   C333    1.405   .     A
C332   H352    1.084   .     S
C332   C891    1.386   .     S
C333   H354    1.082   .     S
C333   C890    1.386   1_554 S
C334   H353    1.084   .     S
C334   C893    1.386   1_554 S
C335   H355    1.082   .     S
C335   C892    1.386   .     S
C336   H356    1.084   .     S
C337   C340    1.397   .     A
C337   H357    1.084   .     S
C337   C215    1.370   1_655 S
C338   C340    1.397   .     A
C338   H358    1.084   .     S
C338   C212    1.370   1_655 S
C339   H342    1.084   .     S
H347   N361    1.041   .     S
H348   N361    1.046   .     S
H349   N362    1.041   .     S
H350   N362    1.046   .     S
N359   Zn371   2.009   .     S
N360   Zn372   2.009   .     S
O363   Zn371   1.997   .     S
O364   Zn372   1.997   .     S
O365   Zn371   1.998   .     S
O366   Zn372   1.998   .     S
O367   Zn371   2.009   .     S
O368   Zn372   2.009   .     S
O369   Zn371   2.012   .     S
O370   Zn372   2.012   .     S
C373   O425    1.282   .     A
C373   O428    1.282   .     A
C373   C374    1.417   .     S
C374   C398    1.397   .     A
C374   C401    1.397   .     A
C375   H405    1.082   .     S
C375   N422    1.366   .     A
C376   H406    1.082   .     S
C376   N421    1.366   .     A
C376   C5      1.416   1_565 S
C377   H407    1.082   .     S
C377   N422    1.366   .     A
C378   N421    1.366   .     A
C378   H408    1.082   .     S
C378   C3      1.416   1_565 S
C379   O432    1.283   .     A
C379   C385    1.426   .     S
C379   O429    1.284   .     A
C380   O431    1.283   .     A
C380   C383    1.426   .     S
C380   O430    1.284   .     A
C381   C392    1.401   .     A
C381   N423    1.446   .     S
C381   C383    1.412   .     A
C382   N424    1.446   .     S
C382   C393    1.401   .     A
C382   C385    1.412   .     A
C383   C386    1.391   .     A
C384   O427    1.282   .     A
C384   C402    1.417   .     S
C384   O426    1.282   .     A
C385   C387    1.391   .     A
C386   H403    1.086   .     S
C386   C388    1.379   .     A
C387   H413    1.086   .     S
C387   C389    1.379   .     A
C388   C390    1.409   .     A
C388   C394    1.397   .     A
C389   C391    1.409   .     A
C389   C396    1.397   .     A
C390   C392    1.418   .     A
C390   C949    1.398   .     S
C391   C393    1.418   .     A
C391   C948    1.398   1_554 S
C392   C397    1.405   .     A
C393   C395    1.405   .     A
C394   H414    1.084   .     S
C394   C953    1.386   .     S
C395   H416    1.082   .     S
C395   C952    1.386   1_554 S
C396   H415    1.084   .     S
C396   C955    1.386   1_554 S
C397   H417    1.082   .     S
C397   C954    1.386   .     S
C398   H418    1.084   .     S
C398   C524    1.370   1_455 S
C399   C402    1.397   .     A
C399   H419    1.084   .     S
C399   C463    1.370   .     S
C400   C402    1.397   .     A
C400   H420    1.084   .     S
C400   C460    1.370   .     S
C401   H404    1.084   .     S
C401   C523    1.370   1_455 S
H409   N423    1.041   .     S
H410   N423    1.046   .     S
H411   N424    1.041   .     S
H412   N424    1.046   .     S
N421   Zn433   2.009   .     S
N422   Zn434   2.009   .     S
O425   Zn433   1.997   .     S
O426   Zn434   1.997   .     S
O427   Zn433   1.998   .     S
O428   Zn434   1.998   .     S
O429   Zn433   2.009   .     S
O430   Zn434   2.009   .     S
O431   Zn433   2.012   .     S
O432   Zn434   2.012   .     S
C435   O487    1.282   .     A
C435   O490    1.282   .     A
C435   C436    1.417   .     S
C436   C460    1.397   .     A
C436   C463    1.397   .     A
C437   H467    1.082   .     S
C437   N484    1.366   .     A
C438   H468    1.082   .     S
C438   N483    1.366   .     A
C438   C67     1.416   1_565 S
C439   H469    1.082   .     S
C439   N484    1.366   .     A
C440   N483    1.366   .     A
C440   H470    1.082   .     S
C440   C65     1.416   1_565 S
C441   O494    1.283   .     A
C441   C447    1.426   .     S
C441   O491    1.284   .     A
C442   O493    1.283   .     A
C442   C445    1.426   .     S
C442   O492    1.284   .     A
C443   C454    1.401   .     A
C443   N485    1.446   .     S
C443   C445    1.412   .     A
C444   N486    1.446   .     S
C444   C455    1.401   .     A
C444   C447    1.412   .     A
C445   C448    1.391   .     A
C446   O489    1.282   .     A
C446   C464    1.417   .     S
C446   O488    1.282   .     A
C447   C449    1.391   .     A
C448   H465    1.086   .     S
C448   C450    1.379   .     A
C449   H475    1.086   .     S
C449   C451    1.379   .     A
C450   C452    1.409   .     A
C450   C456    1.397   .     A
C451   C453    1.409   .     A
C451   C458    1.397   .     A
C452   C454    1.418   .     A
C452   C1011   1.398   .     S
C453   C455    1.418   .     A
C453   C1010   1.398   1_554 S
C454   C459    1.405   .     A
C455   C457    1.405   .     A
C456   H476    1.084   .     S
C456   C1015   1.386   .     S
C457   H478    1.082   .     S
C457   C1014   1.386   1_554 S
C458   H477    1.084   .     S
C458   C1017   1.386   1_554 S
C459   H479    1.082   .     S
C459   C1016   1.386   .     S
C460   H480    1.084   .     S
C461   C464    1.397   .     A
C461   H481    1.084   .     S
C461   C525    1.370   .     S
C462   C464    1.397   .     A
C462   H482    1.084   .     S
C462   C522    1.370   .     S
C463   H466    1.084   .     S
H471   N485    1.041   .     S
H472   N485    1.046   .     S
H473   N486    1.041   .     S
H474   N486    1.046   .     S
N483   Zn495   2.009   .     S
N484   Zn496   2.009   .     S
O487   Zn495   1.997   .     S
O488   Zn496   1.997   .     S
O489   Zn495   1.998   .     S
O490   Zn496   1.998   .     S
O491   Zn495   2.009   .     S
O492   Zn496   2.009   .     S
O493   Zn495   2.012   .     S
O494   Zn496   2.012   .     S
C497   O549    1.282   .     A
C497   O552    1.282   .     A
C497   C498    1.417   .     S
C498   C522    1.397   .     A
C498   C525    1.397   .     A
C499   H529    1.082   .     S
C499   N546    1.366   .     A
C500   H530    1.082   .     S
C500   N545    1.366   .     A
C500   C129    1.416   1_565 S
C501   H531    1.082   .     S
C501   N546    1.366   .     A
C502   N545    1.366   .     A
C502   H532    1.082   .     S
C502   C127    1.416   1_565 S
C503   O556    1.283   .     A
C503   C509    1.426   .     S
C503   O553    1.284   .     A
C504   O555    1.283   .     A
C504   C507    1.426   .     S
C504   O554    1.284   .     A
C505   C516    1.401   .     A
C505   N547    1.446   .     S
C505   C507    1.412   .     A
C506   N548    1.446   .     S
C506   C517    1.401   .     A
C506   C509    1.412   .     A
C507   C510    1.391   .     A
C508   O551    1.282   .     A
C508   C526    1.417   .     S
C508   O550    1.282   .     A
C509   C511    1.391   .     A
C510   H527    1.086   .     S
C510   C512    1.379   .     A
C511   H537    1.086   .     S
C511   C513    1.379   .     A
C512   C514    1.409   .     A
C512   C518    1.397   .     A
C513   C515    1.409   .     A
C513   C520    1.397   .     A
C514   C516    1.418   .     A
C514   C1073   1.398   .     S
C515   C517    1.418   .     A
C515   C1072   1.398   1_554 S
C516   C521    1.405   .     A
C517   C519    1.405   .     A
C518   H538    1.084   .     S
C518   C1077   1.386   .     S
C519   H540    1.082   .     S
C519   C1076   1.386   1_554 S
C520   H539    1.084   .     S
C520   C1079   1.386   1_554 S
C521   H541    1.082   .     S
C521   C1078   1.386   .     S
C522   H542    1.084   .     S
C523   C526    1.397   .     A
C523   H543    1.084   .     S
C523   C401    1.370   1_655 S
C524   C526    1.397   .     A
C524   H544    1.084   .     S
C524   C398    1.370   1_655 S
C525   H528    1.084   .     S
H533   N547    1.041   .     S
H534   N547    1.046   .     S
H535   N548    1.041   .     S
H536   N548    1.046   .     S
N545   Zn557   2.009   .     S
N546   Zn558   2.009   .     S
O549   Zn557   1.997   .     S
O550   Zn558   1.997   .     S
O551   Zn557   1.998   .     S
O552   Zn558   1.998   .     S
O553   Zn557   2.009   .     S
O554   Zn558   2.009   .     S
O555   Zn557   2.012   .     S
O556   Zn558   2.012   .     S
C559   O611    1.282   .     A
C559   O614    1.282   .     A
C559   C560    1.417   .     S
C560   C584    1.397   .     A
C560   C587    1.397   .     A
C561   H591    1.082   .     S
C561   N608    1.366   .     A
C561   C936    1.416   1_545 S
C562   H592    1.082   .     S
C562   N607    1.366   .     A
C562   C749    1.416   .     S
C563   H593    1.082   .     S
C563   N608    1.366   .     A
C563   C934    1.416   1_545 S
C564   N607    1.366   .     A
C564   H594    1.082   .     S
C564   C747    1.416   .     S
C565   O618    1.283   .     A
C565   C571    1.426   .     S
C565   O615    1.284   .     A
C566   O617    1.283   .     A
C566   C569    1.426   .     S
C566   O616    1.284   .     A
C567   C578    1.401   .     A
C567   N609    1.446   .     S
C567   C569    1.412   .     A
C568   N610    1.446   .     S
C568   C579    1.401   .     A
C568   C571    1.412   .     A
C569   C572    1.391   .     A
C570   O613    1.282   .     A
C570   C588    1.417   .     S
C570   O612    1.282   .     A
C571   C573    1.391   .     A
C572   H589    1.086   .     S
C572   C574    1.379   .     A
C573   H599    1.086   .     S
C573   C575    1.379   .     A
C574   C576    1.409   .     A
C574   C580    1.397   .     A
C575   C577    1.409   .     A
C575   C582    1.397   .     A
C576   C578    1.418   .     A
C576   C19     1.398   1_556 S
C577   C579    1.418   .     A
C578   C583    1.405   .     A
C579   C581    1.405   .     A
C580   H600    1.084   .     S
C580   C23     1.386   1_556 S
C581   H602    1.082   .     S
C582   H601    1.084   .     S
C583   H603    1.082   .     S
C583   C24     1.386   1_556 S
C584   H604    1.084   .     S
C584   C710    1.370   1_455 S
C585   C588    1.397   .     A
C585   H605    1.084   .     S
C585   C649    1.370   .     S
C586   C588    1.397   .     A
C586   H606    1.084   .     S
C586   C646    1.370   .     S
C587   H590    1.084   .     S
C587   C709    1.370   1_455 S
H595   N609    1.041   .     S
H596   N609    1.046   .     S
H597   N610    1.041   .     S
H598   N610    1.046   .     S
N607   Zn619   2.009   .     S
N608   Zn620   2.009   .     S
O611   Zn619   1.997   .     S
O612   Zn620   1.997   .     S
O613   Zn619   1.998   .     S
O614   Zn620   1.998   .     S
O615   Zn619   2.009   .     S
O616   Zn620   2.009   .     S
O617   Zn619   2.012   .     S
O618   Zn620   2.012   .     S
C621   O673    1.282   .     A
C621   O676    1.282   .     A
C621   C622    1.417   .     S
C622   C646    1.397   .     A
C622   C649    1.397   .     A
C623   H653    1.082   .     S
C623   N670    1.366   .     A
C623   C998    1.416   1_545 S
C624   H654    1.082   .     S
C624   N669    1.366   .     A
C624   C811    1.416   .     S
C625   H655    1.082   .     S
C625   N670    1.366   .     A
C625   C996    1.416   1_545 S
C626   N669    1.366   .     A
C626   H656    1.082   .     S
C626   C809    1.416   .     S
C627   O680    1.283   .     A
C627   C633    1.426   .     S
C627   O677    1.284   .     A
C628   O679    1.283   .     A
C628   C631    1.426   .     S
C628   O678    1.284   .     A
C629   C640    1.401   .     A
C629   N671    1.446   .     S
C629   C631    1.412   .     A
C630   N672    1.446   .     S
C630   C641    1.401   .     A
C630   C633    1.412   .     A
C631   C634    1.391   .     A
C632   O675    1.282   .     A
C632   C650    1.417   .     S
C632   O674    1.282   .     A
C633   C635    1.391   .     A
C634   H651    1.086   .     S
C634   C636    1.379   .     A
C635   H661    1.086   .     S
C635   C637    1.379   .     A
C636   C638    1.409   .     A
C636   C642    1.397   .     A
C637   C639    1.409   .     A
C637   C644    1.397   .     A
C638   C640    1.418   .     A
C638   C81     1.398   1_556 S
C639   C641    1.418   .     A
C640   C645    1.405   .     A
C641   C643    1.405   .     A
C642   H662    1.084   .     S
C642   C85     1.386   1_556 S
C643   H664    1.082   .     S
C644   H663    1.084   .     S
C645   H665    1.082   .     S
C645   C86     1.386   1_556 S
C646   H666    1.084   .     S
C647   C650    1.397   .     A
C647   H667    1.084   .     S
C647   C711    1.370   .     S
C648   C650    1.397   .     A
C648   H668    1.084   .     S
C648   C708    1.370   .     S
C649   H652    1.084   .     S
H657   N671    1.041   .     S
H658   N671    1.046   .     S
H659   N672    1.041   .     S
H660   N672    1.046   .     S
N669   Zn681   2.009   .     S
N670   Zn682   2.009   .     S
O673   Zn681   1.997   .     S
O674   Zn682   1.997   .     S
O675   Zn681   1.998   .     S
O676   Zn682   1.998   .     S
O677   Zn681   2.009   .     S
O678   Zn682   2.009   .     S
O679   Zn681   2.012   .     S
O680   Zn682   2.012   .     S
C683   O735    1.282   .     A
C683   O738    1.282   .     A
C683   C684    1.417   .     S
C684   C708    1.397   .     A
C684   C711    1.397   .     A
C685   H715    1.082   .     S
C685   N732    1.366   .     A
C685   C1060   1.416   1_545 S
C686   H716    1.082   .     S
C686   N731    1.366   .     A
C686   C873    1.416   .     S
C687   H717    1.082   .     S
C687   N732    1.366   .     A
C687   C1058   1.416   1_545 S
C688   N731    1.366   .     A
C688   H718    1.082   .     S
C688   C871    1.416   .     S
C689   O742    1.283   .     A
C689   C695    1.426   .     S
C689   O739    1.284   .     A
C690   O741    1.283   .     A
C690   C693    1.426   .     S
C690   O740    1.284   .     A
C691   C702    1.401   .     A
C691   N733    1.446   .     S
C691   C693    1.412   .     A
C692   N734    1.446   .     S
C692   C703    1.401   .     A
C692   C695    1.412   .     A
C693   C696    1.391   .     A
C694   O737    1.282   .     A
C694   C712    1.417   .     S
C694   O736    1.282   .     A
C695   C697    1.391   .     A
C696   H713    1.086   .     S
C696   C698    1.379   .     A
C697   H723    1.086   .     S
C697   C699    1.379   .     A
C698   C700    1.409   .     A
C698   C704    1.397   .     A
C699   C701    1.409   .     A
C699   C706    1.397   .     A
C700   C702    1.418   .     A
C700   C143    1.398   1_556 S
C701   C703    1.418   .     A
C702   C707    1.405   .     A
C703   C705    1.405   .     A
C704   H724    1.084   .     S
C704   C147    1.386   1_556 S
C705   H726    1.082   .     S
C706   H725    1.084   .     S
C707   H727    1.082   .     S
C707   C148    1.386   1_556 S
C708   H728    1.084   .     S
C709   C712    1.397   .     A
C709   H729    1.084   .     S
C709   C587    1.370   1_655 S
C710   C712    1.397   .     A
C710   H730    1.084   .     S
C710   C584    1.370   1_655 S
C711   H714    1.084   .     S
H719   N733    1.041   .     S
H720   N733    1.046   .     S
H721   N734    1.041   .     S
H722   N734    1.046   .     S
N731   Zn743   2.009   .     S
N732   Zn744   2.009   .     S
O735   Zn743   1.997   .     S
O736   Zn744   1.997   .     S
O737   Zn743   1.998   .     S
O738   Zn744   1.998   .     S
O739   Zn743   2.009   .     S
O740   Zn744   2.009   .     S
O741   Zn743   2.012   .     S
O742   Zn744   2.012   .     S
C745   O797    1.282   .     A
C745   O800    1.282   .     A
C745   C746    1.417   .     S
C746   C770    1.397   .     A
C746   C773    1.397   .     A
C747   H777    1.082   .     S
C747   N794    1.366   .     A
C748   H778    1.082   .     S
C748   N793    1.366   .     A
C748   C935    1.416   .     S
C749   H779    1.082   .     S
C749   N794    1.366   .     A
C750   N793    1.366   .     A
C750   H780    1.082   .     S
C750   C933    1.416   .     S
C751   O804    1.283   .     A
C751   C757    1.426   .     S
C751   O801    1.284   .     A
C752   O803    1.283   .     A
C752   C755    1.426   .     S
C752   O802    1.284   .     A
C753   C764    1.401   .     A
C753   N795    1.446   .     S
C753   C755    1.412   .     A
C754   N796    1.446   .     S
C754   C765    1.401   .     A
C754   C757    1.412   .     A
C755   C758    1.391   .     A
C756   O799    1.282   .     A
C756   C774    1.417   .     S
C756   O798    1.282   .     A
C757   C759    1.391   .     A
C758   H775    1.086   .     S
C758   C760    1.379   .     A
C759   H785    1.086   .     S
C759   C761    1.379   .     A
C760   C762    1.409   .     A
C760   C766    1.397   .     A
C761   C763    1.409   .     A
C761   C768    1.397   .     A
C762   C764    1.418   .     A
C762   C205    1.398   1_556 S
C763   C765    1.418   .     A
C764   C769    1.405   .     A
C765   C767    1.405   .     A
C766   H786    1.084   .     S
C766   C209    1.386   1_556 S
C767   H788    1.082   .     S
C768   H787    1.084   .     S
C769   H789    1.082   .     S
C769   C210    1.386   1_556 S
C770   H790    1.084   .     S
C770   C896    1.370   1_455 S
C771   C774    1.397   .     A
C771   H791    1.084   .     S
C771   C835    1.370   .     S
C772   C774    1.397   .     A
C772   H792    1.084   .     S
C772   C832    1.370   .     S
C773   H776    1.084   .     S
C773   C895    1.370   1_455 S
H781   N795    1.041   .     S
H782   N795    1.046   .     S
H783   N796    1.041   .     S
H784   N796    1.046   .     S
N793   Zn805   2.009   .     S
N794   Zn806   2.009   .     S
O797   Zn805   1.997   .     S
O798   Zn806   1.997   .     S
O799   Zn805   1.998   .     S
O800   Zn806   1.998   .     S
O801   Zn805   2.009   .     S
O802   Zn806   2.009   .     S
O803   Zn805   2.012   .     S
O804   Zn806   2.012   .     S
C807   O859    1.282   .     A
C807   O862    1.282   .     A
C807   C808    1.417   .     S
C808   C832    1.397   .     A
C808   C835    1.397   .     A
C809   H839    1.082   .     S
C809   N856    1.366   .     A
C810   H840    1.082   .     S
C810   N855    1.366   .     A
C810   C997    1.416   .     S
C811   H841    1.082   .     S
C811   N856    1.366   .     A
C812   N855    1.366   .     A
C812   H842    1.082   .     S
C812   C995    1.416   .     S
C813   O866    1.283   .     A
C813   C819    1.426   .     S
C813   O863    1.284   .     A
C814   O865    1.283   .     A
C814   C817    1.426   .     S
C814   O864    1.284   .     A
C815   C826    1.401   .     A
C815   N857    1.446   .     S
C815   C817    1.412   .     A
C816   N858    1.446   .     S
C816   C827    1.401   .     A
C816   C819    1.412   .     A
C817   C820    1.391   .     A
C818   O861    1.282   .     A
C818   C836    1.417   .     S
C818   O860    1.282   .     A
C819   C821    1.391   .     A
C820   H837    1.086   .     S
C820   C822    1.379   .     A
C821   H847    1.086   .     S
C821   C823    1.379   .     A
C822   C824    1.409   .     A
C822   C828    1.397   .     A
C823   C825    1.409   .     A
C823   C830    1.397   .     A
C824   C826    1.418   .     A
C824   C267    1.398   1_556 S
C825   C827    1.418   .     A
C826   C831    1.405   .     A
C827   C829    1.405   .     A
C828   H848    1.084   .     S
C828   C271    1.386   1_556 S
C829   H850    1.082   .     S
C830   H849    1.084   .     S
C831   H851    1.082   .     S
C831   C272    1.386   1_556 S
C832   H852    1.084   .     S
C833   C836    1.397   .     A
C833   H853    1.084   .     S
C833   C897    1.370   .     S
C834   C836    1.397   .     A
C834   H854    1.084   .     S
C834   C894    1.370   .     S
C835   H838    1.084   .     S
H843   N857    1.041   .     S
H844   N857    1.046   .     S
H845   N858    1.041   .     S
H846   N858    1.046   .     S
N855   Zn867   2.009   .     S
N856   Zn868   2.009   .     S
O859   Zn867   1.997   .     S
O860   Zn868   1.997   .     S
O861   Zn867   1.998   .     S
O862   Zn868   1.998   .     S
O863   Zn867   2.009   .     S
O864   Zn868   2.009   .     S
O865   Zn867   2.012   .     S
O866   Zn868   2.012   .     S
C869   O921    1.282   .     A
C869   O924    1.282   .     A
C869   C870    1.417   .     S
C870   C894    1.397   .     A
C870   C897    1.397   .     A
C871   H901    1.082   .     S
C871   N918    1.366   .     A
C872   H902    1.082   .     S
C872   N917    1.366   .     A
C872   C1059   1.416   .     S
C873   H903    1.082   .     S
C873   N918    1.366   .     A
C874   N917    1.366   .     A
C874   H904    1.082   .     S
C874   C1057   1.416   .     S
C875   O928    1.283   .     A
C875   C881    1.426   .     S
C875   O925    1.284   .     A
C876   O927    1.283   .     A
C876   C879    1.426   .     S
C876   O926    1.284   .     A
C877   C888    1.401   .     A
C877   N919    1.446   .     S
C877   C879    1.412   .     A
C878   N920    1.446   .     S
C878   C889    1.401   .     A
C878   C881    1.412   .     A
C879   C882    1.391   .     A
C880   O923    1.282   .     A
C880   C898    1.417   .     S
C880   O922    1.282   .     A
C881   C883    1.391   .     A
C882   H899    1.086   .     S
C882   C884    1.379   .     A
C883   H909    1.086   .     S
C883   C885    1.379   .     A
C884   C886    1.409   .     A
C884   C890    1.397   .     A
C885   C887    1.409   .     A
C885   C892    1.397   .     A
C886   C888    1.418   .     A
C886   C329    1.398   1_556 S
C887   C889    1.418   .     A
C888   C893    1.405   .     A
C889   C891    1.405   .     A
C890   H910    1.084   .     S
C890   C333    1.386   1_556 S
C891   H912    1.082   .     S
C892   H911    1.084   .     S
C893   H913    1.082   .     S
C893   C334    1.386   1_556 S
C894   H914    1.084   .     S
C895   C898    1.397   .     A
C895   H915    1.084   .     S
C895   C773    1.370   1_655 S
C896   C898    1.397   .     A
C896   H916    1.084   .     S
C896   C770    1.370   1_655 S
C897   H900    1.084   .     S
H905   N919    1.041   .     S
H906   N919    1.046   .     S
H907   N920    1.041   .     S
H908   N920    1.046   .     S
N917   Zn929   2.009   .     S
N918   Zn930   2.009   .     S
O921   Zn929   1.997   .     S
O922   Zn930   1.997   .     S
O923   Zn929   1.998   .     S
O924   Zn930   1.998   .     S
O925   Zn929   2.009   .     S
O926   Zn930   2.009   .     S
O927   Zn929   2.012   .     S
O928   Zn930   2.012   .     S
C931   O983    1.282   .     A
C931   O986    1.282   .     A
C931   C932    1.417   .     S
C932   C956    1.397   .     A
C932   C959    1.397   .     A
C933   H963    1.082   .     S
C933   N980    1.366   .     A
C934   H964    1.082   .     S
C934   N979    1.366   .     A
C934   C563    1.416   1_565 S
C935   H965    1.082   .     S
C935   N980    1.366   .     A
C936   N979    1.366   .     A
C936   H966    1.082   .     S
C936   C561    1.416   1_565 S
C937   O990    1.283   .     A
C937   C943    1.426   .     S
C937   O987    1.284   .     A
C938   O989    1.283   .     A
C938   C941    1.426   .     S
C938   O988    1.284   .     A
C939   C950    1.401   .     A
C939   N981    1.446   .     S
C939   C941    1.412   .     A
C940   N982    1.446   .     S
C940   C951    1.401   .     A
C940   C943    1.412   .     A
C941   C944    1.391   .     A
C942   O985    1.282   .     A
C942   C960    1.417   .     S
C942   O984    1.282   .     A
C943   C945    1.391   .     A
C944   H961    1.086   .     S
C944   C946    1.379   .     A
C945   H971    1.086   .     S
C945   C947    1.379   .     A
C946   C948    1.409   .     A
C946   C952    1.397   .     A
C947   C949    1.409   .     A
C947   C954    1.397   .     A
C948   C950    1.418   .     A
C948   C391    1.398   1_556 S
C949   C951    1.418   .     A
C950   C955    1.405   .     A
C951   C953    1.405   .     A
C952   H972    1.084   .     S
C952   C395    1.386   1_556 S
C953   H974    1.082   .     S
C954   H973    1.084   .     S
C955   H975    1.082   .     S
C955   C396    1.386   1_556 S
C956   H976    1.084   .     S
C956   C1082   1.370   1_455 S
C957   C960    1.397   .     A
C957   H977    1.084   .     S
C957   C1021   1.370   .     S
C958   C960    1.397   .     A
C958   H978    1.084   .     S
C958   C1018   1.370   .     S
C959   H962    1.084   .     S
C959   C1081   1.370   1_455 S
H967   N981    1.041   .     S
H968   N981    1.046   .     S
H969   N982    1.041   .     S
H970   N982    1.046   .     S
N979   Zn991   2.009   .     S
N980   Zn992   2.009   .     S
O983   Zn991   1.997   .     S
O984   Zn992   1.997   .     S
O985   Zn991   1.998   .     S
O986   Zn992   1.998   .     S
O987   Zn991   2.009   .     S
O988   Zn992   2.009   .     S
O989   Zn991   2.012   .     S
O990   Zn992   2.012   .     S
C993   O1045   1.282   .     A
C993   O1048   1.282   .     A
C993   C994    1.417   .     S
C994   C1018   1.397   .     A
C994   C1021   1.397   .     A
C995   H1025   1.082   .     S
C995   N1042   1.366   .     A
C996   H1026   1.082   .     S
C996   N1041   1.366   .     A
C996   C625    1.416   1_565 S
C997   H1027   1.082   .     S
C997   N1042   1.366   .     A
C998   N1041   1.366   .     A
C998   H1028   1.082   .     S
C998   C623    1.416   1_565 S
C999   O1052   1.283   .     A
C999   C1005   1.426   .     S
C999   O1049   1.284   .     A
C1000  O1051   1.283   .     A
C1000  C1003   1.426   .     S
C1000  O1050   1.284   .     A
C1001  C1012   1.401   .     A
C1001  N1043   1.446   .     S
C1001  C1003   1.412   .     A
C1002  N1044   1.446   .     S
C1002  C1013   1.401   .     A
C1002  C1005   1.412   .     A
C1003  C1006   1.391   .     A
C1004  O1047   1.282   .     A
C1004  C1022   1.417   .     S
C1004  O1046   1.282   .     A
C1005  C1007   1.391   .     A
C1006  H1023   1.086   .     S
C1006  C1008   1.379   .     A
C1007  H1033   1.086   .     S
C1007  C1009   1.379   .     A
C1008  C1010   1.409   .     A
C1008  C1014   1.397   .     A
C1009  C1011   1.409   .     A
C1009  C1016   1.397   .     A
C1010  C1012   1.418   .     A
C1010  C453    1.398   1_556 S
C1011  C1013   1.418   .     A
C1012  C1017   1.405   .     A
C1013  C1015   1.405   .     A
C1014  H1034   1.084   .     S
C1014  C457    1.386   1_556 S
C1015  H1036   1.082   .     S
C1016  H1035   1.084   .     S
C1017  H1037   1.082   .     S
C1017  C458    1.386   1_556 S
C1018  H1038   1.084   .     S
C1019  C1022   1.397   .     A
C1019  H1039   1.084   .     S
C1019  C1083   1.370   .     S
C1020  C1022   1.397   .     A
C1020  H1040   1.084   .     S
C1020  C1080   1.370   .     S
C1021  H1024   1.084   .     S
H1029  N1043   1.041   .     S
H1030  N1043   1.046   .     S
H1031  N1044   1.041   .     S
H1032  N1044   1.046   .     S
N1041  Zn1053  2.009   .     S
N1042  Zn1054  2.009   .     S
O1045  Zn1053  1.997   .     S
O1046  Zn1054  1.997   .     S
O1047  Zn1053  1.998   .     S
O1048  Zn1054  1.998   .     S
O1049  Zn1053  2.009   .     S
O1050  Zn1054  2.009   .     S
O1051  Zn1053  2.012   .     S
O1052  Zn1054  2.012   .     S
C1055  O1107   1.282   .     A
C1055  O1110   1.282   .     A
C1055  C1056   1.417   .     S
C1056  C1080   1.397   .     A
C1056  C1083   1.397   .     A
C1057  H1087   1.082   .     S
C1057  N1104   1.366   .     A
C1058  H1088   1.082   .     S
C1058  N1103   1.366   .     A
C1058  C687    1.416   1_565 S
C1059  H1089   1.082   .     S
C1059  N1104   1.366   .     A
C1060  N1103   1.366   .     A
C1060  H1090   1.082   .     S
C1060  C685    1.416   1_565 S
C1061  O1114   1.283   .     A
C1061  C1067   1.426   .     S
C1061  O1111   1.284   .     A
C1062  O1113   1.283   .     A
C1062  C1065   1.426   .     S
C1062  O1112   1.284   .     A
C1063  C1074   1.401   .     A
C1063  N1105   1.446   .     S
C1063  C1065   1.412   .     A
C1064  N1106   1.446   .     S
C1064  C1075   1.401   .     A
C1064  C1067   1.412   .     A
C1065  C1068   1.391   .     A
C1066  O1109   1.282   .     A
C1066  C1084   1.417   .     S
C1066  O1108   1.282   .     A
C1067  C1069   1.391   .     A
C1068  H1085   1.086   .     S
C1068  C1070   1.379   .     A
C1069  H1095   1.086   .     S
C1069  C1071   1.379   .     A
C1070  C1072   1.409   .     A
C1070  C1076   1.397   .     A
C1071  C1073   1.409   .     A
C1071  C1078   1.397   .     A
C1072  C1074   1.418   .     A
C1072  C515    1.398   1_556 S
C1073  C1075   1.418   .     A
C1074  C1079   1.405   .     A
C1075  C1077   1.405   .     A
C1076  H1096   1.084   .     S
C1076  C519    1.386   1_556 S
C1077  H1098   1.082   .     S
C1078  H1097   1.084   .     S
C1079  H1099   1.082   .     S
C1079  C520    1.386   1_556 S
C1080  H1100   1.084   .     S
C1081  C1084   1.397   .     A
C1081  H1101   1.084   .     S
C1081  C959    1.370   1_655 S
C1082  C1084   1.397   .     A
C1082  H1102   1.084   .     S
C1082  C956    1.370   1_655 S
C1083  H1086   1.084   .     S
H1091  N1105   1.041   .     S
H1092  N1105   1.046   .     S
H1093  N1106   1.041   .     S
H1094  N1106   1.046   .     S
N1103  Zn1115  2.009   .     S
N1104  Zn1116  2.009   .     S
O1107  Zn1115  1.997   .     S
O1108  Zn1116  1.997   .     S
O1109  Zn1115  1.998   .     S
O1110  Zn1116  1.998   .     S
O1111  Zn1115  2.009   .     S
O1112  Zn1116  2.009   .     S
O1113  Zn1115  2.012   .     S
O1114  Zn1116  2.012   .     S
