data_str_m2_o1_o10_pcu_sym.53
_audit_creation_date              2020-01-03
_audit_creation_method            'Materials Studio'
_symmetry_space_group_name_H-M    'P1'
_symmetry_Int_Tables_number       1
_symmetry_cell_setting            triclinic
loop_
_symmetry_equiv_pos_as_xyz
  x,y,z
_cell_length_a                    26.3620
_cell_length_b                    32.2739
_cell_length_c                    28.8846
_cell_angle_alpha                 90.4819
_cell_angle_beta                  97.9938
_cell_angle_gamma                 91.5563
loop_
_atom_site_label
_atom_site_type_symbol
_atom_site_fract_x
_atom_site_fract_y
_atom_site_fract_z
_atom_site_U_iso_or_equiv
_atom_site_adp_type
_atom_site_occupancy
O1     O     0.16666   0.10655   0.20625   0.00000  Uiso   1.00
O2     O     0.16667   0.22678   0.12709   0.00000  Uiso   1.00
O3     O     0.16666   0.10654   0.12706   0.00000  Uiso   1.00
O4     O     0.16667   0.22679   0.20628   0.00000  Uiso   1.00
C5     C     0.16795   0.08762   0.16668   0.00000  Uiso   1.00
C6     C     0.16538   0.24572   0.16665   0.00000  Uiso   1.00
O7     O     0.09161   0.16667   0.19712   0.00000  Uiso   1.00
O8     O     0.24172   0.16666   0.13621   0.00000  Uiso   1.00
O9     O     0.09161   0.16666   0.11793   0.00000  Uiso   1.00
O10    O     0.24172   0.16667   0.21540   0.00000  Uiso   1.00
C11    C     0.06817   0.16629   0.15475   0.00000  Uiso   1.00
C12    C     0.26517   0.16705   0.17858   0.00000  Uiso   1.00
Cu13   Cu    0.16667   0.16667   0.21355   0.00000  Uiso   1.00
Cu14   Cu    0.16667   0.16666   0.11978   0.00000  Uiso   1.00
N15    N     0.16668   0.16668   0.28403   0.00000  Uiso   1.00
N16    N     0.16665   0.16666   0.04931   0.00000  Uiso   1.00
C17    C     0.01312   0.16143   0.14890   0.00000  Uiso   1.00
C18    C     0.32021   0.17191   0.18444   0.00000  Uiso   1.00
C19    C     0.12946   0.02160   0.13823   0.00000  Uiso   1.00
C20    C     0.20387   0.31174   0.19511   0.00000  Uiso   1.00
H21    H     0.09980   0.03888   0.11765   0.00000  Uiso   1.00
H22    H     0.23353   0.29445   0.21568   0.00000  Uiso   1.00
C23    C     0.12616   0.31185   0.13796   0.00000  Uiso   1.00
C24    C     0.20716   0.02149   0.19537   0.00000  Uiso   1.00
C25    C     0.16418   0.29037   0.16683   0.00000  Uiso   1.00
C26    C     0.16915   0.04296   0.16650   0.00000  Uiso   1.00
C27    C     0.14278   0.13524   0.02125   0.00000  Uiso   1.00
C28    C     0.19055   0.19809   0.31208   0.00000  Uiso   1.00
C29    C     0.14248   0.13537   0.30526   0.00000  Uiso   1.00
C30    C     0.19085   0.19796   0.02808   0.00000  Uiso   1.00
N31    N     0.32238   0.13965   0.10758   0.00000  Uiso   1.00
O32    O     0.32510   0.15496   0.06644   0.00000  Uiso   1.00
O33    O     0.30226   0.10269   0.11094   0.00000  Uiso   1.00
N34    N     0.01095   0.19368   0.22576   0.00000  Uiso   1.00
O35    O     0.00821   0.17839   0.26689   0.00000  Uiso   1.00
O36    O     0.03112   0.23062   0.22240   0.00000  Uiso   1.00
C37    C     0.08176   0.29094   0.10863   0.00000  Uiso   1.00
O38    O     0.06532   0.25718   0.11955   0.00000  Uiso   1.00
O39    O     0.05754   0.31069   0.06898   0.00000  Uiso   1.00
H40    H     0.02754   0.29370   0.05211   0.00000  Uiso   1.00
C41    C     0.25157   0.04240   0.22470   0.00000  Uiso   1.00
O42    O     0.26802   0.07615   0.21378   0.00000  Uiso   1.00
O43    O     0.27576   0.02265   0.26438   0.00000  Uiso   1.00
H44    H     0.30576   0.03964   0.28125   0.00000  Uiso   1.00
N45    N     0.11815   0.10125   0.04128   0.00000  Uiso   1.00
O46    O     0.07043   0.10371   0.04736   0.00000  Uiso   1.00
O47    O     0.13884   0.06507   0.04233   0.00000  Uiso   1.00
N48    N     0.21517   0.23209   0.29205   0.00000  Uiso   1.00
O49    O     0.26289   0.22964   0.28597   0.00000  Uiso   1.00
O50    O     0.19447   0.26826   0.29100   0.00000  Uiso   1.00
N51    N     0.11574   0.10237   0.27791   0.00000  Uiso   1.00
O52    O     0.06813   0.10659   0.26016   0.00000  Uiso   1.00
O53    O     0.13477   0.06554   0.27958   0.00000  Uiso   1.00
N54    N     0.21758   0.23097   0.05542   0.00000  Uiso   1.00
O55    O     0.26520   0.22675   0.07318   0.00000  Uiso   1.00
O56    O     0.19855   0.26780   0.05375   0.00000  Uiso   1.00
O57    O     0.50000   0.10655   0.20625   0.00000  Uiso   1.00
O58    O     0.50000   0.22678   0.12709   0.00000  Uiso   1.00
O59    O     0.50000   0.10654   0.12706   0.00000  Uiso   1.00
O60    O     0.50000   0.22679   0.20628   0.00000  Uiso   1.00
C61    C     0.50128   0.08762   0.16668   0.00000  Uiso   1.00
C62    C     0.49872   0.24572   0.16665   0.00000  Uiso   1.00
O63    O     0.42495   0.16667   0.19712   0.00000  Uiso   1.00
O64    O     0.57505   0.16666   0.13621   0.00000  Uiso   1.00
O65    O     0.42494   0.16666   0.11793   0.00000  Uiso   1.00
O66    O     0.57506   0.16667   0.21540   0.00000  Uiso   1.00
C67    C     0.40150   0.16629   0.15475   0.00000  Uiso   1.00
C68    C     0.59850   0.16705   0.17858   0.00000  Uiso   1.00
Cu69   Cu    0.50000   0.16667   0.21355   0.00000  Uiso   1.00
Cu70   Cu    0.50000   0.16666   0.11978   0.00000  Uiso   1.00
N71    N     0.50001   0.16668   0.28403   0.00000  Uiso   1.00
N72    N     0.49999   0.16666   0.04931   0.00000  Uiso   1.00
C73    C     0.34645   0.16143   0.14890   0.00000  Uiso   1.00
C74    C     0.65355   0.17191   0.18444   0.00000  Uiso   1.00
C75    C     0.46279   0.02160   0.13823   0.00000  Uiso   1.00
C76    C     0.53720   0.31174   0.19511   0.00000  Uiso   1.00
H77    H     0.43313   0.03888   0.11765   0.00000  Uiso   1.00
H78    H     0.56687   0.29445   0.21568   0.00000  Uiso   1.00
C79    C     0.45950   0.31185   0.13796   0.00000  Uiso   1.00
C80    C     0.54050   0.02149   0.19537   0.00000  Uiso   1.00
C81    C     0.49751   0.29037   0.16683   0.00000  Uiso   1.00
C82    C     0.50249   0.04296   0.16650   0.00000  Uiso   1.00
C83    C     0.47611   0.13524   0.02125   0.00000  Uiso   1.00
C84    C     0.52389   0.19809   0.31208   0.00000  Uiso   1.00
C85    C     0.47581   0.13537   0.30526   0.00000  Uiso   1.00
C86    C     0.52418   0.19796   0.02808   0.00000  Uiso   1.00
N87    N     0.65571   0.13965   0.10758   0.00000  Uiso   1.00
O88    O     0.65843   0.15496   0.06644   0.00000  Uiso   1.00
O89    O     0.63560   0.10269   0.11094   0.00000  Uiso   1.00
N90    N     0.34429   0.19368   0.22576   0.00000  Uiso   1.00
O91    O     0.34155   0.17839   0.26689   0.00000  Uiso   1.00
O92    O     0.36446   0.23062   0.22240   0.00000  Uiso   1.00
C93    C     0.41509   0.29094   0.10863   0.00000  Uiso   1.00
O94    O     0.39865   0.25718   0.11955   0.00000  Uiso   1.00
O95    O     0.39088   0.31069   0.06898   0.00000  Uiso   1.00
H96    H     0.36088   0.29370   0.05211   0.00000  Uiso   1.00
C97    C     0.58490   0.04240   0.22470   0.00000  Uiso   1.00
O98    O     0.60135   0.07615   0.21378   0.00000  Uiso   1.00
O99    O     0.60910   0.02265   0.26438   0.00000  Uiso   1.00
H100   H     0.63910   0.03964   0.28125   0.00000  Uiso   1.00
N101   N     0.45149   0.10125   0.04128   0.00000  Uiso   1.00
O102   O     0.40377   0.10371   0.04736   0.00000  Uiso   1.00
O103   O     0.47218   0.06507   0.04233   0.00000  Uiso   1.00
N104   N     0.54850   0.23209   0.29205   0.00000  Uiso   1.00
O105   O     0.59622   0.22964   0.28597   0.00000  Uiso   1.00
O106   O     0.52780   0.26826   0.29100   0.00000  Uiso   1.00
N107   N     0.44908   0.10237   0.27791   0.00000  Uiso   1.00
O108   O     0.40146   0.10659   0.26016   0.00000  Uiso   1.00
O109   O     0.46810   0.06554   0.27958   0.00000  Uiso   1.00
N110   N     0.55092   0.23097   0.05542   0.00000  Uiso   1.00
O111   O     0.59853   0.22675   0.07318   0.00000  Uiso   1.00
O112   O     0.53188   0.26780   0.05375   0.00000  Uiso   1.00
O113   O     0.83333   0.10655   0.20625   0.00000  Uiso   1.00
O114   O     0.83334   0.22678   0.12709   0.00000  Uiso   1.00
O115   O     0.83333   0.10654   0.12706   0.00000  Uiso   1.00
O116   O     0.83334   0.22679   0.20628   0.00000  Uiso   1.00
C117   C     0.83462   0.08762   0.16668   0.00000  Uiso   1.00
C118   C     0.83205   0.24572   0.16665   0.00000  Uiso   1.00
O119   O     0.75828   0.16667   0.19712   0.00000  Uiso   1.00
O120   O     0.90839   0.16666   0.13621   0.00000  Uiso   1.00
O121   O     0.75828   0.16666   0.11793   0.00000  Uiso   1.00
O122   O     0.90839   0.16667   0.21540   0.00000  Uiso   1.00
C123   C     0.73483   0.16629   0.15475   0.00000  Uiso   1.00
C124   C     0.93183   0.16705   0.17858   0.00000  Uiso   1.00
Cu125  Cu    0.83333   0.16667   0.21355   0.00000  Uiso   1.00
Cu126  Cu    0.83333   0.16666   0.11978   0.00000  Uiso   1.00
N127   N     0.83335   0.16668   0.28403   0.00000  Uiso   1.00
N128   N     0.83332   0.16666   0.04931   0.00000  Uiso   1.00
C129   C     0.67979   0.16143   0.14890   0.00000  Uiso   1.00
C130   C     0.98688   0.17191   0.18444   0.00000  Uiso   1.00
C131   C     0.79613   0.02160   0.13823   0.00000  Uiso   1.00
C132   C     0.87054   0.31174   0.19511   0.00000  Uiso   1.00
H133   H     0.76646   0.03888   0.11765   0.00000  Uiso   1.00
H134   H     0.90020   0.29445   0.21568   0.00000  Uiso   1.00
C135   C     0.79283   0.31185   0.13796   0.00000  Uiso   1.00
C136   C     0.87383   0.02149   0.19537   0.00000  Uiso   1.00
C137   C     0.83084   0.29037   0.16683   0.00000  Uiso   1.00
C138   C     0.83582   0.04296   0.16650   0.00000  Uiso   1.00
C139   C     0.80944   0.13524   0.02125   0.00000  Uiso   1.00
C140   C     0.85722   0.19809   0.31208   0.00000  Uiso   1.00
C141   C     0.80915   0.13537   0.30526   0.00000  Uiso   1.00
C142   C     0.85752   0.19796   0.02808   0.00000  Uiso   1.00
N143   N     0.98904   0.13965   0.10758   0.00000  Uiso   1.00
O144   O     0.99176   0.15496   0.06644   0.00000  Uiso   1.00
O145   O     0.96893   0.10269   0.11094   0.00000  Uiso   1.00
N146   N     0.67762   0.19368   0.22576   0.00000  Uiso   1.00
O147   O     0.67488   0.17839   0.26689   0.00000  Uiso   1.00
O148   O     0.69779   0.23062   0.22240   0.00000  Uiso   1.00
C149   C     0.74842   0.29094   0.10863   0.00000  Uiso   1.00
O150   O     0.73199   0.25718   0.11955   0.00000  Uiso   1.00
O151   O     0.72421   0.31069   0.06898   0.00000  Uiso   1.00
H152   H     0.69421   0.29370   0.05211   0.00000  Uiso   1.00
C153   C     0.91824   0.04240   0.22470   0.00000  Uiso   1.00
O154   O     0.93469   0.07615   0.21378   0.00000  Uiso   1.00
O155   O     0.94243   0.02265   0.26438   0.00000  Uiso   1.00
H156   H     0.97243   0.03964   0.28125   0.00000  Uiso   1.00
N157   N     0.78482   0.10125   0.04128   0.00000  Uiso   1.00
O158   O     0.73710   0.10371   0.04736   0.00000  Uiso   1.00
O159   O     0.80551   0.06507   0.04233   0.00000  Uiso   1.00
N160   N     0.88183   0.23209   0.29205   0.00000  Uiso   1.00
O161   O     0.92956   0.22964   0.28597   0.00000  Uiso   1.00
O162   O     0.86114   0.26826   0.29100   0.00000  Uiso   1.00
N163   N     0.78241   0.10237   0.27791   0.00000  Uiso   1.00
O164   O     0.73479   0.10659   0.26016   0.00000  Uiso   1.00
O165   O     0.80144   0.06554   0.27958   0.00000  Uiso   1.00
N166   N     0.88425   0.23097   0.05542   0.00000  Uiso   1.00
O167   O     0.93186   0.22675   0.07318   0.00000  Uiso   1.00
O168   O     0.86522   0.26780   0.05375   0.00000  Uiso   1.00
O169   O     0.16666   0.43989   0.20625   0.00000  Uiso   1.00
O170   O     0.16667   0.56011   0.12709   0.00000  Uiso   1.00
O171   O     0.16666   0.43988   0.12706   0.00000  Uiso   1.00
O172   O     0.16667   0.56012   0.20628   0.00000  Uiso   1.00
C173   C     0.16795   0.42095   0.16668   0.00000  Uiso   1.00
C174   C     0.16538   0.57905   0.16665   0.00000  Uiso   1.00
O175   O     0.09161   0.50000   0.19712   0.00000  Uiso   1.00
O176   O     0.24172   0.50000   0.13621   0.00000  Uiso   1.00
O177   O     0.09161   0.49999   0.11793   0.00000  Uiso   1.00
O178   O     0.24172   0.50001   0.21540   0.00000  Uiso   1.00
C179   C     0.06817   0.49962   0.15475   0.00000  Uiso   1.00
C180   C     0.26517   0.50038   0.17858   0.00000  Uiso   1.00
Cu181  Cu    0.16667   0.50001   0.21355   0.00000  Uiso   1.00
Cu182  Cu    0.16667   0.49999   0.11978   0.00000  Uiso   1.00
N183   N     0.16668   0.50001   0.28403   0.00000  Uiso   1.00
N184   N     0.16665   0.49999   0.04931   0.00000  Uiso   1.00
C185   C     0.01312   0.49476   0.14890   0.00000  Uiso   1.00
C186   C     0.32021   0.50525   0.18444   0.00000  Uiso   1.00
C187   C     0.12946   0.35493   0.13823   0.00000  Uiso   1.00
C188   C     0.20387   0.64507   0.19511   0.00000  Uiso   1.00
H189   H     0.09980   0.37222   0.11765   0.00000  Uiso   1.00
H190   H     0.23353   0.62779   0.21568   0.00000  Uiso   1.00
C191   C     0.12616   0.64518   0.13796   0.00000  Uiso   1.00
C192   C     0.20716   0.35482   0.19537   0.00000  Uiso   1.00
C193   C     0.16418   0.62370   0.16683   0.00000  Uiso   1.00
C194   C     0.16915   0.37630   0.16650   0.00000  Uiso   1.00
C195   C     0.14278   0.46858   0.02125   0.00000  Uiso   1.00
C196   C     0.19055   0.53142   0.31208   0.00000  Uiso   1.00
C197   C     0.14248   0.46871   0.30526   0.00000  Uiso   1.00
C198   C     0.19085   0.53129   0.02808   0.00000  Uiso   1.00
N199   N     0.32238   0.47299   0.10758   0.00000  Uiso   1.00
O200   O     0.32510   0.48829   0.06644   0.00000  Uiso   1.00
O201   O     0.30226   0.43603   0.11094   0.00000  Uiso   1.00
N202   N     0.01095   0.52702   0.22576   0.00000  Uiso   1.00
O203   O     0.00821   0.51172   0.26689   0.00000  Uiso   1.00
O204   O     0.03112   0.56396   0.22240   0.00000  Uiso   1.00
C205   C     0.08176   0.62427   0.10863   0.00000  Uiso   1.00
O206   O     0.06532   0.59051   0.11955   0.00000  Uiso   1.00
O207   O     0.05754   0.64403   0.06898   0.00000  Uiso   1.00
H208   H     0.02754   0.62703   0.05211   0.00000  Uiso   1.00
C209   C     0.25157   0.37573   0.22470   0.00000  Uiso   1.00
O210   O     0.26802   0.40948   0.21378   0.00000  Uiso   1.00
O211   O     0.27576   0.35598   0.26438   0.00000  Uiso   1.00
H212   H     0.30576   0.37298   0.28125   0.00000  Uiso   1.00
N213   N     0.11815   0.43459   0.04128   0.00000  Uiso   1.00
O214   O     0.07043   0.43705   0.04736   0.00000  Uiso   1.00
O215   O     0.13884   0.39840   0.04233   0.00000  Uiso   1.00
N216   N     0.21517   0.56542   0.29205   0.00000  Uiso   1.00
O217   O     0.26289   0.56297   0.28597   0.00000  Uiso   1.00
O218   O     0.19447   0.60160   0.29100   0.00000  Uiso   1.00
N219   N     0.11574   0.43570   0.27791   0.00000  Uiso   1.00
O220   O     0.06813   0.43993   0.26016   0.00000  Uiso   1.00
O221   O     0.13477   0.39887   0.27958   0.00000  Uiso   1.00
N222   N     0.21758   0.56430   0.05542   0.00000  Uiso   1.00
O223   O     0.26520   0.56008   0.07318   0.00000  Uiso   1.00
O224   O     0.19855   0.60113   0.05375   0.00000  Uiso   1.00
O225   O     0.50000   0.43989   0.20625   0.00000  Uiso   1.00
O226   O     0.50000   0.56011   0.12709   0.00000  Uiso   1.00
O227   O     0.50000   0.43988   0.12706   0.00000  Uiso   1.00
O228   O     0.50000   0.56012   0.20628   0.00000  Uiso   1.00
C229   C     0.50128   0.42095   0.16668   0.00000  Uiso   1.00
C230   C     0.49872   0.57905   0.16665   0.00000  Uiso   1.00
O231   O     0.42495   0.50000   0.19712   0.00000  Uiso   1.00
O232   O     0.57505   0.50000   0.13621   0.00000  Uiso   1.00
O233   O     0.42494   0.49999   0.11793   0.00000  Uiso   1.00
O234   O     0.57506   0.50001   0.21540   0.00000  Uiso   1.00
C235   C     0.40150   0.49962   0.15475   0.00000  Uiso   1.00
C236   C     0.59850   0.50038   0.17858   0.00000  Uiso   1.00
Cu237  Cu    0.50000   0.50001   0.21355   0.00000  Uiso   1.00
Cu238  Cu    0.50000   0.49999   0.11978   0.00000  Uiso   1.00
N239   N     0.50001   0.50001   0.28403   0.00000  Uiso   1.00
N240   N     0.49999   0.49999   0.04931   0.00000  Uiso   1.00
C241   C     0.34645   0.49476   0.14890   0.00000  Uiso   1.00
C242   C     0.65355   0.50525   0.18444   0.00000  Uiso   1.00
C243   C     0.46279   0.35493   0.13823   0.00000  Uiso   1.00
C244   C     0.53720   0.64507   0.19511   0.00000  Uiso   1.00
H245   H     0.43313   0.37222   0.11765   0.00000  Uiso   1.00
H246   H     0.56687   0.62779   0.21568   0.00000  Uiso   1.00
C247   C     0.45950   0.64518   0.13796   0.00000  Uiso   1.00
C248   C     0.54050   0.35482   0.19537   0.00000  Uiso   1.00
C249   C     0.49751   0.62370   0.16683   0.00000  Uiso   1.00
C250   C     0.50249   0.37630   0.16650   0.00000  Uiso   1.00
C251   C     0.47611   0.46858   0.02125   0.00000  Uiso   1.00
C252   C     0.52389   0.53142   0.31208   0.00000  Uiso   1.00
C253   C     0.47581   0.46871   0.30526   0.00000  Uiso   1.00
C254   C     0.52418   0.53129   0.02808   0.00000  Uiso   1.00
N255   N     0.65571   0.47299   0.10758   0.00000  Uiso   1.00
O256   O     0.65843   0.48829   0.06644   0.00000  Uiso   1.00
O257   O     0.63560   0.43603   0.11094   0.00000  Uiso   1.00
N258   N     0.34429   0.52702   0.22576   0.00000  Uiso   1.00
O259   O     0.34155   0.51172   0.26689   0.00000  Uiso   1.00
O260   O     0.36446   0.56396   0.22240   0.00000  Uiso   1.00
C261   C     0.41509   0.62427   0.10863   0.00000  Uiso   1.00
O262   O     0.39865   0.59051   0.11955   0.00000  Uiso   1.00
O263   O     0.39088   0.64403   0.06898   0.00000  Uiso   1.00
H264   H     0.36088   0.62703   0.05211   0.00000  Uiso   1.00
C265   C     0.58490   0.37573   0.22470   0.00000  Uiso   1.00
O266   O     0.60135   0.40948   0.21378   0.00000  Uiso   1.00
O267   O     0.60910   0.35598   0.26438   0.00000  Uiso   1.00
H268   H     0.63910   0.37298   0.28125   0.00000  Uiso   1.00
N269   N     0.45149   0.43459   0.04128   0.00000  Uiso   1.00
O270   O     0.40377   0.43705   0.04736   0.00000  Uiso   1.00
O271   O     0.47218   0.39840   0.04233   0.00000  Uiso   1.00
N272   N     0.54850   0.56542   0.29205   0.00000  Uiso   1.00
O273   O     0.59622   0.56297   0.28597   0.00000  Uiso   1.00
O274   O     0.52780   0.60160   0.29100   0.00000  Uiso   1.00
N275   N     0.44908   0.43570   0.27791   0.00000  Uiso   1.00
O276   O     0.40146   0.43993   0.26016   0.00000  Uiso   1.00
O277   O     0.46810   0.39887   0.27958   0.00000  Uiso   1.00
N278   N     0.55092   0.56430   0.05542   0.00000  Uiso   1.00
O279   O     0.59853   0.56008   0.07318   0.00000  Uiso   1.00
O280   O     0.53188   0.60113   0.05375   0.00000  Uiso   1.00
O281   O     0.83333   0.43989   0.20625   0.00000  Uiso   1.00
O282   O     0.83334   0.56011   0.12709   0.00000  Uiso   1.00
O283   O     0.83333   0.43988   0.12706   0.00000  Uiso   1.00
O284   O     0.83334   0.56012   0.20628   0.00000  Uiso   1.00
C285   C     0.83462   0.42095   0.16668   0.00000  Uiso   1.00
C286   C     0.83205   0.57905   0.16665   0.00000  Uiso   1.00
O287   O     0.75828   0.50000   0.19712   0.00000  Uiso   1.00
O288   O     0.90839   0.50000   0.13621   0.00000  Uiso   1.00
O289   O     0.75828   0.49999   0.11793   0.00000  Uiso   1.00
O290   O     0.90839   0.50001   0.21540   0.00000  Uiso   1.00
C291   C     0.73483   0.49962   0.15475   0.00000  Uiso   1.00
C292   C     0.93183   0.50038   0.17858   0.00000  Uiso   1.00
Cu293  Cu    0.83333   0.50001   0.21355   0.00000  Uiso   1.00
Cu294  Cu    0.83333   0.49999   0.11978   0.00000  Uiso   1.00
N295   N     0.83335   0.50001   0.28403   0.00000  Uiso   1.00
N296   N     0.83332   0.49999   0.04931   0.00000  Uiso   1.00
C297   C     0.67979   0.49476   0.14890   0.00000  Uiso   1.00
C298   C     0.98688   0.50525   0.18444   0.00000  Uiso   1.00
C299   C     0.79613   0.35493   0.13823   0.00000  Uiso   1.00
C300   C     0.87054   0.64507   0.19511   0.00000  Uiso   1.00
H301   H     0.76646   0.37222   0.11765   0.00000  Uiso   1.00
H302   H     0.90020   0.62779   0.21568   0.00000  Uiso   1.00
C303   C     0.79283   0.64518   0.13796   0.00000  Uiso   1.00
C304   C     0.87383   0.35482   0.19537   0.00000  Uiso   1.00
C305   C     0.83084   0.62370   0.16683   0.00000  Uiso   1.00
C306   C     0.83582   0.37630   0.16650   0.00000  Uiso   1.00
C307   C     0.80944   0.46858   0.02125   0.00000  Uiso   1.00
C308   C     0.85722   0.53142   0.31208   0.00000  Uiso   1.00
C309   C     0.80915   0.46871   0.30526   0.00000  Uiso   1.00
C310   C     0.85752   0.53129   0.02808   0.00000  Uiso   1.00
N311   N     0.98904   0.47299   0.10758   0.00000  Uiso   1.00
O312   O     0.99176   0.48829   0.06644   0.00000  Uiso   1.00
O313   O     0.96893   0.43603   0.11094   0.00000  Uiso   1.00
N314   N     0.67762   0.52702   0.22576   0.00000  Uiso   1.00
O315   O     0.67488   0.51172   0.26689   0.00000  Uiso   1.00
O316   O     0.69779   0.56396   0.22240   0.00000  Uiso   1.00
C317   C     0.74842   0.62427   0.10863   0.00000  Uiso   1.00
O318   O     0.73199   0.59051   0.11955   0.00000  Uiso   1.00
O319   O     0.72421   0.64403   0.06898   0.00000  Uiso   1.00
H320   H     0.69421   0.62703   0.05211   0.00000  Uiso   1.00
C321   C     0.91824   0.37573   0.22470   0.00000  Uiso   1.00
O322   O     0.93469   0.40948   0.21378   0.00000  Uiso   1.00
O323   O     0.94243   0.35598   0.26438   0.00000  Uiso   1.00
H324   H     0.97243   0.37298   0.28125   0.00000  Uiso   1.00
N325   N     0.78482   0.43459   0.04128   0.00000  Uiso   1.00
O326   O     0.73710   0.43705   0.04736   0.00000  Uiso   1.00
O327   O     0.80551   0.39840   0.04233   0.00000  Uiso   1.00
N328   N     0.88183   0.56542   0.29205   0.00000  Uiso   1.00
O329   O     0.92956   0.56297   0.28597   0.00000  Uiso   1.00
O330   O     0.86114   0.60160   0.29100   0.00000  Uiso   1.00
N331   N     0.78241   0.43570   0.27791   0.00000  Uiso   1.00
O332   O     0.73479   0.43993   0.26016   0.00000  Uiso   1.00
O333   O     0.80144   0.39887   0.27958   0.00000  Uiso   1.00
N334   N     0.88425   0.56430   0.05542   0.00000  Uiso   1.00
O335   O     0.93186   0.56008   0.07318   0.00000  Uiso   1.00
O336   O     0.86522   0.60113   0.05375   0.00000  Uiso   1.00
O337   O     0.16666   0.77322   0.20625   0.00000  Uiso   1.00
O338   O     0.16667   0.89345   0.12709   0.00000  Uiso   1.00
O339   O     0.16666   0.77321   0.12706   0.00000  Uiso   1.00
O340   O     0.16667   0.89346   0.20628   0.00000  Uiso   1.00
C341   C     0.16795   0.75428   0.16668   0.00000  Uiso   1.00
C342   C     0.16538   0.91238   0.16665   0.00000  Uiso   1.00
O343   O     0.09161   0.83334   0.19712   0.00000  Uiso   1.00
O344   O     0.24172   0.83333   0.13621   0.00000  Uiso   1.00
O345   O     0.09161   0.83333   0.11793   0.00000  Uiso   1.00
O346   O     0.24172   0.83334   0.21540   0.00000  Uiso   1.00
C347   C     0.06817   0.83295   0.15475   0.00000  Uiso   1.00
C348   C     0.26517   0.83372   0.17858   0.00000  Uiso   1.00
Cu349  Cu    0.16667   0.83334   0.21355   0.00000  Uiso   1.00
Cu350  Cu    0.16667   0.83333   0.11978   0.00000  Uiso   1.00
N351   N     0.16668   0.83334   0.28403   0.00000  Uiso   1.00
N352   N     0.16665   0.83332   0.04931   0.00000  Uiso   1.00
C353   C     0.01312   0.82810   0.14890   0.00000  Uiso   1.00
C354   C     0.32021   0.83858   0.18444   0.00000  Uiso   1.00
C355   C     0.12946   0.68826   0.13823   0.00000  Uiso   1.00
C356   C     0.20387   0.97840   0.19511   0.00000  Uiso   1.00
H357   H     0.09980   0.70555   0.11765   0.00000  Uiso   1.00
H358   H     0.23353   0.96112   0.21568   0.00000  Uiso   1.00
C359   C     0.12616   0.97851   0.13796   0.00000  Uiso   1.00
C360   C     0.20716   0.68815   0.19537   0.00000  Uiso   1.00
C361   C     0.16418   0.95704   0.16683   0.00000  Uiso   1.00
C362   C     0.16915   0.70963   0.16650   0.00000  Uiso   1.00
C363   C     0.14278   0.80191   0.02125   0.00000  Uiso   1.00
C364   C     0.19055   0.86476   0.31208   0.00000  Uiso   1.00
C365   C     0.14248   0.80204   0.30526   0.00000  Uiso   1.00
C366   C     0.19085   0.86463   0.02808   0.00000  Uiso   1.00
N367   N     0.32238   0.80632   0.10758   0.00000  Uiso   1.00
O368   O     0.32510   0.82162   0.06644   0.00000  Uiso   1.00
O369   O     0.30226   0.76936   0.11094   0.00000  Uiso   1.00
N370   N     0.01095   0.86035   0.22576   0.00000  Uiso   1.00
O371   O     0.00821   0.84506   0.26689   0.00000  Uiso   1.00
O372   O     0.03112   0.89729   0.22240   0.00000  Uiso   1.00
C373   C     0.08176   0.95760   0.10863   0.00000  Uiso   1.00
O374   O     0.06532   0.92384   0.11955   0.00000  Uiso   1.00
O375   O     0.05754   0.97736   0.06898   0.00000  Uiso   1.00
H376   H     0.02754   0.96037   0.05211   0.00000  Uiso   1.00
C377   C     0.25157   0.70906   0.22470   0.00000  Uiso   1.00
O378   O     0.26802   0.74282   0.21378   0.00000  Uiso   1.00
O379   O     0.27576   0.68932   0.26438   0.00000  Uiso   1.00
H380   H     0.30576   0.70631   0.28125   0.00000  Uiso   1.00
N381   N     0.11815   0.76792   0.04128   0.00000  Uiso   1.00
O382   O     0.07043   0.77038   0.04736   0.00000  Uiso   1.00
O383   O     0.13884   0.73174   0.04233   0.00000  Uiso   1.00
N384   N     0.21517   0.89875   0.29205   0.00000  Uiso   1.00
O385   O     0.26289   0.89630   0.28597   0.00000  Uiso   1.00
O386   O     0.19447   0.93493   0.29100   0.00000  Uiso   1.00
N387   N     0.11574   0.76903   0.27791   0.00000  Uiso   1.00
O388   O     0.06813   0.77326   0.26016   0.00000  Uiso   1.00
O389   O     0.13477   0.73221   0.27958   0.00000  Uiso   1.00
N390   N     0.21758   0.89764   0.05542   0.00000  Uiso   1.00
O391   O     0.26520   0.89342   0.07318   0.00000  Uiso   1.00
O392   O     0.19855   0.93446   0.05375   0.00000  Uiso   1.00
O393   O     0.50000   0.77322   0.20625   0.00000  Uiso   1.00
O394   O     0.50000   0.89345   0.12709   0.00000  Uiso   1.00
O395   O     0.50000   0.77321   0.12706   0.00000  Uiso   1.00
O396   O     0.50000   0.89346   0.20628   0.00000  Uiso   1.00
C397   C     0.50128   0.75428   0.16668   0.00000  Uiso   1.00
C398   C     0.49872   0.91238   0.16665   0.00000  Uiso   1.00
O399   O     0.42495   0.83334   0.19712   0.00000  Uiso   1.00
O400   O     0.57505   0.83333   0.13621   0.00000  Uiso   1.00
O401   O     0.42494   0.83333   0.11793   0.00000  Uiso   1.00
O402   O     0.57506   0.83334   0.21540   0.00000  Uiso   1.00
C403   C     0.40150   0.83295   0.15475   0.00000  Uiso   1.00
C404   C     0.59850   0.83372   0.17858   0.00000  Uiso   1.00
Cu405  Cu    0.50000   0.83334   0.21355   0.00000  Uiso   1.00
Cu406  Cu    0.50000   0.83333   0.11978   0.00000  Uiso   1.00
N407   N     0.50001   0.83334   0.28403   0.00000  Uiso   1.00
N408   N     0.49999   0.83332   0.04931   0.00000  Uiso   1.00
C409   C     0.34645   0.82810   0.14890   0.00000  Uiso   1.00
C410   C     0.65355   0.83858   0.18444   0.00000  Uiso   1.00
C411   C     0.46279   0.68826   0.13823   0.00000  Uiso   1.00
C412   C     0.53720   0.97840   0.19511   0.00000  Uiso   1.00
H413   H     0.43313   0.70555   0.11765   0.00000  Uiso   1.00
H414   H     0.56687   0.96112   0.21568   0.00000  Uiso   1.00
C415   C     0.45950   0.97851   0.13796   0.00000  Uiso   1.00
C416   C     0.54050   0.68815   0.19537   0.00000  Uiso   1.00
C417   C     0.49751   0.95704   0.16683   0.00000  Uiso   1.00
C418   C     0.50249   0.70963   0.16650   0.00000  Uiso   1.00
C419   C     0.47611   0.80191   0.02125   0.00000  Uiso   1.00
C420   C     0.52389   0.86476   0.31208   0.00000  Uiso   1.00
C421   C     0.47581   0.80204   0.30526   0.00000  Uiso   1.00
C422   C     0.52418   0.86463   0.02808   0.00000  Uiso   1.00
N423   N     0.65571   0.80632   0.10758   0.00000  Uiso   1.00
O424   O     0.65843   0.82162   0.06644   0.00000  Uiso   1.00
O425   O     0.63560   0.76936   0.11094   0.00000  Uiso   1.00
N426   N     0.34429   0.86035   0.22576   0.00000  Uiso   1.00
O427   O     0.34155   0.84506   0.26689   0.00000  Uiso   1.00
O428   O     0.36446   0.89729   0.22240   0.00000  Uiso   1.00
C429   C     0.41509   0.95760   0.10863   0.00000  Uiso   1.00
O430   O     0.39865   0.92384   0.11955   0.00000  Uiso   1.00
O431   O     0.39088   0.97736   0.06898   0.00000  Uiso   1.00
H432   H     0.36088   0.96037   0.05211   0.00000  Uiso   1.00
C433   C     0.58490   0.70906   0.22470   0.00000  Uiso   1.00
O434   O     0.60135   0.74282   0.21378   0.00000  Uiso   1.00
O435   O     0.60910   0.68932   0.26438   0.00000  Uiso   1.00
H436   H     0.63910   0.70631   0.28125   0.00000  Uiso   1.00
N437   N     0.45149   0.76792   0.04128   0.00000  Uiso   1.00
O438   O     0.40377   0.77038   0.04736   0.00000  Uiso   1.00
O439   O     0.47218   0.73174   0.04233   0.00000  Uiso   1.00
N440   N     0.54850   0.89875   0.29205   0.00000  Uiso   1.00
O441   O     0.59622   0.89630   0.28597   0.00000  Uiso   1.00
O442   O     0.52780   0.93493   0.29100   0.00000  Uiso   1.00
N443   N     0.44908   0.76903   0.27791   0.00000  Uiso   1.00
O444   O     0.40146   0.77326   0.26016   0.00000  Uiso   1.00
O445   O     0.46810   0.73221   0.27958   0.00000  Uiso   1.00
N446   N     0.55092   0.89764   0.05542   0.00000  Uiso   1.00
O447   O     0.59853   0.89342   0.07318   0.00000  Uiso   1.00
O448   O     0.53188   0.93446   0.05375   0.00000  Uiso   1.00
O449   O     0.83333   0.77322   0.20625   0.00000  Uiso   1.00
O450   O     0.83334   0.89345   0.12709   0.00000  Uiso   1.00
O451   O     0.83333   0.77321   0.12706   0.00000  Uiso   1.00
O452   O     0.83334   0.89346   0.20628   0.00000  Uiso   1.00
C453   C     0.83462   0.75428   0.16668   0.00000  Uiso   1.00
C454   C     0.83205   0.91238   0.16665   0.00000  Uiso   1.00
O455   O     0.75828   0.83334   0.19712   0.00000  Uiso   1.00
O456   O     0.90839   0.83333   0.13621   0.00000  Uiso   1.00
O457   O     0.75828   0.83333   0.11793   0.00000  Uiso   1.00
O458   O     0.90839   0.83334   0.21540   0.00000  Uiso   1.00
C459   C     0.73483   0.83295   0.15475   0.00000  Uiso   1.00
C460   C     0.93183   0.83372   0.17858   0.00000  Uiso   1.00
Cu461  Cu    0.83333   0.83334   0.21355   0.00000  Uiso   1.00
Cu462  Cu    0.83333   0.83333   0.11978   0.00000  Uiso   1.00
N463   N     0.83335   0.83334   0.28403   0.00000  Uiso   1.00
N464   N     0.83332   0.83332   0.04931   0.00000  Uiso   1.00
C465   C     0.67979   0.82810   0.14890   0.00000  Uiso   1.00
C466   C     0.98688   0.83858   0.18444   0.00000  Uiso   1.00
C467   C     0.79613   0.68826   0.13823   0.00000  Uiso   1.00
C468   C     0.87054   0.97840   0.19511   0.00000  Uiso   1.00
H469   H     0.76646   0.70555   0.11765   0.00000  Uiso   1.00
H470   H     0.90020   0.96112   0.21568   0.00000  Uiso   1.00
C471   C     0.79283   0.97851   0.13796   0.00000  Uiso   1.00
C472   C     0.87383   0.68815   0.19537   0.00000  Uiso   1.00
C473   C     0.83084   0.95704   0.16683   0.00000  Uiso   1.00
C474   C     0.83582   0.70963   0.16650   0.00000  Uiso   1.00
C475   C     0.80944   0.80191   0.02125   0.00000  Uiso   1.00
C476   C     0.85722   0.86476   0.31208   0.00000  Uiso   1.00
C477   C     0.80915   0.80204   0.30526   0.00000  Uiso   1.00
C478   C     0.85752   0.86463   0.02808   0.00000  Uiso   1.00
N479   N     0.98904   0.80632   0.10758   0.00000  Uiso   1.00
O480   O     0.99176   0.82162   0.06644   0.00000  Uiso   1.00
O481   O     0.96893   0.76936   0.11094   0.00000  Uiso   1.00
N482   N     0.67762   0.86035   0.22576   0.00000  Uiso   1.00
O483   O     0.67488   0.84506   0.26689   0.00000  Uiso   1.00
O484   O     0.69779   0.89729   0.22240   0.00000  Uiso   1.00
C485   C     0.74842   0.95760   0.10863   0.00000  Uiso   1.00
O486   O     0.73199   0.92384   0.11955   0.00000  Uiso   1.00
O487   O     0.72421   0.97736   0.06898   0.00000  Uiso   1.00
H488   H     0.69421   0.96037   0.05211   0.00000  Uiso   1.00
C489   C     0.91824   0.70906   0.22470   0.00000  Uiso   1.00
O490   O     0.93469   0.74282   0.21378   0.00000  Uiso   1.00
O491   O     0.94243   0.68932   0.26438   0.00000  Uiso   1.00
H492   H     0.97243   0.70631   0.28125   0.00000  Uiso   1.00
N493   N     0.78482   0.76792   0.04128   0.00000  Uiso   1.00
O494   O     0.73710   0.77038   0.04736   0.00000  Uiso   1.00
O495   O     0.80551   0.73174   0.04233   0.00000  Uiso   1.00
N496   N     0.88183   0.89875   0.29205   0.00000  Uiso   1.00
O497   O     0.92956   0.89630   0.28597   0.00000  Uiso   1.00
O498   O     0.86114   0.93493   0.29100   0.00000  Uiso   1.00
N499   N     0.78241   0.76903   0.27791   0.00000  Uiso   1.00
O500   O     0.73479   0.77326   0.26016   0.00000  Uiso   1.00
O501   O     0.80144   0.73221   0.27958   0.00000  Uiso   1.00
N502   N     0.88425   0.89764   0.05542   0.00000  Uiso   1.00
O503   O     0.93186   0.89342   0.07318   0.00000  Uiso   1.00
O504   O     0.86522   0.93446   0.05375   0.00000  Uiso   1.00
O505   O     0.16666   0.10655   0.53958   0.00000  Uiso   1.00
O506   O     0.16667   0.22678   0.46042   0.00000  Uiso   1.00
O507   O     0.16666   0.10654   0.46039   0.00000  Uiso   1.00
O508   O     0.16667   0.22679   0.53961   0.00000  Uiso   1.00
C509   C     0.16795   0.08762   0.50001   0.00000  Uiso   1.00
C510   C     0.16538   0.24572   0.49999   0.00000  Uiso   1.00
O511   O     0.09161   0.16667   0.53046   0.00000  Uiso   1.00
O512   O     0.24172   0.16666   0.46954   0.00000  Uiso   1.00
O513   O     0.09161   0.16666   0.45127   0.00000  Uiso   1.00
O514   O     0.24172   0.16667   0.54873   0.00000  Uiso   1.00
C515   C     0.06817   0.16629   0.48808   0.00000  Uiso   1.00
C516   C     0.26517   0.16705   0.51192   0.00000  Uiso   1.00
Cu517  Cu    0.16667   0.16667   0.54689   0.00000  Uiso   1.00
Cu518  Cu    0.16667   0.16666   0.45311   0.00000  Uiso   1.00
N519   N     0.16668   0.16668   0.61736   0.00000  Uiso   1.00
N520   N     0.16665   0.16666   0.38264   0.00000  Uiso   1.00
C521   C     0.01312   0.16143   0.48223   0.00000  Uiso   1.00
C522   C     0.32021   0.17191   0.51777   0.00000  Uiso   1.00
C523   C     0.12946   0.02160   0.47156   0.00000  Uiso   1.00
C524   C     0.20387   0.31174   0.52844   0.00000  Uiso   1.00
H525   H     0.09980   0.03888   0.45099   0.00000  Uiso   1.00
H526   H     0.23353   0.29445   0.54902   0.00000  Uiso   1.00
C527   C     0.12616   0.31185   0.47130   0.00000  Uiso   1.00
C528   C     0.20716   0.02149   0.52871   0.00000  Uiso   1.00
C529   C     0.16418   0.29037   0.50016   0.00000  Uiso   1.00
C530   C     0.16915   0.04296   0.49984   0.00000  Uiso   1.00
C531   C     0.14278   0.13524   0.35458   0.00000  Uiso   1.00
C532   C     0.19055   0.19809   0.64542   0.00000  Uiso   1.00
C533   C     0.14248   0.13537   0.63859   0.00000  Uiso   1.00
C534   C     0.19085   0.19796   0.36141   0.00000  Uiso   1.00
N535   N     0.32238   0.13965   0.44091   0.00000  Uiso   1.00
O536   O     0.32510   0.15496   0.39977   0.00000  Uiso   1.00
O537   O     0.30226   0.10269   0.44427   0.00000  Uiso   1.00
N538   N     0.01095   0.19368   0.55909   0.00000  Uiso   1.00
O539   O     0.00821   0.17839   0.60023   0.00000  Uiso   1.00
O540   O     0.03112   0.23062   0.55573   0.00000  Uiso   1.00
C541   C     0.08176   0.29094   0.44197   0.00000  Uiso   1.00
O542   O     0.06532   0.25718   0.45288   0.00000  Uiso   1.00
O543   O     0.05754   0.31069   0.40231   0.00000  Uiso   1.00
H544   H     0.02754   0.29370   0.38544   0.00000  Uiso   1.00
C545   C     0.25157   0.04240   0.55804   0.00000  Uiso   1.00
O546   O     0.26802   0.07615   0.54711   0.00000  Uiso   1.00
O547   O     0.27576   0.02265   0.59771   0.00000  Uiso   1.00
H548   H     0.30576   0.03964   0.61458   0.00000  Uiso   1.00
N549   N     0.11815   0.10125   0.37462   0.00000  Uiso   1.00
O550   O     0.07043   0.10371   0.38070   0.00000  Uiso   1.00
O551   O     0.13884   0.06507   0.37567   0.00000  Uiso   1.00
N552   N     0.21517   0.23209   0.62538   0.00000  Uiso   1.00
O553   O     0.26289   0.22964   0.61930   0.00000  Uiso   1.00
O554   O     0.19447   0.26826   0.62433   0.00000  Uiso   1.00
N555   N     0.11574   0.10237   0.61124   0.00000  Uiso   1.00
O556   O     0.06813   0.10659   0.59349   0.00000  Uiso   1.00
O557   O     0.13477   0.06554   0.61291   0.00000  Uiso   1.00
N558   N     0.21758   0.23097   0.38875   0.00000  Uiso   1.00
O559   O     0.26520   0.22675   0.40651   0.00000  Uiso   1.00
O560   O     0.19855   0.26780   0.38708   0.00000  Uiso   1.00
O561   O     0.50000   0.10655   0.53958   0.00000  Uiso   1.00
O562   O     0.50000   0.22678   0.46042   0.00000  Uiso   1.00
O563   O     0.50000   0.10654   0.46039   0.00000  Uiso   1.00
O564   O     0.50000   0.22679   0.53961   0.00000  Uiso   1.00
C565   C     0.50128   0.08762   0.50001   0.00000  Uiso   1.00
C566   C     0.49872   0.24572   0.49999   0.00000  Uiso   1.00
O567   O     0.42495   0.16667   0.53046   0.00000  Uiso   1.00
O568   O     0.57505   0.16666   0.46954   0.00000  Uiso   1.00
O569   O     0.42494   0.16666   0.45127   0.00000  Uiso   1.00
O570   O     0.57506   0.16667   0.54873   0.00000  Uiso   1.00
C571   C     0.40150   0.16629   0.48808   0.00000  Uiso   1.00
C572   C     0.59850   0.16705   0.51192   0.00000  Uiso   1.00
Cu573  Cu    0.50000   0.16667   0.54689   0.00000  Uiso   1.00
Cu574  Cu    0.50000   0.16666   0.45311   0.00000  Uiso   1.00
N575   N     0.50001   0.16668   0.61736   0.00000  Uiso   1.00
N576   N     0.49999   0.16666   0.38264   0.00000  Uiso   1.00
C577   C     0.34645   0.16143   0.48223   0.00000  Uiso   1.00
C578   C     0.65355   0.17191   0.51777   0.00000  Uiso   1.00
C579   C     0.46279   0.02160   0.47156   0.00000  Uiso   1.00
C580   C     0.53720   0.31174   0.52844   0.00000  Uiso   1.00
H581   H     0.43313   0.03888   0.45099   0.00000  Uiso   1.00
H582   H     0.56687   0.29445   0.54902   0.00000  Uiso   1.00
C583   C     0.45950   0.31185   0.47130   0.00000  Uiso   1.00
C584   C     0.54050   0.02149   0.52871   0.00000  Uiso   1.00
C585   C     0.49751   0.29037   0.50016   0.00000  Uiso   1.00
C586   C     0.50249   0.04296   0.49984   0.00000  Uiso   1.00
C587   C     0.47611   0.13524   0.35458   0.00000  Uiso   1.00
C588   C     0.52389   0.19809   0.64542   0.00000  Uiso   1.00
C589   C     0.47581   0.13537   0.63859   0.00000  Uiso   1.00
C590   C     0.52418   0.19796   0.36141   0.00000  Uiso   1.00
N591   N     0.65571   0.13965   0.44091   0.00000  Uiso   1.00
O592   O     0.65843   0.15496   0.39977   0.00000  Uiso   1.00
O593   O     0.63560   0.10269   0.44427   0.00000  Uiso   1.00
N594   N     0.34429   0.19368   0.55909   0.00000  Uiso   1.00
O595   O     0.34155   0.17839   0.60023   0.00000  Uiso   1.00
O596   O     0.36446   0.23062   0.55573   0.00000  Uiso   1.00
C597   C     0.41509   0.29094   0.44197   0.00000  Uiso   1.00
O598   O     0.39865   0.25718   0.45288   0.00000  Uiso   1.00
O599   O     0.39088   0.31069   0.40231   0.00000  Uiso   1.00
H600   H     0.36088   0.29370   0.38544   0.00000  Uiso   1.00
C601   C     0.58490   0.04240   0.55804   0.00000  Uiso   1.00
O602   O     0.60135   0.07615   0.54711   0.00000  Uiso   1.00
O603   O     0.60910   0.02265   0.59771   0.00000  Uiso   1.00
H604   H     0.63910   0.03964   0.61458   0.00000  Uiso   1.00
N605   N     0.45149   0.10125   0.37462   0.00000  Uiso   1.00
O606   O     0.40377   0.10371   0.38070   0.00000  Uiso   1.00
O607   O     0.47218   0.06507   0.37567   0.00000  Uiso   1.00
N608   N     0.54850   0.23209   0.62538   0.00000  Uiso   1.00
O609   O     0.59622   0.22964   0.61930   0.00000  Uiso   1.00
O610   O     0.52780   0.26826   0.62433   0.00000  Uiso   1.00
N611   N     0.44908   0.10237   0.61124   0.00000  Uiso   1.00
O612   O     0.40146   0.10659   0.59349   0.00000  Uiso   1.00
O613   O     0.46810   0.06554   0.61291   0.00000  Uiso   1.00
N614   N     0.55092   0.23097   0.38875   0.00000  Uiso   1.00
O615   O     0.59853   0.22675   0.40651   0.00000  Uiso   1.00
O616   O     0.53188   0.26780   0.38708   0.00000  Uiso   1.00
O617   O     0.83333   0.10655   0.53958   0.00000  Uiso   1.00
O618   O     0.83334   0.22678   0.46042   0.00000  Uiso   1.00
O619   O     0.83333   0.10654   0.46039   0.00000  Uiso   1.00
O620   O     0.83334   0.22679   0.53961   0.00000  Uiso   1.00
C621   C     0.83462   0.08762   0.50001   0.00000  Uiso   1.00
C622   C     0.83205   0.24572   0.49999   0.00000  Uiso   1.00
O623   O     0.75828   0.16667   0.53046   0.00000  Uiso   1.00
O624   O     0.90839   0.16666   0.46954   0.00000  Uiso   1.00
O625   O     0.75828   0.16666   0.45127   0.00000  Uiso   1.00
O626   O     0.90839   0.16667   0.54873   0.00000  Uiso   1.00
C627   C     0.73483   0.16629   0.48808   0.00000  Uiso   1.00
C628   C     0.93183   0.16705   0.51192   0.00000  Uiso   1.00
Cu629  Cu    0.83333   0.16667   0.54689   0.00000  Uiso   1.00
Cu630  Cu    0.83333   0.16666   0.45311   0.00000  Uiso   1.00
N631   N     0.83335   0.16668   0.61736   0.00000  Uiso   1.00
N632   N     0.83332   0.16666   0.38264   0.00000  Uiso   1.00
C633   C     0.67979   0.16143   0.48223   0.00000  Uiso   1.00
C634   C     0.98688   0.17191   0.51777   0.00000  Uiso   1.00
C635   C     0.79613   0.02160   0.47156   0.00000  Uiso   1.00
C636   C     0.87054   0.31174   0.52844   0.00000  Uiso   1.00
H637   H     0.76646   0.03888   0.45099   0.00000  Uiso   1.00
H638   H     0.90020   0.29445   0.54902   0.00000  Uiso   1.00
C639   C     0.79283   0.31185   0.47130   0.00000  Uiso   1.00
C640   C     0.87383   0.02149   0.52871   0.00000  Uiso   1.00
C641   C     0.83084   0.29037   0.50016   0.00000  Uiso   1.00
C642   C     0.83582   0.04296   0.49984   0.00000  Uiso   1.00
C643   C     0.80944   0.13524   0.35458   0.00000  Uiso   1.00
C644   C     0.85722   0.19809   0.64542   0.00000  Uiso   1.00
C645   C     0.80915   0.13537   0.63859   0.00000  Uiso   1.00
C646   C     0.85752   0.19796   0.36141   0.00000  Uiso   1.00
N647   N     0.98904   0.13965   0.44091   0.00000  Uiso   1.00
O648   O     0.99176   0.15496   0.39977   0.00000  Uiso   1.00
O649   O     0.96893   0.10269   0.44427   0.00000  Uiso   1.00
N650   N     0.67762   0.19368   0.55909   0.00000  Uiso   1.00
O651   O     0.67488   0.17839   0.60023   0.00000  Uiso   1.00
O652   O     0.69779   0.23062   0.55573   0.00000  Uiso   1.00
C653   C     0.74842   0.29094   0.44197   0.00000  Uiso   1.00
O654   O     0.73199   0.25718   0.45288   0.00000  Uiso   1.00
O655   O     0.72421   0.31069   0.40231   0.00000  Uiso   1.00
H656   H     0.69421   0.29370   0.38544   0.00000  Uiso   1.00
C657   C     0.91824   0.04240   0.55804   0.00000  Uiso   1.00
O658   O     0.93469   0.07615   0.54711   0.00000  Uiso   1.00
O659   O     0.94243   0.02265   0.59771   0.00000  Uiso   1.00
H660   H     0.97243   0.03964   0.61458   0.00000  Uiso   1.00
N661   N     0.78482   0.10125   0.37462   0.00000  Uiso   1.00
O662   O     0.73710   0.10371   0.38070   0.00000  Uiso   1.00
O663   O     0.80551   0.06507   0.37567   0.00000  Uiso   1.00
N664   N     0.88183   0.23209   0.62538   0.00000  Uiso   1.00
O665   O     0.92956   0.22964   0.61930   0.00000  Uiso   1.00
O666   O     0.86114   0.26826   0.62433   0.00000  Uiso   1.00
N667   N     0.78241   0.10237   0.61124   0.00000  Uiso   1.00
O668   O     0.73479   0.10659   0.59349   0.00000  Uiso   1.00
O669   O     0.80144   0.06554   0.61291   0.00000  Uiso   1.00
N670   N     0.88425   0.23097   0.38875   0.00000  Uiso   1.00
O671   O     0.93186   0.22675   0.40651   0.00000  Uiso   1.00
O672   O     0.86522   0.26780   0.38708   0.00000  Uiso   1.00
O673   O     0.16666   0.43989   0.53958   0.00000  Uiso   1.00
O674   O     0.16667   0.56011   0.46042   0.00000  Uiso   1.00
O675   O     0.16666   0.43988   0.46039   0.00000  Uiso   1.00
O676   O     0.16667   0.56012   0.53961   0.00000  Uiso   1.00
C677   C     0.16795   0.42095   0.50001   0.00000  Uiso   1.00
C678   C     0.16538   0.57905   0.49999   0.00000  Uiso   1.00
O679   O     0.09161   0.50000   0.53046   0.00000  Uiso   1.00
O680   O     0.24172   0.50000   0.46954   0.00000  Uiso   1.00
O681   O     0.09161   0.49999   0.45127   0.00000  Uiso   1.00
O682   O     0.24172   0.50001   0.54873   0.00000  Uiso   1.00
C683   C     0.06817   0.49962   0.48808   0.00000  Uiso   1.00
C684   C     0.26517   0.50038   0.51192   0.00000  Uiso   1.00
Cu685  Cu    0.16667   0.50001   0.54689   0.00000  Uiso   1.00
Cu686  Cu    0.16667   0.49999   0.45311   0.00000  Uiso   1.00
N687   N     0.16668   0.50001   0.61736   0.00000  Uiso   1.00
N688   N     0.16665   0.49999   0.38264   0.00000  Uiso   1.00
C689   C     0.01312   0.49476   0.48223   0.00000  Uiso   1.00
C690   C     0.32021   0.50525   0.51777   0.00000  Uiso   1.00
C691   C     0.12946   0.35493   0.47156   0.00000  Uiso   1.00
C692   C     0.20387   0.64507   0.52844   0.00000  Uiso   1.00
H693   H     0.09980   0.37222   0.45099   0.00000  Uiso   1.00
H694   H     0.23353   0.62779   0.54902   0.00000  Uiso   1.00
C695   C     0.12616   0.64518   0.47130   0.00000  Uiso   1.00
C696   C     0.20716   0.35482   0.52871   0.00000  Uiso   1.00
C697   C     0.16418   0.62370   0.50016   0.00000  Uiso   1.00
C698   C     0.16915   0.37630   0.49984   0.00000  Uiso   1.00
C699   C     0.14278   0.46858   0.35458   0.00000  Uiso   1.00
C700   C     0.19055   0.53142   0.64542   0.00000  Uiso   1.00
C701   C     0.14248   0.46871   0.63859   0.00000  Uiso   1.00
C702   C     0.19085   0.53129   0.36141   0.00000  Uiso   1.00
N703   N     0.32238   0.47299   0.44091   0.00000  Uiso   1.00
O704   O     0.32510   0.48829   0.39977   0.00000  Uiso   1.00
O705   O     0.30226   0.43603   0.44427   0.00000  Uiso   1.00
N706   N     0.01095   0.52702   0.55909   0.00000  Uiso   1.00
O707   O     0.00821   0.51172   0.60023   0.00000  Uiso   1.00
O708   O     0.03112   0.56396   0.55573   0.00000  Uiso   1.00
C709   C     0.08176   0.62427   0.44197   0.00000  Uiso   1.00
O710   O     0.06532   0.59051   0.45288   0.00000  Uiso   1.00
O711   O     0.05754   0.64403   0.40231   0.00000  Uiso   1.00
H712   H     0.02754   0.62703   0.38544   0.00000  Uiso   1.00
C713   C     0.25157   0.37573   0.55804   0.00000  Uiso   1.00
O714   O     0.26802   0.40948   0.54711   0.00000  Uiso   1.00
O715   O     0.27576   0.35598   0.59771   0.00000  Uiso   1.00
H716   H     0.30576   0.37298   0.61458   0.00000  Uiso   1.00
N717   N     0.11815   0.43459   0.37462   0.00000  Uiso   1.00
O718   O     0.07043   0.43705   0.38070   0.00000  Uiso   1.00
O719   O     0.13884   0.39840   0.37567   0.00000  Uiso   1.00
N720   N     0.21517   0.56542   0.62538   0.00000  Uiso   1.00
O721   O     0.26289   0.56297   0.61930   0.00000  Uiso   1.00
O722   O     0.19447   0.60160   0.62433   0.00000  Uiso   1.00
N723   N     0.11574   0.43570   0.61124   0.00000  Uiso   1.00
O724   O     0.06813   0.43993   0.59349   0.00000  Uiso   1.00
O725   O     0.13477   0.39887   0.61291   0.00000  Uiso   1.00
N726   N     0.21758   0.56430   0.38875   0.00000  Uiso   1.00
O727   O     0.26520   0.56008   0.40651   0.00000  Uiso   1.00
O728   O     0.19855   0.60113   0.38708   0.00000  Uiso   1.00
O729   O     0.50000   0.43989   0.53958   0.00000  Uiso   1.00
O730   O     0.50000   0.56011   0.46042   0.00000  Uiso   1.00
O731   O     0.50000   0.43988   0.46039   0.00000  Uiso   1.00
O732   O     0.50000   0.56012   0.53961   0.00000  Uiso   1.00
C733   C     0.50128   0.42095   0.50001   0.00000  Uiso   1.00
C734   C     0.49872   0.57905   0.49999   0.00000  Uiso   1.00
O735   O     0.42495   0.50000   0.53046   0.00000  Uiso   1.00
O736   O     0.57505   0.50000   0.46954   0.00000  Uiso   1.00
O737   O     0.42494   0.49999   0.45127   0.00000  Uiso   1.00
O738   O     0.57506   0.50001   0.54873   0.00000  Uiso   1.00
C739   C     0.40150   0.49962   0.48808   0.00000  Uiso   1.00
C740   C     0.59850   0.50038   0.51192   0.00000  Uiso   1.00
Cu741  Cu    0.50000   0.50001   0.54689   0.00000  Uiso   1.00
Cu742  Cu    0.50000   0.49999   0.45311   0.00000  Uiso   1.00
N743   N     0.50001   0.50001   0.61736   0.00000  Uiso   1.00
N744   N     0.49999   0.49999   0.38264   0.00000  Uiso   1.00
C745   C     0.34645   0.49476   0.48223   0.00000  Uiso   1.00
C746   C     0.65355   0.50525   0.51777   0.00000  Uiso   1.00
C747   C     0.46279   0.35493   0.47156   0.00000  Uiso   1.00
C748   C     0.53720   0.64507   0.52844   0.00000  Uiso   1.00
H749   H     0.43313   0.37222   0.45099   0.00000  Uiso   1.00
H750   H     0.56687   0.62779   0.54902   0.00000  Uiso   1.00
C751   C     0.45950   0.64518   0.47130   0.00000  Uiso   1.00
C752   C     0.54050   0.35482   0.52871   0.00000  Uiso   1.00
C753   C     0.49751   0.62370   0.50016   0.00000  Uiso   1.00
C754   C     0.50249   0.37630   0.49984   0.00000  Uiso   1.00
C755   C     0.47611   0.46858   0.35458   0.00000  Uiso   1.00
C756   C     0.52389   0.53142   0.64542   0.00000  Uiso   1.00
C757   C     0.47581   0.46871   0.63859   0.00000  Uiso   1.00
C758   C     0.52418   0.53129   0.36141   0.00000  Uiso   1.00
N759   N     0.65571   0.47299   0.44091   0.00000  Uiso   1.00
O760   O     0.65843   0.48829   0.39977   0.00000  Uiso   1.00
O761   O     0.63560   0.43603   0.44427   0.00000  Uiso   1.00
N762   N     0.34429   0.52702   0.55909   0.00000  Uiso   1.00
O763   O     0.34155   0.51172   0.60023   0.00000  Uiso   1.00
O764   O     0.36446   0.56396   0.55573   0.00000  Uiso   1.00
C765   C     0.41509   0.62427   0.44197   0.00000  Uiso   1.00
O766   O     0.39865   0.59051   0.45288   0.00000  Uiso   1.00
O767   O     0.39088   0.64403   0.40231   0.00000  Uiso   1.00
H768   H     0.36088   0.62703   0.38544   0.00000  Uiso   1.00
C769   C     0.58490   0.37573   0.55804   0.00000  Uiso   1.00
O770   O     0.60135   0.40948   0.54711   0.00000  Uiso   1.00
O771   O     0.60910   0.35598   0.59771   0.00000  Uiso   1.00
H772   H     0.63910   0.37298   0.61458   0.00000  Uiso   1.00
N773   N     0.45149   0.43459   0.37462   0.00000  Uiso   1.00
O774   O     0.40377   0.43705   0.38070   0.00000  Uiso   1.00
O775   O     0.47218   0.39840   0.37567   0.00000  Uiso   1.00
N776   N     0.54850   0.56542   0.62538   0.00000  Uiso   1.00
O777   O     0.59622   0.56297   0.61930   0.00000  Uiso   1.00
O778   O     0.52780   0.60160   0.62433   0.00000  Uiso   1.00
N779   N     0.44908   0.43570   0.61124   0.00000  Uiso   1.00
O780   O     0.40146   0.43993   0.59349   0.00000  Uiso   1.00
O781   O     0.46810   0.39887   0.61291   0.00000  Uiso   1.00
N782   N     0.55092   0.56430   0.38875   0.00000  Uiso   1.00
O783   O     0.59853   0.56008   0.40651   0.00000  Uiso   1.00
O784   O     0.53188   0.60113   0.38708   0.00000  Uiso   1.00
O785   O     0.83333   0.43989   0.53958   0.00000  Uiso   1.00
O786   O     0.83334   0.56011   0.46042   0.00000  Uiso   1.00
O787   O     0.83333   0.43988   0.46039   0.00000  Uiso   1.00
O788   O     0.83334   0.56012   0.53961   0.00000  Uiso   1.00
C789   C     0.83462   0.42095   0.50001   0.00000  Uiso   1.00
C790   C     0.83205   0.57905   0.49999   0.00000  Uiso   1.00
O791   O     0.75828   0.50000   0.53046   0.00000  Uiso   1.00
O792   O     0.90839   0.50000   0.46954   0.00000  Uiso   1.00
O793   O     0.75828   0.49999   0.45127   0.00000  Uiso   1.00
O794   O     0.90839   0.50001   0.54873   0.00000  Uiso   1.00
C795   C     0.73483   0.49962   0.48808   0.00000  Uiso   1.00
C796   C     0.93183   0.50038   0.51192   0.00000  Uiso   1.00
Cu797  Cu    0.83333   0.50001   0.54689   0.00000  Uiso   1.00
Cu798  Cu    0.83333   0.49999   0.45311   0.00000  Uiso   1.00
N799   N     0.83335   0.50001   0.61736   0.00000  Uiso   1.00
N800   N     0.83332   0.49999   0.38264   0.00000  Uiso   1.00
C801   C     0.67979   0.49476   0.48223   0.00000  Uiso   1.00
C802   C     0.98688   0.50525   0.51777   0.00000  Uiso   1.00
C803   C     0.79613   0.35493   0.47156   0.00000  Uiso   1.00
C804   C     0.87054   0.64507   0.52844   0.00000  Uiso   1.00
H805   H     0.76646   0.37222   0.45099   0.00000  Uiso   1.00
H806   H     0.90020   0.62779   0.54902   0.00000  Uiso   1.00
C807   C     0.79283   0.64518   0.47130   0.00000  Uiso   1.00
C808   C     0.87383   0.35482   0.52871   0.00000  Uiso   1.00
C809   C     0.83084   0.62370   0.50016   0.00000  Uiso   1.00
C810   C     0.83582   0.37630   0.49984   0.00000  Uiso   1.00
C811   C     0.80944   0.46858   0.35458   0.00000  Uiso   1.00
C812   C     0.85722   0.53142   0.64542   0.00000  Uiso   1.00
C813   C     0.80915   0.46871   0.63859   0.00000  Uiso   1.00
C814   C     0.85752   0.53129   0.36141   0.00000  Uiso   1.00
N815   N     0.98904   0.47299   0.44091   0.00000  Uiso   1.00
O816   O     0.99176   0.48829   0.39977   0.00000  Uiso   1.00
O817   O     0.96893   0.43603   0.44427   0.00000  Uiso   1.00
N818   N     0.67762   0.52702   0.55909   0.00000  Uiso   1.00
O819   O     0.67488   0.51172   0.60023   0.00000  Uiso   1.00
O820   O     0.69779   0.56396   0.55573   0.00000  Uiso   1.00
C821   C     0.74842   0.62427   0.44197   0.00000  Uiso   1.00
O822   O     0.73199   0.59051   0.45288   0.00000  Uiso   1.00
O823   O     0.72421   0.64403   0.40231   0.00000  Uiso   1.00
H824   H     0.69421   0.62703   0.38544   0.00000  Uiso   1.00
C825   C     0.91824   0.37573   0.55804   0.00000  Uiso   1.00
O826   O     0.93469   0.40948   0.54711   0.00000  Uiso   1.00
O827   O     0.94243   0.35598   0.59771   0.00000  Uiso   1.00
H828   H     0.97243   0.37298   0.61458   0.00000  Uiso   1.00
N829   N     0.78482   0.43459   0.37462   0.00000  Uiso   1.00
O830   O     0.73710   0.43705   0.38070   0.00000  Uiso   1.00
O831   O     0.80551   0.39840   0.37567   0.00000  Uiso   1.00
N832   N     0.88183   0.56542   0.62538   0.00000  Uiso   1.00
O833   O     0.92956   0.56297   0.61930   0.00000  Uiso   1.00
O834   O     0.86114   0.60160   0.62433   0.00000  Uiso   1.00
N835   N     0.78241   0.43570   0.61124   0.00000  Uiso   1.00
O836   O     0.73479   0.43993   0.59349   0.00000  Uiso   1.00
O837   O     0.80144   0.39887   0.61291   0.00000  Uiso   1.00
N838   N     0.88425   0.56430   0.38875   0.00000  Uiso   1.00
O839   O     0.93186   0.56008   0.40651   0.00000  Uiso   1.00
O840   O     0.86522   0.60113   0.38708   0.00000  Uiso   1.00
O841   O     0.16666   0.77322   0.53958   0.00000  Uiso   1.00
O842   O     0.16667   0.89345   0.46042   0.00000  Uiso   1.00
O843   O     0.16666   0.77321   0.46039   0.00000  Uiso   1.00
O844   O     0.16667   0.89346   0.53961   0.00000  Uiso   1.00
C845   C     0.16795   0.75428   0.50001   0.00000  Uiso   1.00
C846   C     0.16538   0.91238   0.49999   0.00000  Uiso   1.00
O847   O     0.09161   0.83334   0.53046   0.00000  Uiso   1.00
O848   O     0.24172   0.83333   0.46954   0.00000  Uiso   1.00
O849   O     0.09161   0.83333   0.45127   0.00000  Uiso   1.00
O850   O     0.24172   0.83334   0.54873   0.00000  Uiso   1.00
C851   C     0.06817   0.83295   0.48808   0.00000  Uiso   1.00
C852   C     0.26517   0.83372   0.51192   0.00000  Uiso   1.00
Cu853  Cu    0.16667   0.83334   0.54689   0.00000  Uiso   1.00
Cu854  Cu    0.16667   0.83333   0.45311   0.00000  Uiso   1.00
N855   N     0.16668   0.83334   0.61736   0.00000  Uiso   1.00
N856   N     0.16665   0.83332   0.38264   0.00000  Uiso   1.00
C857   C     0.01312   0.82810   0.48223   0.00000  Uiso   1.00
C858   C     0.32021   0.83858   0.51777   0.00000  Uiso   1.00
C859   C     0.12946   0.68826   0.47156   0.00000  Uiso   1.00
C860   C     0.20387   0.97840   0.52844   0.00000  Uiso   1.00
H861   H     0.09980   0.70555   0.45099   0.00000  Uiso   1.00
H862   H     0.23353   0.96112   0.54902   0.00000  Uiso   1.00
C863   C     0.12616   0.97851   0.47130   0.00000  Uiso   1.00
C864   C     0.20716   0.68815   0.52871   0.00000  Uiso   1.00
C865   C     0.16418   0.95704   0.50016   0.00000  Uiso   1.00
C866   C     0.16915   0.70963   0.49984   0.00000  Uiso   1.00
C867   C     0.14278   0.80191   0.35458   0.00000  Uiso   1.00
C868   C     0.19055   0.86476   0.64542   0.00000  Uiso   1.00
C869   C     0.14248   0.80204   0.63859   0.00000  Uiso   1.00
C870   C     0.19085   0.86463   0.36141   0.00000  Uiso   1.00
N871   N     0.32238   0.80632   0.44091   0.00000  Uiso   1.00
O872   O     0.32510   0.82162   0.39977   0.00000  Uiso   1.00
O873   O     0.30226   0.76936   0.44427   0.00000  Uiso   1.00
N874   N     0.01095   0.86035   0.55909   0.00000  Uiso   1.00
O875   O     0.00821   0.84506   0.60023   0.00000  Uiso   1.00
O876   O     0.03112   0.89729   0.55573   0.00000  Uiso   1.00
C877   C     0.08176   0.95760   0.44197   0.00000  Uiso   1.00
O878   O     0.06532   0.92384   0.45288   0.00000  Uiso   1.00
O879   O     0.05754   0.97736   0.40231   0.00000  Uiso   1.00
H880   H     0.02754   0.96037   0.38544   0.00000  Uiso   1.00
C881   C     0.25157   0.70906   0.55804   0.00000  Uiso   1.00
O882   O     0.26802   0.74282   0.54711   0.00000  Uiso   1.00
O883   O     0.27576   0.68932   0.59771   0.00000  Uiso   1.00
H884   H     0.30576   0.70631   0.61458   0.00000  Uiso   1.00
N885   N     0.11815   0.76792   0.37462   0.00000  Uiso   1.00
O886   O     0.07043   0.77038   0.38070   0.00000  Uiso   1.00
O887   O     0.13884   0.73174   0.37567   0.00000  Uiso   1.00
N888   N     0.21517   0.89875   0.62538   0.00000  Uiso   1.00
O889   O     0.26289   0.89630   0.61930   0.00000  Uiso   1.00
O890   O     0.19447   0.93493   0.62433   0.00000  Uiso   1.00
N891   N     0.11574   0.76903   0.61124   0.00000  Uiso   1.00
O892   O     0.06813   0.77326   0.59349   0.00000  Uiso   1.00
O893   O     0.13477   0.73221   0.61291   0.00000  Uiso   1.00
N894   N     0.21758   0.89764   0.38875   0.00000  Uiso   1.00
O895   O     0.26520   0.89342   0.40651   0.00000  Uiso   1.00
O896   O     0.19855   0.93446   0.38708   0.00000  Uiso   1.00
O897   O     0.50000   0.77322   0.53958   0.00000  Uiso   1.00
O898   O     0.50000   0.89345   0.46042   0.00000  Uiso   1.00
O899   O     0.50000   0.77321   0.46039   0.00000  Uiso   1.00
O900   O     0.50000   0.89346   0.53961   0.00000  Uiso   1.00
C901   C     0.50128   0.75428   0.50001   0.00000  Uiso   1.00
C902   C     0.49872   0.91238   0.49999   0.00000  Uiso   1.00
O903   O     0.42495   0.83334   0.53046   0.00000  Uiso   1.00
O904   O     0.57505   0.83333   0.46954   0.00000  Uiso   1.00
O905   O     0.42494   0.83333   0.45127   0.00000  Uiso   1.00
O906   O     0.57506   0.83334   0.54873   0.00000  Uiso   1.00
C907   C     0.40150   0.83295   0.48808   0.00000  Uiso   1.00
C908   C     0.59850   0.83372   0.51192   0.00000  Uiso   1.00
Cu909  Cu    0.50000   0.83334   0.54689   0.00000  Uiso   1.00
Cu910  Cu    0.50000   0.83333   0.45311   0.00000  Uiso   1.00
N911   N     0.50001   0.83334   0.61736   0.00000  Uiso   1.00
N912   N     0.49999   0.83332   0.38264   0.00000  Uiso   1.00
C913   C     0.34645   0.82810   0.48223   0.00000  Uiso   1.00
C914   C     0.65355   0.83858   0.51777   0.00000  Uiso   1.00
C915   C     0.46279   0.68826   0.47156   0.00000  Uiso   1.00
C916   C     0.53720   0.97840   0.52844   0.00000  Uiso   1.00
H917   H     0.43313   0.70555   0.45099   0.00000  Uiso   1.00
H918   H     0.56687   0.96112   0.54902   0.00000  Uiso   1.00
C919   C     0.45950   0.97851   0.47130   0.00000  Uiso   1.00
C920   C     0.54050   0.68815   0.52871   0.00000  Uiso   1.00
C921   C     0.49751   0.95704   0.50016   0.00000  Uiso   1.00
C922   C     0.50249   0.70963   0.49984   0.00000  Uiso   1.00
C923   C     0.47611   0.80191   0.35458   0.00000  Uiso   1.00
C924   C     0.52389   0.86476   0.64542   0.00000  Uiso   1.00
C925   C     0.47581   0.80204   0.63859   0.00000  Uiso   1.00
C926   C     0.52418   0.86463   0.36141   0.00000  Uiso   1.00
N927   N     0.65571   0.80632   0.44091   0.00000  Uiso   1.00
O928   O     0.65843   0.82162   0.39977   0.00000  Uiso   1.00
O929   O     0.63560   0.76936   0.44427   0.00000  Uiso   1.00
N930   N     0.34429   0.86035   0.55909   0.00000  Uiso   1.00
O931   O     0.34155   0.84506   0.60023   0.00000  Uiso   1.00
O932   O     0.36446   0.89729   0.55573   0.00000  Uiso   1.00
C933   C     0.41509   0.95760   0.44197   0.00000  Uiso   1.00
O934   O     0.39865   0.92384   0.45288   0.00000  Uiso   1.00
O935   O     0.39088   0.97736   0.40231   0.00000  Uiso   1.00
H936   H     0.36088   0.96037   0.38544   0.00000  Uiso   1.00
C937   C     0.58490   0.70906   0.55804   0.00000  Uiso   1.00
O938   O     0.60135   0.74282   0.54711   0.00000  Uiso   1.00
O939   O     0.60910   0.68932   0.59771   0.00000  Uiso   1.00
H940   H     0.63910   0.70631   0.61458   0.00000  Uiso   1.00
N941   N     0.45149   0.76792   0.37462   0.00000  Uiso   1.00
O942   O     0.40377   0.77038   0.38070   0.00000  Uiso   1.00
O943   O     0.47218   0.73174   0.37567   0.00000  Uiso   1.00
N944   N     0.54850   0.89875   0.62538   0.00000  Uiso   1.00
O945   O     0.59622   0.89630   0.61930   0.00000  Uiso   1.00
O946   O     0.52780   0.93493   0.62433   0.00000  Uiso   1.00
N947   N     0.44908   0.76903   0.61124   0.00000  Uiso   1.00
O948   O     0.40146   0.77326   0.59349   0.00000  Uiso   1.00
O949   O     0.46810   0.73221   0.61291   0.00000  Uiso   1.00
N950   N     0.55092   0.89764   0.38875   0.00000  Uiso   1.00
O951   O     0.59853   0.89342   0.40651   0.00000  Uiso   1.00
O952   O     0.53188   0.93446   0.38708   0.00000  Uiso   1.00
O953   O     0.83333   0.77322   0.53958   0.00000  Uiso   1.00
O954   O     0.83334   0.89345   0.46042   0.00000  Uiso   1.00
O955   O     0.83333   0.77321   0.46039   0.00000  Uiso   1.00
O956   O     0.83334   0.89346   0.53961   0.00000  Uiso   1.00
C957   C     0.83462   0.75428   0.50001   0.00000  Uiso   1.00
C958   C     0.83205   0.91238   0.49999   0.00000  Uiso   1.00
O959   O     0.75828   0.83334   0.53046   0.00000  Uiso   1.00
O960   O     0.90839   0.83333   0.46954   0.00000  Uiso   1.00
O961   O     0.75828   0.83333   0.45127   0.00000  Uiso   1.00
O962   O     0.90839   0.83334   0.54873   0.00000  Uiso   1.00
C963   C     0.73483   0.83295   0.48808   0.00000  Uiso   1.00
C964   C     0.93183   0.83372   0.51192   0.00000  Uiso   1.00
Cu965  Cu    0.83333   0.83334   0.54689   0.00000  Uiso   1.00
Cu966  Cu    0.83333   0.83333   0.45311   0.00000  Uiso   1.00
N967   N     0.83335   0.83334   0.61736   0.00000  Uiso   1.00
N968   N     0.83332   0.83332   0.38264   0.00000  Uiso   1.00
C969   C     0.67979   0.82810   0.48223   0.00000  Uiso   1.00
C970   C     0.98688   0.83858   0.51777   0.00000  Uiso   1.00
C971   C     0.79613   0.68826   0.47156   0.00000  Uiso   1.00
C972   C     0.87054   0.97840   0.52844   0.00000  Uiso   1.00
H973   H     0.76646   0.70555   0.45099   0.00000  Uiso   1.00
H974   H     0.90020   0.96112   0.54902   0.00000  Uiso   1.00
C975   C     0.79283   0.97851   0.47130   0.00000  Uiso   1.00
C976   C     0.87383   0.68815   0.52871   0.00000  Uiso   1.00
C977   C     0.83084   0.95704   0.50016   0.00000  Uiso   1.00
C978   C     0.83582   0.70963   0.49984   0.00000  Uiso   1.00
C979   C     0.80944   0.80191   0.35458   0.00000  Uiso   1.00
C980   C     0.85722   0.86476   0.64542   0.00000  Uiso   1.00
C981   C     0.80915   0.80204   0.63859   0.00000  Uiso   1.00
C982   C     0.85752   0.86463   0.36141   0.00000  Uiso   1.00
N983   N     0.98904   0.80632   0.44091   0.00000  Uiso   1.00
O984   O     0.99176   0.82162   0.39977   0.00000  Uiso   1.00
O985   O     0.96893   0.76936   0.44427   0.00000  Uiso   1.00
N986   N     0.67762   0.86035   0.55909   0.00000  Uiso   1.00
O987   O     0.67488   0.84506   0.60023   0.00000  Uiso   1.00
O988   O     0.69779   0.89729   0.55573   0.00000  Uiso   1.00
C989   C     0.74842   0.95760   0.44197   0.00000  Uiso   1.00
O990   O     0.73199   0.92384   0.45288   0.00000  Uiso   1.00
O991   O     0.72421   0.97736   0.40231   0.00000  Uiso   1.00
H992   H     0.69421   0.96037   0.38544   0.00000  Uiso   1.00
C993   C     0.91824   0.70906   0.55804   0.00000  Uiso   1.00
O994   O     0.93469   0.74282   0.54711   0.00000  Uiso   1.00
O995   O     0.94243   0.68932   0.59771   0.00000  Uiso   1.00
H996   H     0.97243   0.70631   0.61458   0.00000  Uiso   1.00
N997   N     0.78482   0.76792   0.37462   0.00000  Uiso   1.00
O998   O     0.73710   0.77038   0.38070   0.00000  Uiso   1.00
O999   O     0.80551   0.73174   0.37567   0.00000  Uiso   1.00
N1000  N     0.88183   0.89875   0.62538   0.00000  Uiso   1.00
O1001  O     0.92956   0.89630   0.61930   0.00000  Uiso   1.00
O1002  O     0.86114   0.93493   0.62433   0.00000  Uiso   1.00
N1003  N     0.78241   0.76903   0.61124   0.00000  Uiso   1.00
O1004  O     0.73479   0.77326   0.59349   0.00000  Uiso   1.00
O1005  O     0.80144   0.73221   0.61291   0.00000  Uiso   1.00
N1006  N     0.88425   0.89764   0.38875   0.00000  Uiso   1.00
O1007  O     0.93186   0.89342   0.40651   0.00000  Uiso   1.00
O1008  O     0.86522   0.93446   0.38708   0.00000  Uiso   1.00
O1009  O     0.16666   0.10655   0.87291   0.00000  Uiso   1.00
O1010  O     0.16667   0.22678   0.79375   0.00000  Uiso   1.00
O1011  O     0.16666   0.10654   0.79372   0.00000  Uiso   1.00
O1012  O     0.16667   0.22679   0.87294   0.00000  Uiso   1.00
C1013  C     0.16795   0.08762   0.83335   0.00000  Uiso   1.00
C1014  C     0.16538   0.24572   0.83332   0.00000  Uiso   1.00
O1015  O     0.09161   0.16667   0.86379   0.00000  Uiso   1.00
O1016  O     0.24172   0.16666   0.80288   0.00000  Uiso   1.00
O1017  O     0.09161   0.16666   0.78460   0.00000  Uiso   1.00
O1018  O     0.24172   0.16667   0.88207   0.00000  Uiso   1.00
C1019  C     0.06817   0.16629   0.82142   0.00000  Uiso   1.00
C1020  C     0.26517   0.16705   0.84525   0.00000  Uiso   1.00
Cu1021 Cu    0.16667   0.16667   0.88022   0.00000  Uiso   1.00
Cu1022 Cu    0.16667   0.16666   0.78645   0.00000  Uiso   1.00
N1023  N     0.16668   0.16668   0.95069   0.00000  Uiso   1.00
N1024  N     0.16665   0.16666   0.71597   0.00000  Uiso   1.00
C1025  C     0.01312   0.16143   0.81556   0.00000  Uiso   1.00
C1026  C     0.32021   0.17191   0.85110   0.00000  Uiso   1.00
C1027  C     0.12946   0.02160   0.80489   0.00000  Uiso   1.00
C1028  C     0.20387   0.31174   0.86177   0.00000  Uiso   1.00
H1029  H     0.09980   0.03888   0.78432   0.00000  Uiso   1.00
H1030  H     0.23353   0.29445   0.88235   0.00000  Uiso   1.00
C1031  C     0.12616   0.31185   0.80463   0.00000  Uiso   1.00
C1032  C     0.20716   0.02149   0.86204   0.00000  Uiso   1.00
C1033  C     0.16418   0.29037   0.83350   0.00000  Uiso   1.00
C1034  C     0.16915   0.04296   0.83317   0.00000  Uiso   1.00
C1035  C     0.14278   0.13524   0.68792   0.00000  Uiso   1.00
C1036  C     0.19055   0.19809   0.97875   0.00000  Uiso   1.00
C1037  C     0.14248   0.13537   0.97192   0.00000  Uiso   1.00
C1038  C     0.19085   0.19796   0.69474   0.00000  Uiso   1.00
N1039  N     0.32238   0.13965   0.77424   0.00000  Uiso   1.00
O1040  O     0.32510   0.15496   0.73311   0.00000  Uiso   1.00
O1041  O     0.30226   0.10269   0.77761   0.00000  Uiso   1.00
N1042  N     0.01095   0.19368   0.89242   0.00000  Uiso   1.00
O1043  O     0.00821   0.17839   0.93356   0.00000  Uiso   1.00
O1044  O     0.03112   0.23062   0.88907   0.00000  Uiso   1.00
C1045  C     0.08176   0.29094   0.77530   0.00000  Uiso   1.00
O1046  O     0.06532   0.25718   0.78621   0.00000  Uiso   1.00
O1047  O     0.05754   0.31069   0.73564   0.00000  Uiso   1.00
H1048  H     0.02754   0.29370   0.71878   0.00000  Uiso   1.00
C1049  C     0.25157   0.04240   0.89137   0.00000  Uiso   1.00
O1050  O     0.26802   0.07615   0.88044   0.00000  Uiso   1.00
O1051  O     0.27576   0.02265   0.93105   0.00000  Uiso   1.00
H1052  H     0.30576   0.03964   0.94791   0.00000  Uiso   1.00
N1053  N     0.11815   0.10125   0.70795   0.00000  Uiso   1.00
O1054  O     0.07043   0.10371   0.71403   0.00000  Uiso   1.00
O1055  O     0.13884   0.06507   0.70900   0.00000  Uiso   1.00
N1056  N     0.21517   0.23209   0.95872   0.00000  Uiso   1.00
O1057  O     0.26289   0.22964   0.95264   0.00000  Uiso   1.00
O1058  O     0.19447   0.26826   0.95766   0.00000  Uiso   1.00
N1059  N     0.11574   0.10237   0.94458   0.00000  Uiso   1.00
O1060  O     0.06813   0.10659   0.92682   0.00000  Uiso   1.00
O1061  O     0.13477   0.06554   0.94625   0.00000  Uiso   1.00
N1062  N     0.21758   0.23097   0.72209   0.00000  Uiso   1.00
O1063  O     0.26520   0.22675   0.73985   0.00000  Uiso   1.00
O1064  O     0.19855   0.26780   0.72042   0.00000  Uiso   1.00
O1065  O     0.50000   0.10655   0.87291   0.00000  Uiso   1.00
O1066  O     0.50000   0.22678   0.79375   0.00000  Uiso   1.00
O1067  O     0.50000   0.10654   0.79372   0.00000  Uiso   1.00
O1068  O     0.50000   0.22679   0.87294   0.00000  Uiso   1.00
C1069  C     0.50128   0.08762   0.83335   0.00000  Uiso   1.00
C1070  C     0.49872   0.24572   0.83332   0.00000  Uiso   1.00
O1071  O     0.42495   0.16667   0.86379   0.00000  Uiso   1.00
O1072  O     0.57505   0.16666   0.80288   0.00000  Uiso   1.00
O1073  O     0.42494   0.16666   0.78460   0.00000  Uiso   1.00
O1074  O     0.57506   0.16667   0.88207   0.00000  Uiso   1.00
C1075  C     0.40150   0.16629   0.82142   0.00000  Uiso   1.00
C1076  C     0.59850   0.16705   0.84525   0.00000  Uiso   1.00
Cu1077 Cu    0.50000   0.16667   0.88022   0.00000  Uiso   1.00
Cu1078 Cu    0.50000   0.16666   0.78645   0.00000  Uiso   1.00
N1079  N     0.50001   0.16668   0.95069   0.00000  Uiso   1.00
N1080  N     0.49999   0.16666   0.71597   0.00000  Uiso   1.00
C1081  C     0.34645   0.16143   0.81556   0.00000  Uiso   1.00
C1082  C     0.65355   0.17191   0.85110   0.00000  Uiso   1.00
C1083  C     0.46279   0.02160   0.80489   0.00000  Uiso   1.00
C1084  C     0.53720   0.31174   0.86177   0.00000  Uiso   1.00
H1085  H     0.43313   0.03888   0.78432   0.00000  Uiso   1.00
H1086  H     0.56687   0.29445   0.88235   0.00000  Uiso   1.00
C1087  C     0.45950   0.31185   0.80463   0.00000  Uiso   1.00
C1088  C     0.54050   0.02149   0.86204   0.00000  Uiso   1.00
C1089  C     0.49751   0.29037   0.83350   0.00000  Uiso   1.00
C1090  C     0.50249   0.04296   0.83317   0.00000  Uiso   1.00
C1091  C     0.47611   0.13524   0.68792   0.00000  Uiso   1.00
C1092  C     0.52389   0.19809   0.97875   0.00000  Uiso   1.00
C1093  C     0.47581   0.13537   0.97192   0.00000  Uiso   1.00
C1094  C     0.52418   0.19796   0.69474   0.00000  Uiso   1.00
N1095  N     0.65571   0.13965   0.77424   0.00000  Uiso   1.00
O1096  O     0.65843   0.15496   0.73311   0.00000  Uiso   1.00
O1097  O     0.63560   0.10269   0.77761   0.00000  Uiso   1.00
N1098  N     0.34429   0.19368   0.89242   0.00000  Uiso   1.00
O1099  O     0.34155   0.17839   0.93356   0.00000  Uiso   1.00
O1100  O     0.36446   0.23062   0.88907   0.00000  Uiso   1.00
C1101  C     0.41509   0.29094   0.77530   0.00000  Uiso   1.00
O1102  O     0.39865   0.25718   0.78621   0.00000  Uiso   1.00
O1103  O     0.39088   0.31069   0.73564   0.00000  Uiso   1.00
H1104  H     0.36088   0.29370   0.71878   0.00000  Uiso   1.00
C1105  C     0.58490   0.04240   0.89137   0.00000  Uiso   1.00
O1106  O     0.60135   0.07615   0.88044   0.00000  Uiso   1.00
O1107  O     0.60910   0.02265   0.93105   0.00000  Uiso   1.00
H1108  H     0.63910   0.03964   0.94791   0.00000  Uiso   1.00
N1109  N     0.45149   0.10125   0.70795   0.00000  Uiso   1.00
O1110  O     0.40377   0.10371   0.71403   0.00000  Uiso   1.00
O1111  O     0.47218   0.06507   0.70900   0.00000  Uiso   1.00
N1112  N     0.54850   0.23209   0.95872   0.00000  Uiso   1.00
O1113  O     0.59622   0.22964   0.95264   0.00000  Uiso   1.00
O1114  O     0.52780   0.26826   0.95766   0.00000  Uiso   1.00
N1115  N     0.44908   0.10237   0.94458   0.00000  Uiso   1.00
O1116  O     0.40146   0.10659   0.92682   0.00000  Uiso   1.00
O1117  O     0.46810   0.06554   0.94625   0.00000  Uiso   1.00
N1118  N     0.55092   0.23097   0.72209   0.00000  Uiso   1.00
O1119  O     0.59853   0.22675   0.73985   0.00000  Uiso   1.00
O1120  O     0.53188   0.26780   0.72042   0.00000  Uiso   1.00
O1121  O     0.83333   0.10655   0.87291   0.00000  Uiso   1.00
O1122  O     0.83334   0.22678   0.79375   0.00000  Uiso   1.00
O1123  O     0.83333   0.10654   0.79372   0.00000  Uiso   1.00
O1124  O     0.83334   0.22679   0.87294   0.00000  Uiso   1.00
C1125  C     0.83462   0.08762   0.83335   0.00000  Uiso   1.00
C1126  C     0.83205   0.24572   0.83332   0.00000  Uiso   1.00
O1127  O     0.75828   0.16667   0.86379   0.00000  Uiso   1.00
O1128  O     0.90839   0.16666   0.80288   0.00000  Uiso   1.00
O1129  O     0.75828   0.16666   0.78460   0.00000  Uiso   1.00
O1130  O     0.90839   0.16667   0.88207   0.00000  Uiso   1.00
C1131  C     0.73483   0.16629   0.82142   0.00000  Uiso   1.00
C1132  C     0.93183   0.16705   0.84525   0.00000  Uiso   1.00
Cu1133 Cu    0.83333   0.16667   0.88022   0.00000  Uiso   1.00
Cu1134 Cu    0.83333   0.16666   0.78645   0.00000  Uiso   1.00
N1135  N     0.83335   0.16668   0.95069   0.00000  Uiso   1.00
N1136  N     0.83332   0.16666   0.71597   0.00000  Uiso   1.00
C1137  C     0.67979   0.16143   0.81556   0.00000  Uiso   1.00
C1138  C     0.98688   0.17191   0.85110   0.00000  Uiso   1.00
C1139  C     0.79613   0.02160   0.80489   0.00000  Uiso   1.00
C1140  C     0.87054   0.31174   0.86177   0.00000  Uiso   1.00
H1141  H     0.76646   0.03888   0.78432   0.00000  Uiso   1.00
H1142  H     0.90020   0.29445   0.88235   0.00000  Uiso   1.00
C1143  C     0.79283   0.31185   0.80463   0.00000  Uiso   1.00
C1144  C     0.87383   0.02149   0.86204   0.00000  Uiso   1.00
C1145  C     0.83084   0.29037   0.83350   0.00000  Uiso   1.00
C1146  C     0.83582   0.04296   0.83317   0.00000  Uiso   1.00
C1147  C     0.80944   0.13524   0.68792   0.00000  Uiso   1.00
C1148  C     0.85722   0.19809   0.97875   0.00000  Uiso   1.00
C1149  C     0.80915   0.13537   0.97192   0.00000  Uiso   1.00
C1150  C     0.85752   0.19796   0.69474   0.00000  Uiso   1.00
N1151  N     0.98904   0.13965   0.77424   0.00000  Uiso   1.00
O1152  O     0.99176   0.15496   0.73311   0.00000  Uiso   1.00
O1153  O     0.96893   0.10269   0.77761   0.00000  Uiso   1.00
N1154  N     0.67762   0.19368   0.89242   0.00000  Uiso   1.00
O1155  O     0.67488   0.17839   0.93356   0.00000  Uiso   1.00
O1156  O     0.69779   0.23062   0.88907   0.00000  Uiso   1.00
C1157  C     0.74842   0.29094   0.77530   0.00000  Uiso   1.00
O1158  O     0.73199   0.25718   0.78621   0.00000  Uiso   1.00
O1159  O     0.72421   0.31069   0.73564   0.00000  Uiso   1.00
H1160  H     0.69421   0.29370   0.71878   0.00000  Uiso   1.00
C1161  C     0.91824   0.04240   0.89137   0.00000  Uiso   1.00
O1162  O     0.93469   0.07615   0.88044   0.00000  Uiso   1.00
O1163  O     0.94243   0.02265   0.93105   0.00000  Uiso   1.00
H1164  H     0.97243   0.03964   0.94791   0.00000  Uiso   1.00
N1165  N     0.78482   0.10125   0.70795   0.00000  Uiso   1.00
O1166  O     0.73710   0.10371   0.71403   0.00000  Uiso   1.00
O1167  O     0.80551   0.06507   0.70900   0.00000  Uiso   1.00
N1168  N     0.88183   0.23209   0.95872   0.00000  Uiso   1.00
O1169  O     0.92956   0.22964   0.95264   0.00000  Uiso   1.00
O1170  O     0.86114   0.26826   0.95766   0.00000  Uiso   1.00
N1171  N     0.78241   0.10237   0.94458   0.00000  Uiso   1.00
O1172  O     0.73479   0.10659   0.92682   0.00000  Uiso   1.00
O1173  O     0.80144   0.06554   0.94625   0.00000  Uiso   1.00
N1174  N     0.88425   0.23097   0.72209   0.00000  Uiso   1.00
O1175  O     0.93186   0.22675   0.73985   0.00000  Uiso   1.00
O1176  O     0.86522   0.26780   0.72042   0.00000  Uiso   1.00
O1177  O     0.16666   0.43989   0.87291   0.00000  Uiso   1.00
O1178  O     0.16667   0.56011   0.79375   0.00000  Uiso   1.00
O1179  O     0.16666   0.43988   0.79372   0.00000  Uiso   1.00
O1180  O     0.16667   0.56012   0.87294   0.00000  Uiso   1.00
C1181  C     0.16795   0.42095   0.83335   0.00000  Uiso   1.00
C1182  C     0.16538   0.57905   0.83332   0.00000  Uiso   1.00
O1183  O     0.09161   0.50000   0.86379   0.00000  Uiso   1.00
O1184  O     0.24172   0.50000   0.80288   0.00000  Uiso   1.00
O1185  O     0.09161   0.49999   0.78460   0.00000  Uiso   1.00
O1186  O     0.24172   0.50001   0.88207   0.00000  Uiso   1.00
C1187  C     0.06817   0.49962   0.82142   0.00000  Uiso   1.00
C1188  C     0.26517   0.50038   0.84525   0.00000  Uiso   1.00
Cu1189 Cu    0.16667   0.50001   0.88022   0.00000  Uiso   1.00
Cu1190 Cu    0.16667   0.49999   0.78645   0.00000  Uiso   1.00
N1191  N     0.16668   0.50001   0.95069   0.00000  Uiso   1.00
N1192  N     0.16665   0.49999   0.71597   0.00000  Uiso   1.00
C1193  C     0.01312   0.49476   0.81556   0.00000  Uiso   1.00
C1194  C     0.32021   0.50525   0.85110   0.00000  Uiso   1.00
C1195  C     0.12946   0.35493   0.80489   0.00000  Uiso   1.00
C1196  C     0.20387   0.64507   0.86177   0.00000  Uiso   1.00
H1197  H     0.09980   0.37222   0.78432   0.00000  Uiso   1.00
H1198  H     0.23353   0.62779   0.88235   0.00000  Uiso   1.00
C1199  C     0.12616   0.64518   0.80463   0.00000  Uiso   1.00
C1200  C     0.20716   0.35482   0.86204   0.00000  Uiso   1.00
C1201  C     0.16418   0.62370   0.83350   0.00000  Uiso   1.00
C1202  C     0.16915   0.37630   0.83317   0.00000  Uiso   1.00
C1203  C     0.14278   0.46858   0.68792   0.00000  Uiso   1.00
C1204  C     0.19055   0.53142   0.97875   0.00000  Uiso   1.00
C1205  C     0.14248   0.46871   0.97192   0.00000  Uiso   1.00
C1206  C     0.19085   0.53129   0.69474   0.00000  Uiso   1.00
N1207  N     0.32238   0.47299   0.77424   0.00000  Uiso   1.00
O1208  O     0.32510   0.48829   0.73311   0.00000  Uiso   1.00
O1209  O     0.30226   0.43603   0.77761   0.00000  Uiso   1.00
N1210  N     0.01095   0.52702   0.89242   0.00000  Uiso   1.00
O1211  O     0.00821   0.51172   0.93356   0.00000  Uiso   1.00
O1212  O     0.03112   0.56396   0.88907   0.00000  Uiso   1.00
C1213  C     0.08176   0.62427   0.77530   0.00000  Uiso   1.00
O1214  O     0.06532   0.59051   0.78621   0.00000  Uiso   1.00
O1215  O     0.05754   0.64403   0.73564   0.00000  Uiso   1.00
H1216  H     0.02754   0.62703   0.71878   0.00000  Uiso   1.00
C1217  C     0.25157   0.37573   0.89137   0.00000  Uiso   1.00
O1218  O     0.26802   0.40948   0.88044   0.00000  Uiso   1.00
O1219  O     0.27576   0.35598   0.93105   0.00000  Uiso   1.00
H1220  H     0.30576   0.37298   0.94791   0.00000  Uiso   1.00
N1221  N     0.11815   0.43459   0.70795   0.00000  Uiso   1.00
O1222  O     0.07043   0.43705   0.71403   0.00000  Uiso   1.00
O1223  O     0.13884   0.39840   0.70900   0.00000  Uiso   1.00
N1224  N     0.21517   0.56542   0.95872   0.00000  Uiso   1.00
O1225  O     0.26289   0.56297   0.95264   0.00000  Uiso   1.00
O1226  O     0.19447   0.60160   0.95766   0.00000  Uiso   1.00
N1227  N     0.11574   0.43570   0.94458   0.00000  Uiso   1.00
O1228  O     0.06813   0.43993   0.92682   0.00000  Uiso   1.00
O1229  O     0.13477   0.39887   0.94625   0.00000  Uiso   1.00
N1230  N     0.21758   0.56430   0.72209   0.00000  Uiso   1.00
O1231  O     0.26520   0.56008   0.73985   0.00000  Uiso   1.00
O1232  O     0.19855   0.60113   0.72042   0.00000  Uiso   1.00
O1233  O     0.50000   0.43989   0.87291   0.00000  Uiso   1.00
O1234  O     0.50000   0.56011   0.79375   0.00000  Uiso   1.00
O1235  O     0.50000   0.43988   0.79372   0.00000  Uiso   1.00
O1236  O     0.50000   0.56012   0.87294   0.00000  Uiso   1.00
C1237  C     0.50128   0.42095   0.83335   0.00000  Uiso   1.00
C1238  C     0.49872   0.57905   0.83332   0.00000  Uiso   1.00
O1239  O     0.42495   0.50000   0.86379   0.00000  Uiso   1.00
O1240  O     0.57505   0.50000   0.80288   0.00000  Uiso   1.00
O1241  O     0.42494   0.49999   0.78460   0.00000  Uiso   1.00
O1242  O     0.57506   0.50001   0.88207   0.00000  Uiso   1.00
C1243  C     0.40150   0.49962   0.82142   0.00000  Uiso   1.00
C1244  C     0.59850   0.50038   0.84525   0.00000  Uiso   1.00
Cu1245 Cu    0.50000   0.50001   0.88022   0.00000  Uiso   1.00
Cu1246 Cu    0.50000   0.49999   0.78645   0.00000  Uiso   1.00
N1247  N     0.50001   0.50001   0.95069   0.00000  Uiso   1.00
N1248  N     0.49999   0.49999   0.71597   0.00000  Uiso   1.00
C1249  C     0.34645   0.49476   0.81556   0.00000  Uiso   1.00
C1250  C     0.65355   0.50525   0.85110   0.00000  Uiso   1.00
C1251  C     0.46279   0.35493   0.80489   0.00000  Uiso   1.00
C1252  C     0.53720   0.64507   0.86177   0.00000  Uiso   1.00
H1253  H     0.43313   0.37222   0.78432   0.00000  Uiso   1.00
H1254  H     0.56687   0.62779   0.88235   0.00000  Uiso   1.00
C1255  C     0.45950   0.64518   0.80463   0.00000  Uiso   1.00
C1256  C     0.54050   0.35482   0.86204   0.00000  Uiso   1.00
C1257  C     0.49751   0.62370   0.83350   0.00000  Uiso   1.00
C1258  C     0.50249   0.37630   0.83317   0.00000  Uiso   1.00
C1259  C     0.47611   0.46858   0.68792   0.00000  Uiso   1.00
C1260  C     0.52389   0.53142   0.97875   0.00000  Uiso   1.00
C1261  C     0.47581   0.46871   0.97192   0.00000  Uiso   1.00
C1262  C     0.52418   0.53129   0.69474   0.00000  Uiso   1.00
N1263  N     0.65571   0.47299   0.77424   0.00000  Uiso   1.00
O1264  O     0.65843   0.48829   0.73311   0.00000  Uiso   1.00
O1265  O     0.63560   0.43603   0.77761   0.00000  Uiso   1.00
N1266  N     0.34429   0.52702   0.89242   0.00000  Uiso   1.00
O1267  O     0.34155   0.51172   0.93356   0.00000  Uiso   1.00
O1268  O     0.36446   0.56396   0.88907   0.00000  Uiso   1.00
C1269  C     0.41509   0.62427   0.77530   0.00000  Uiso   1.00
O1270  O     0.39865   0.59051   0.78621   0.00000  Uiso   1.00
O1271  O     0.39088   0.64403   0.73564   0.00000  Uiso   1.00
H1272  H     0.36088   0.62703   0.71878   0.00000  Uiso   1.00
C1273  C     0.58490   0.37573   0.89137   0.00000  Uiso   1.00
O1274  O     0.60135   0.40948   0.88044   0.00000  Uiso   1.00
O1275  O     0.60910   0.35598   0.93105   0.00000  Uiso   1.00
H1276  H     0.63910   0.37298   0.94791   0.00000  Uiso   1.00
N1277  N     0.45149   0.43459   0.70795   0.00000  Uiso   1.00
O1278  O     0.40377   0.43705   0.71403   0.00000  Uiso   1.00
O1279  O     0.47218   0.39840   0.70900   0.00000  Uiso   1.00
N1280  N     0.54850   0.56542   0.95872   0.00000  Uiso   1.00
O1281  O     0.59622   0.56297   0.95264   0.00000  Uiso   1.00
O1282  O     0.52780   0.60160   0.95766   0.00000  Uiso   1.00
N1283  N     0.44908   0.43570   0.94458   0.00000  Uiso   1.00
O1284  O     0.40146   0.43993   0.92682   0.00000  Uiso   1.00
O1285  O     0.46810   0.39887   0.94625   0.00000  Uiso   1.00
N1286  N     0.55092   0.56430   0.72209   0.00000  Uiso   1.00
O1287  O     0.59853   0.56008   0.73985   0.00000  Uiso   1.00
O1288  O     0.53188   0.60113   0.72042   0.00000  Uiso   1.00
O1289  O     0.83333   0.43989   0.87291   0.00000  Uiso   1.00
O1290  O     0.83334   0.56011   0.79375   0.00000  Uiso   1.00
O1291  O     0.83333   0.43988   0.79372   0.00000  Uiso   1.00
O1292  O     0.83334   0.56012   0.87294   0.00000  Uiso   1.00
C1293  C     0.83462   0.42095   0.83335   0.00000  Uiso   1.00
C1294  C     0.83205   0.57905   0.83332   0.00000  Uiso   1.00
O1295  O     0.75828   0.50000   0.86379   0.00000  Uiso   1.00
O1296  O     0.90839   0.50000   0.80288   0.00000  Uiso   1.00
O1297  O     0.75828   0.49999   0.78460   0.00000  Uiso   1.00
O1298  O     0.90839   0.50001   0.88207   0.00000  Uiso   1.00
C1299  C     0.73483   0.49962   0.82142   0.00000  Uiso   1.00
C1300  C     0.93183   0.50038   0.84525   0.00000  Uiso   1.00
Cu1301 Cu    0.83333   0.50001   0.88022   0.00000  Uiso   1.00
Cu1302 Cu    0.83333   0.49999   0.78645   0.00000  Uiso   1.00
N1303  N     0.83335   0.50001   0.95069   0.00000  Uiso   1.00
N1304  N     0.83332   0.49999   0.71597   0.00000  Uiso   1.00
C1305  C     0.67979   0.49476   0.81556   0.00000  Uiso   1.00
C1306  C     0.98688   0.50525   0.85110   0.00000  Uiso   1.00
C1307  C     0.79613   0.35493   0.80489   0.00000  Uiso   1.00
C1308  C     0.87054   0.64507   0.86177   0.00000  Uiso   1.00
H1309  H     0.76646   0.37222   0.78432   0.00000  Uiso   1.00
H1310  H     0.90020   0.62779   0.88235   0.00000  Uiso   1.00
C1311  C     0.79283   0.64518   0.80463   0.00000  Uiso   1.00
C1312  C     0.87383   0.35482   0.86204   0.00000  Uiso   1.00
C1313  C     0.83084   0.62370   0.83350   0.00000  Uiso   1.00
C1314  C     0.83582   0.37630   0.83317   0.00000  Uiso   1.00
C1315  C     0.80944   0.46858   0.68792   0.00000  Uiso   1.00
C1316  C     0.85722   0.53142   0.97875   0.00000  Uiso   1.00
C1317  C     0.80915   0.46871   0.97192   0.00000  Uiso   1.00
C1318  C     0.85752   0.53129   0.69474   0.00000  Uiso   1.00
N1319  N     0.98904   0.47299   0.77424   0.00000  Uiso   1.00
O1320  O     0.99176   0.48829   0.73311   0.00000  Uiso   1.00
O1321  O     0.96893   0.43603   0.77761   0.00000  Uiso   1.00
N1322  N     0.67762   0.52702   0.89242   0.00000  Uiso   1.00
O1323  O     0.67488   0.51172   0.93356   0.00000  Uiso   1.00
O1324  O     0.69779   0.56396   0.88907   0.00000  Uiso   1.00
C1325  C     0.74842   0.62427   0.77530   0.00000  Uiso   1.00
O1326  O     0.73199   0.59051   0.78621   0.00000  Uiso   1.00
O1327  O     0.72421   0.64403   0.73564   0.00000  Uiso   1.00
H1328  H     0.69421   0.62703   0.71878   0.00000  Uiso   1.00
C1329  C     0.91824   0.37573   0.89137   0.00000  Uiso   1.00
O1330  O     0.93469   0.40948   0.88044   0.00000  Uiso   1.00
O1331  O     0.94243   0.35598   0.93105   0.00000  Uiso   1.00
H1332  H     0.97243   0.37298   0.94791   0.00000  Uiso   1.00
N1333  N     0.78482   0.43459   0.70795   0.00000  Uiso   1.00
O1334  O     0.73710   0.43705   0.71403   0.00000  Uiso   1.00
O1335  O     0.80551   0.39840   0.70900   0.00000  Uiso   1.00
N1336  N     0.88183   0.56542   0.95872   0.00000  Uiso   1.00
O1337  O     0.92956   0.56297   0.95264   0.00000  Uiso   1.00
O1338  O     0.86114   0.60160   0.95766   0.00000  Uiso   1.00
N1339  N     0.78241   0.43570   0.94458   0.00000  Uiso   1.00
O1340  O     0.73479   0.43993   0.92682   0.00000  Uiso   1.00
O1341  O     0.80144   0.39887   0.94625   0.00000  Uiso   1.00
N1342  N     0.88425   0.56430   0.72209   0.00000  Uiso   1.00
O1343  O     0.93186   0.56008   0.73985   0.00000  Uiso   1.00
O1344  O     0.86522   0.60113   0.72042   0.00000  Uiso   1.00
O1345  O     0.16666   0.77322   0.87291   0.00000  Uiso   1.00
O1346  O     0.16667   0.89345   0.79375   0.00000  Uiso   1.00
O1347  O     0.16666   0.77321   0.79372   0.00000  Uiso   1.00
O1348  O     0.16667   0.89346   0.87294   0.00000  Uiso   1.00
C1349  C     0.16795   0.75428   0.83335   0.00000  Uiso   1.00
C1350  C     0.16538   0.91238   0.83332   0.00000  Uiso   1.00
O1351  O     0.09161   0.83334   0.86379   0.00000  Uiso   1.00
O1352  O     0.24172   0.83333   0.80288   0.00000  Uiso   1.00
O1353  O     0.09161   0.83333   0.78460   0.00000  Uiso   1.00
O1354  O     0.24172   0.83334   0.88207   0.00000  Uiso   1.00
C1355  C     0.06817   0.83295   0.82142   0.00000  Uiso   1.00
C1356  C     0.26517   0.83372   0.84525   0.00000  Uiso   1.00
Cu1357 Cu    0.16667   0.83334   0.88022   0.00000  Uiso   1.00
Cu1358 Cu    0.16667   0.83333   0.78645   0.00000  Uiso   1.00
N1359  N     0.16668   0.83334   0.95069   0.00000  Uiso   1.00
N1360  N     0.16665   0.83332   0.71597   0.00000  Uiso   1.00
C1361  C     0.01312   0.82810   0.81556   0.00000  Uiso   1.00
C1362  C     0.32021   0.83858   0.85110   0.00000  Uiso   1.00
C1363  C     0.12946   0.68826   0.80489   0.00000  Uiso   1.00
C1364  C     0.20387   0.97840   0.86177   0.00000  Uiso   1.00
H1365  H     0.09980   0.70555   0.78432   0.00000  Uiso   1.00
H1366  H     0.23353   0.96112   0.88235   0.00000  Uiso   1.00
C1367  C     0.12616   0.97851   0.80463   0.00000  Uiso   1.00
C1368  C     0.20716   0.68815   0.86204   0.00000  Uiso   1.00
C1369  C     0.16418   0.95704   0.83350   0.00000  Uiso   1.00
C1370  C     0.16915   0.70963   0.83317   0.00000  Uiso   1.00
C1371  C     0.14278   0.80191   0.68792   0.00000  Uiso   1.00
C1372  C     0.19055   0.86476   0.97875   0.00000  Uiso   1.00
C1373  C     0.14248   0.80204   0.97192   0.00000  Uiso   1.00
C1374  C     0.19085   0.86463   0.69474   0.00000  Uiso   1.00
N1375  N     0.32238   0.80632   0.77424   0.00000  Uiso   1.00
O1376  O     0.32510   0.82162   0.73311   0.00000  Uiso   1.00
O1377  O     0.30226   0.76936   0.77761   0.00000  Uiso   1.00
N1378  N     0.01095   0.86035   0.89242   0.00000  Uiso   1.00
O1379  O     0.00821   0.84506   0.93356   0.00000  Uiso   1.00
O1380  O     0.03112   0.89729   0.88907   0.00000  Uiso   1.00
C1381  C     0.08176   0.95760   0.77530   0.00000  Uiso   1.00
O1382  O     0.06532   0.92384   0.78621   0.00000  Uiso   1.00
O1383  O     0.05754   0.97736   0.73564   0.00000  Uiso   1.00
H1384  H     0.02754   0.96037   0.71878   0.00000  Uiso   1.00
C1385  C     0.25157   0.70906   0.89137   0.00000  Uiso   1.00
O1386  O     0.26802   0.74282   0.88044   0.00000  Uiso   1.00
O1387  O     0.27576   0.68932   0.93105   0.00000  Uiso   1.00
H1388  H     0.30576   0.70631   0.94791   0.00000  Uiso   1.00
N1389  N     0.11815   0.76792   0.70795   0.00000  Uiso   1.00
O1390  O     0.07043   0.77038   0.71403   0.00000  Uiso   1.00
O1391  O     0.13884   0.73174   0.70900   0.00000  Uiso   1.00
N1392  N     0.21517   0.89875   0.95872   0.00000  Uiso   1.00
O1393  O     0.26289   0.89630   0.95264   0.00000  Uiso   1.00
O1394  O     0.19447   0.93493   0.95766   0.00000  Uiso   1.00
N1395  N     0.11574   0.76903   0.94458   0.00000  Uiso   1.00
O1396  O     0.06813   0.77326   0.92682   0.00000  Uiso   1.00
O1397  O     0.13477   0.73221   0.94625   0.00000  Uiso   1.00
N1398  N     0.21758   0.89764   0.72209   0.00000  Uiso   1.00
O1399  O     0.26520   0.89342   0.73985   0.00000  Uiso   1.00
O1400  O     0.19855   0.93446   0.72042   0.00000  Uiso   1.00
O1401  O     0.50000   0.77322   0.87291   0.00000  Uiso   1.00
O1402  O     0.50000   0.89345   0.79375   0.00000  Uiso   1.00
O1403  O     0.50000   0.77321   0.79372   0.00000  Uiso   1.00
O1404  O     0.50000   0.89346   0.87294   0.00000  Uiso   1.00
C1405  C     0.50128   0.75428   0.83335   0.00000  Uiso   1.00
C1406  C     0.49872   0.91238   0.83332   0.00000  Uiso   1.00
O1407  O     0.42495   0.83334   0.86379   0.00000  Uiso   1.00
O1408  O     0.57505   0.83333   0.80288   0.00000  Uiso   1.00
O1409  O     0.42494   0.83333   0.78460   0.00000  Uiso   1.00
O1410  O     0.57506   0.83334   0.88207   0.00000  Uiso   1.00
C1411  C     0.40150   0.83295   0.82142   0.00000  Uiso   1.00
C1412  C     0.59850   0.83372   0.84525   0.00000  Uiso   1.00
Cu1413 Cu    0.50000   0.83334   0.88022   0.00000  Uiso   1.00
Cu1414 Cu    0.50000   0.83333   0.78645   0.00000  Uiso   1.00
N1415  N     0.50001   0.83334   0.95069   0.00000  Uiso   1.00
N1416  N     0.49999   0.83332   0.71597   0.00000  Uiso   1.00
C1417  C     0.34645   0.82810   0.81556   0.00000  Uiso   1.00
C1418  C     0.65355   0.83858   0.85110   0.00000  Uiso   1.00
C1419  C     0.46279   0.68826   0.80489   0.00000  Uiso   1.00
C1420  C     0.53720   0.97840   0.86177   0.00000  Uiso   1.00
H1421  H     0.43313   0.70555   0.78432   0.00000  Uiso   1.00
H1422  H     0.56687   0.96112   0.88235   0.00000  Uiso   1.00
C1423  C     0.45950   0.97851   0.80463   0.00000  Uiso   1.00
C1424  C     0.54050   0.68815   0.86204   0.00000  Uiso   1.00
C1425  C     0.49751   0.95704   0.83350   0.00000  Uiso   1.00
C1426  C     0.50249   0.70963   0.83317   0.00000  Uiso   1.00
C1427  C     0.47611   0.80191   0.68792   0.00000  Uiso   1.00
C1428  C     0.52389   0.86476   0.97875   0.00000  Uiso   1.00
C1429  C     0.47581   0.80204   0.97192   0.00000  Uiso   1.00
C1430  C     0.52418   0.86463   0.69474   0.00000  Uiso   1.00
N1431  N     0.65571   0.80632   0.77424   0.00000  Uiso   1.00
O1432  O     0.65843   0.82162   0.73311   0.00000  Uiso   1.00
O1433  O     0.63560   0.76936   0.77761   0.00000  Uiso   1.00
N1434  N     0.34429   0.86035   0.89242   0.00000  Uiso   1.00
O1435  O     0.34155   0.84506   0.93356   0.00000  Uiso   1.00
O1436  O     0.36446   0.89729   0.88907   0.00000  Uiso   1.00
C1437  C     0.41509   0.95760   0.77530   0.00000  Uiso   1.00
O1438  O     0.39865   0.92384   0.78621   0.00000  Uiso   1.00
O1439  O     0.39088   0.97736   0.73564   0.00000  Uiso   1.00
H1440  H     0.36088   0.96037   0.71878   0.00000  Uiso   1.00
C1441  C     0.58490   0.70906   0.89137   0.00000  Uiso   1.00
O1442  O     0.60135   0.74282   0.88044   0.00000  Uiso   1.00
O1443  O     0.60910   0.68932   0.93105   0.00000  Uiso   1.00
H1444  H     0.63910   0.70631   0.94791   0.00000  Uiso   1.00
N1445  N     0.45149   0.76792   0.70795   0.00000  Uiso   1.00
O1446  O     0.40377   0.77038   0.71403   0.00000  Uiso   1.00
O1447  O     0.47218   0.73174   0.70900   0.00000  Uiso   1.00
N1448  N     0.54850   0.89875   0.95872   0.00000  Uiso   1.00
O1449  O     0.59622   0.89630   0.95264   0.00000  Uiso   1.00
O1450  O     0.52780   0.93493   0.95766   0.00000  Uiso   1.00
N1451  N     0.44908   0.76903   0.94458   0.00000  Uiso   1.00
O1452  O     0.40146   0.77326   0.92682   0.00000  Uiso   1.00
O1453  O     0.46810   0.73221   0.94625   0.00000  Uiso   1.00
N1454  N     0.55092   0.89764   0.72209   0.00000  Uiso   1.00
O1455  O     0.59853   0.89342   0.73985   0.00000  Uiso   1.00
O1456  O     0.53188   0.93446   0.72042   0.00000  Uiso   1.00
O1457  O     0.83333   0.77322   0.87291   0.00000  Uiso   1.00
O1458  O     0.83334   0.89345   0.79375   0.00000  Uiso   1.00
O1459  O     0.83333   0.77321   0.79372   0.00000  Uiso   1.00
O1460  O     0.83334   0.89346   0.87294   0.00000  Uiso   1.00
C1461  C     0.83462   0.75428   0.83335   0.00000  Uiso   1.00
C1462  C     0.83205   0.91238   0.83332   0.00000  Uiso   1.00
O1463  O     0.75828   0.83334   0.86379   0.00000  Uiso   1.00
O1464  O     0.90839   0.83333   0.80288   0.00000  Uiso   1.00
O1465  O     0.75828   0.83333   0.78460   0.00000  Uiso   1.00
O1466  O     0.90839   0.83334   0.88207   0.00000  Uiso   1.00
C1467  C     0.73483   0.83295   0.82142   0.00000  Uiso   1.00
C1468  C     0.93183   0.83372   0.84525   0.00000  Uiso   1.00
Cu1469 Cu    0.83333   0.83334   0.88022   0.00000  Uiso   1.00
Cu1470 Cu    0.83333   0.83333   0.78645   0.00000  Uiso   1.00
N1471  N     0.83335   0.83334   0.95069   0.00000  Uiso   1.00
N1472  N     0.83332   0.83332   0.71597   0.00000  Uiso   1.00
C1473  C     0.67979   0.82810   0.81556   0.00000  Uiso   1.00
C1474  C     0.98688   0.83858   0.85110   0.00000  Uiso   1.00
C1475  C     0.79613   0.68826   0.80489   0.00000  Uiso   1.00
C1476  C     0.87054   0.97840   0.86177   0.00000  Uiso   1.00
H1477  H     0.76646   0.70555   0.78432   0.00000  Uiso   1.00
H1478  H     0.90020   0.96112   0.88235   0.00000  Uiso   1.00
C1479  C     0.79283   0.97851   0.80463   0.00000  Uiso   1.00
C1480  C     0.87383   0.68815   0.86204   0.00000  Uiso   1.00
C1481  C     0.83084   0.95704   0.83350   0.00000  Uiso   1.00
C1482  C     0.83582   0.70963   0.83317   0.00000  Uiso   1.00
C1483  C     0.80944   0.80191   0.68792   0.00000  Uiso   1.00
C1484  C     0.85722   0.86476   0.97875   0.00000  Uiso   1.00
C1485  C     0.80915   0.80204   0.97192   0.00000  Uiso   1.00
C1486  C     0.85752   0.86463   0.69474   0.00000  Uiso   1.00
N1487  N     0.98904   0.80632   0.77424   0.00000  Uiso   1.00
O1488  O     0.99176   0.82162   0.73311   0.00000  Uiso   1.00
O1489  O     0.96893   0.76936   0.77761   0.00000  Uiso   1.00
N1490  N     0.67762   0.86035   0.89242   0.00000  Uiso   1.00
O1491  O     0.67488   0.84506   0.93356   0.00000  Uiso   1.00
O1492  O     0.69779   0.89729   0.88907   0.00000  Uiso   1.00
C1493  C     0.74842   0.95760   0.77530   0.00000  Uiso   1.00
O1494  O     0.73199   0.92384   0.78621   0.00000  Uiso   1.00
O1495  O     0.72421   0.97736   0.73564   0.00000  Uiso   1.00
H1496  H     0.69421   0.96037   0.71878   0.00000  Uiso   1.00
C1497  C     0.91824   0.70906   0.89137   0.00000  Uiso   1.00
O1498  O     0.93469   0.74282   0.88044   0.00000  Uiso   1.00
O1499  O     0.94243   0.68932   0.93105   0.00000  Uiso   1.00
H1500  H     0.97243   0.70631   0.94791   0.00000  Uiso   1.00
N1501  N     0.78482   0.76792   0.70795   0.00000  Uiso   1.00
O1502  O     0.73710   0.77038   0.71403   0.00000  Uiso   1.00
O1503  O     0.80551   0.73174   0.70900   0.00000  Uiso   1.00
N1504  N     0.88183   0.89875   0.95872   0.00000  Uiso   1.00
O1505  O     0.92956   0.89630   0.95264   0.00000  Uiso   1.00
O1506  O     0.86114   0.93493   0.95766   0.00000  Uiso   1.00
N1507  N     0.78241   0.76903   0.94458   0.00000  Uiso   1.00
O1508  O     0.73479   0.77326   0.92682   0.00000  Uiso   1.00
O1509  O     0.80144   0.73221   0.94625   0.00000  Uiso   1.00
N1510  N     0.88425   0.89764   0.72209   0.00000  Uiso   1.00
O1511  O     0.93186   0.89342   0.73985   0.00000  Uiso   1.00
O1512  O     0.86522   0.93446   0.72042   0.00000  Uiso   1.00
loop_
_geom_bond_atom_site_label_1
_geom_bond_atom_site_label_2
_geom_bond_distance
_geom_bond_site_symmetry_2
_ccdc_geom_bond_type
O1     C5      1.297   .     A
O1     Cu13    1.950   .     S
O2     C6      1.297   .     A
O2     Cu14    1.950   .     S
O3     Cu14    1.953   .     S
O3     C5      1.299   .     A
O4     C6      1.299   .     A
O4     Cu13    1.953   .     S
C5     C26     1.442   .     S
C6     C25     1.442   .     S
O7     C11     1.292   .     A
O7     Cu13    1.969   .     S
O8     C12     1.292   .     A
O8     Cu14    1.969   .     S
O9     Cu14    1.972   .     S
O9     C11     1.302   .     A
O10    C12     1.302   .     A
O10    Cu13    1.972   .     S
C11    C17     1.441   .     S
C12    C18     1.441   .     S
Cu13   N15     2.036   .     S
Cu13   Cu14    2.709   .     S
Cu14   N16     2.036   .     S
N15    C28     1.375   .     A
N15    C29     1.374   .     A
N16    C27     1.375   .     A
N16    C30     1.374   .     A
C17    C130    1.361   1_455 S
C17    N143    1.439   1_455 S
C18    C73     1.361   .     S
C18    N90     1.439   .     S
C19    H21     1.084   .     S
C19    C26     1.397   .     A
C19    C359    1.391   1_545 S
C20    C25     1.397   .     A
C20    H22     1.084   .     S
C20    C192    1.391   .     S
C23    C37     1.488   .     S
C23    C25     1.412   .     A
C23    C187    1.391   .     S
C24    C41     1.488   .     S
C24    C26     1.412   .     A
C24    C356    1.391   1_545 S
C27    N45     1.427   .     S
C27    C1037   1.424   1_554 S
C28    N48     1.427   .     S
C28    C534    1.424   .     S
C29    N51     1.430   .     S
C29    C531    1.424   .     S
C30    N54     1.430   .     S
C30    C1036   1.424   1_554 S
N31    O33     1.302   .     A
N31    O32     1.301   .     A
N31    C73     1.439   .     S
N34    O36     1.302   .     A
N34    O35     1.301   .     A
N34    C130    1.439   1_455 S
C37    O38     1.222   .     D
C37    O39     1.399   .     S
O39    H40     1.014   .     S
C41    O43     1.399   .     S
C41    O42     1.222   .     D
O43    H44     1.014   .     S
N45    O47     1.301   .     A
N45    O46     1.299   .     A
N48    O50     1.301   .     A
N48    O49     1.299   .     A
N51    O52     1.299   .     A
N51    O53     1.301   .     A
N54    O56     1.301   .     A
N54    O55     1.299   .     A
O57    C61     1.297   .     A
O57    Cu69    1.950   .     S
O58    C62     1.297   .     A
O58    Cu70    1.950   .     S
O59    Cu70    1.953   .     S
O59    C61     1.299   .     A
O60    C62     1.299   .     A
O60    Cu69    1.953   .     S
C61    C82     1.442   .     S
C62    C81     1.442   .     S
O63    C67     1.292   .     A
O63    Cu69    1.969   .     S
O64    C68     1.292   .     A
O64    Cu70    1.969   .     S
O65    Cu70    1.972   .     S
O65    C67     1.302   .     A
O66    C68     1.302   .     A
O66    Cu69    1.972   .     S
C67    C73     1.441   .     S
C68    C74     1.441   .     S
Cu69   N71     2.036   .     S
Cu69   Cu70    2.709   .     S
Cu70   N72     2.036   .     S
N71    C84     1.375   .     A
N71    C85     1.374   .     A
N72    C83     1.375   .     A
N72    C86     1.374   .     A
C74    C129    1.361   .     S
C74    N146    1.439   .     S
C75    H77     1.084   .     S
C75    C82     1.397   .     A
C75    C415    1.391   1_545 S
C76    C81     1.397   .     A
C76    H78     1.084   .     S
C76    C248    1.391   .     S
C79    C93     1.488   .     S
C79    C81     1.412   .     A
C79    C243    1.391   .     S
C80    C97     1.488   .     S
C80    C82     1.412   .     A
C80    C412    1.391   1_545 S
C83    N101    1.427   .     S
C83    C1093   1.424   1_554 S
C84    N104    1.427   .     S
C84    C590    1.424   .     S
C85    N107    1.430   .     S
C85    C587    1.424   .     S
C86    N110    1.430   .     S
C86    C1092   1.424   1_554 S
N87    O89     1.302   .     A
N87    O88     1.301   .     A
N87    C129    1.439   .     S
N90    O92     1.302   .     A
N90    O91     1.301   .     A
C93    O94     1.222   .     D
C93    O95     1.399   .     S
O95    H96     1.014   .     S
C97    O99     1.399   .     S
C97    O98     1.222   .     D
O99    H100    1.014   .     S
N101   O103    1.301   .     A
N101   O102    1.299   .     A
N104   O106    1.301   .     A
N104   O105    1.299   .     A
N107   O108    1.299   .     A
N107   O109    1.301   .     A
N110   O112    1.301   .     A
N110   O111    1.299   .     A
O113   C117    1.297   .     A
O113   Cu125   1.950   .     S
O114   C118    1.297   .     A
O114   Cu126   1.950   .     S
O115   Cu126   1.953   .     S
O115   C117    1.299   .     A
O116   C118    1.299   .     A
O116   Cu125   1.953   .     S
C117   C138    1.442   .     S
C118   C137    1.442   .     S
O119   C123    1.292   .     A
O119   Cu125   1.969   .     S
O120   C124    1.292   .     A
O120   Cu126   1.969   .     S
O121   Cu126   1.972   .     S
O121   C123    1.302   .     A
O122   C124    1.302   .     A
O122   Cu125   1.972   .     S
C123   C129    1.441   .     S
C124   C130    1.441   .     S
Cu125  N127    2.036   .     S
Cu125  Cu126   2.709   .     S
Cu126  N128    2.036   .     S
N127   C140    1.375   .     A
N127   C141    1.374   .     A
N128   C139    1.375   .     A
N128   C142    1.374   .     A
C130   C17     1.361   1_655 S
C130   N34     1.439   1_655 S
C131   H133    1.084   .     S
C131   C138    1.397   .     A
C131   C471    1.391   1_545 S
C132   C137    1.397   .     A
C132   H134    1.084   .     S
C132   C304    1.391   .     S
C135   C149    1.488   .     S
C135   C137    1.412   .     A
C135   C299    1.391   .     S
C136   C153    1.488   .     S
C136   C138    1.412   .     A
C136   C468    1.391   1_545 S
C139   N157    1.427   .     S
C139   C1149   1.424   1_554 S
C140   N160    1.427   .     S
C140   C646    1.424   .     S
C141   N163    1.430   .     S
C141   C643    1.424   .     S
C142   N166    1.430   .     S
C142   C1148   1.424   1_554 S
N143   O145    1.302   .     A
N143   O144    1.301   .     A
N143   C17     1.439   1_655 S
N146   O148    1.302   .     A
N146   O147    1.301   .     A
C149   O150    1.222   .     D
C149   O151    1.399   .     S
O151   H152    1.014   .     S
C153   O155    1.399   .     S
C153   O154    1.222   .     D
O155   H156    1.014   .     S
N157   O159    1.301   .     A
N157   O158    1.299   .     A
N160   O162    1.301   .     A
N160   O161    1.299   .     A
N163   O164    1.299   .     A
N163   O165    1.301   .     A
N166   O168    1.301   .     A
N166   O167    1.299   .     A
O169   C173    1.297   .     A
O169   Cu181   1.950   .     S
O170   C174    1.297   .     A
O170   Cu182   1.950   .     S
O171   Cu182   1.953   .     S
O171   C173    1.299   .     A
O172   C174    1.299   .     A
O172   Cu181   1.953   .     S
C173   C194    1.442   .     S
C174   C193    1.442   .     S
O175   C179    1.292   .     A
O175   Cu181   1.969   .     S
O176   C180    1.292   .     A
O176   Cu182   1.969   .     S
O177   Cu182   1.972   .     S
O177   C179    1.302   .     A
O178   C180    1.302   .     A
O178   Cu181   1.972   .     S
C179   C185    1.441   .     S
C180   C186    1.441   .     S
Cu181  N183    2.036   .     S
Cu181  Cu182   2.709   .     S
Cu182  N184    2.036   .     S
N183   C196    1.375   .     A
N183   C197    1.374   .     A
N184   C195    1.375   .     A
N184   C198    1.374   .     A
C185   C298    1.361   1_455 S
C185   N311    1.439   1_455 S
C186   C241    1.361   .     S
C186   N258    1.439   .     S
C187   H189    1.084   .     S
C187   C194    1.397   .     A
C188   C193    1.397   .     A
C188   H190    1.084   .     S
C188   C360    1.391   .     S
C191   C205    1.488   .     S
C191   C193    1.412   .     A
C191   C355    1.391   .     S
C192   C209    1.488   .     S
C192   C194    1.412   .     A
C195   N213    1.427   .     S
C195   C1205   1.424   1_554 S
C196   N216    1.427   .     S
C196   C702    1.424   .     S
C197   N219    1.430   .     S
C197   C699    1.424   .     S
C198   N222    1.430   .     S
C198   C1204   1.424   1_554 S
N199   O201    1.302   .     A
N199   O200    1.301   .     A
N199   C241    1.439   .     S
N202   O204    1.302   .     A
N202   O203    1.301   .     A
N202   C298    1.439   1_455 S
C205   O206    1.222   .     D
C205   O207    1.399   .     S
O207   H208    1.014   .     S
C209   O211    1.399   .     S
C209   O210    1.222   .     D
O211   H212    1.014   .     S
N213   O215    1.301   .     A
N213   O214    1.299   .     A
N216   O218    1.301   .     A
N216   O217    1.299   .     A
N219   O220    1.299   .     A
N219   O221    1.301   .     A
N222   O224    1.301   .     A
N222   O223    1.299   .     A
O225   C229    1.297   .     A
O225   Cu237   1.950   .     S
O226   C230    1.297   .     A
O226   Cu238   1.950   .     S
O227   Cu238   1.953   .     S
O227   C229    1.299   .     A
O228   C230    1.299   .     A
O228   Cu237   1.953   .     S
C229   C250    1.442   .     S
C230   C249    1.442   .     S
O231   C235    1.292   .     A
O231   Cu237   1.969   .     S
O232   C236    1.292   .     A
O232   Cu238   1.969   .     S
O233   Cu238   1.972   .     S
O233   C235    1.302   .     A
O234   C236    1.302   .     A
O234   Cu237   1.972   .     S
C235   C241    1.441   .     S
C236   C242    1.441   .     S
Cu237  N239    2.036   .     S
Cu237  Cu238   2.709   .     S
Cu238  N240    2.036   .     S
N239   C252    1.375   .     A
N239   C253    1.374   .     A
N240   C251    1.375   .     A
N240   C254    1.374   .     A
C242   C297    1.361   .     S
C242   N314    1.439   .     S
C243   H245    1.084   .     S
C243   C250    1.397   .     A
C244   C249    1.397   .     A
C244   H246    1.084   .     S
C244   C416    1.391   .     S
C247   C261    1.488   .     S
C247   C249    1.412   .     A
C247   C411    1.391   .     S
C248   C265    1.488   .     S
C248   C250    1.412   .     A
C251   N269    1.427   .     S
C251   C1261   1.424   1_554 S
C252   N272    1.427   .     S
C252   C758    1.424   .     S
C253   N275    1.430   .     S
C253   C755    1.424   .     S
C254   N278    1.430   .     S
C254   C1260   1.424   1_554 S
N255   O257    1.302   .     A
N255   O256    1.301   .     A
N255   C297    1.439   .     S
N258   O260    1.302   .     A
N258   O259    1.301   .     A
C261   O262    1.222   .     D
C261   O263    1.399   .     S
O263   H264    1.014   .     S
C265   O267    1.399   .     S
C265   O266    1.222   .     D
O267   H268    1.014   .     S
N269   O271    1.301   .     A
N269   O270    1.299   .     A
N272   O274    1.301   .     A
N272   O273    1.299   .     A
N275   O276    1.299   .     A
N275   O277    1.301   .     A
N278   O280    1.301   .     A
N278   O279    1.299   .     A
O281   C285    1.297   .     A
O281   Cu293   1.950   .     S
O282   C286    1.297   .     A
O282   Cu294   1.950   .     S
O283   Cu294   1.953   .     S
O283   C285    1.299   .     A
O284   C286    1.299   .     A
O284   Cu293   1.953   .     S
C285   C306    1.442   .     S
C286   C305    1.442   .     S
O287   C291    1.292   .     A
O287   Cu293   1.969   .     S
O288   C292    1.292   .     A
O288   Cu294   1.969   .     S
O289   Cu294   1.972   .     S
O289   C291    1.302   .     A
O290   C292    1.302   .     A
O290   Cu293   1.972   .     S
C291   C297    1.441   .     S
C292   C298    1.441   .     S
Cu293  N295    2.036   .     S
Cu293  Cu294   2.709   .     S
Cu294  N296    2.036   .     S
N295   C308    1.375   .     A
N295   C309    1.374   .     A
N296   C307    1.375   .     A
N296   C310    1.374   .     A
C298   C185    1.361   1_655 S
C298   N202    1.439   1_655 S
C299   H301    1.084   .     S
C299   C306    1.397   .     A
C300   C305    1.397   .     A
C300   H302    1.084   .     S
C300   C472    1.391   .     S
C303   C317    1.488   .     S
C303   C305    1.412   .     A
C303   C467    1.391   .     S
C304   C321    1.488   .     S
C304   C306    1.412   .     A
C307   N325    1.427   .     S
C307   C1317   1.424   1_554 S
C308   N328    1.427   .     S
C308   C814    1.424   .     S
C309   N331    1.430   .     S
C309   C811    1.424   .     S
C310   N334    1.430   .     S
C310   C1316   1.424   1_554 S
N311   O313    1.302   .     A
N311   O312    1.301   .     A
N311   C185    1.439   1_655 S
N314   O316    1.302   .     A
N314   O315    1.301   .     A
C317   O318    1.222   .     D
C317   O319    1.399   .     S
O319   H320    1.014   .     S
C321   O323    1.399   .     S
C321   O322    1.222   .     D
O323   H324    1.014   .     S
N325   O327    1.301   .     A
N325   O326    1.299   .     A
N328   O330    1.301   .     A
N328   O329    1.299   .     A
N331   O332    1.299   .     A
N331   O333    1.301   .     A
N334   O336    1.301   .     A
N334   O335    1.299   .     A
O337   C341    1.297   .     A
O337   Cu349   1.950   .     S
O338   C342    1.297   .     A
O338   Cu350   1.950   .     S
O339   Cu350   1.953   .     S
O339   C341    1.299   .     A
O340   C342    1.299   .     A
O340   Cu349   1.953   .     S
C341   C362    1.442   .     S
C342   C361    1.442   .     S
O343   C347    1.292   .     A
O343   Cu349   1.969   .     S
O344   C348    1.292   .     A
O344   Cu350   1.969   .     S
O345   Cu350   1.972   .     S
O345   C347    1.302   .     A
O346   C348    1.302   .     A
O346   Cu349   1.972   .     S
C347   C353    1.441   .     S
C348   C354    1.441   .     S
Cu349  N351    2.036   .     S
Cu349  Cu350   2.709   .     S
Cu350  N352    2.036   .     S
N351   C364    1.375   .     A
N351   C365    1.374   .     A
N352   C363    1.375   .     A
N352   C366    1.374   .     A
C353   C466    1.361   1_455 S
C353   N479    1.439   1_455 S
C354   C409    1.361   .     S
C354   N426    1.439   .     S
C355   H357    1.084   .     S
C355   C362    1.397   .     A
C356   C361    1.397   .     A
C356   H358    1.084   .     S
C356   C24     1.391   1_565 S
C359   C373    1.488   .     S
C359   C361    1.412   .     A
C359   C19     1.391   1_565 S
C360   C377    1.488   .     S
C360   C362    1.412   .     A
C363   N381    1.427   .     S
C363   C1373   1.424   1_554 S
C364   N384    1.427   .     S
C364   C870    1.424   .     S
C365   N387    1.430   .     S
C365   C867    1.424   .     S
C366   N390    1.430   .     S
C366   C1372   1.424   1_554 S
N367   O369    1.302   .     A
N367   O368    1.301   .     A
N367   C409    1.439   .     S
N370   O372    1.302   .     A
N370   O371    1.301   .     A
N370   C466    1.439   1_455 S
C373   O374    1.222   .     D
C373   O375    1.399   .     S
O375   H376    1.014   .     S
C377   O379    1.399   .     S
C377   O378    1.222   .     D
O379   H380    1.014   .     S
N381   O383    1.301   .     A
N381   O382    1.299   .     A
N384   O386    1.301   .     A
N384   O385    1.299   .     A
N387   O388    1.299   .     A
N387   O389    1.301   .     A
N390   O392    1.301   .     A
N390   O391    1.299   .     A
O393   C397    1.297   .     A
O393   Cu405   1.950   .     S
O394   C398    1.297   .     A
O394   Cu406   1.950   .     S
O395   Cu406   1.953   .     S
O395   C397    1.299   .     A
O396   C398    1.299   .     A
O396   Cu405   1.953   .     S
C397   C418    1.442   .     S
C398   C417    1.442   .     S
O399   C403    1.292   .     A
O399   Cu405   1.969   .     S
O400   C404    1.292   .     A
O400   Cu406   1.969   .     S
O401   Cu406   1.972   .     S
O401   C403    1.302   .     A
O402   C404    1.302   .     A
O402   Cu405   1.972   .     S
C403   C409    1.441   .     S
C404   C410    1.441   .     S
Cu405  N407    2.036   .     S
Cu405  Cu406   2.709   .     S
Cu406  N408    2.036   .     S
N407   C420    1.375   .     A
N407   C421    1.374   .     A
N408   C419    1.375   .     A
N408   C422    1.374   .     A
C410   C465    1.361   .     S
C410   N482    1.439   .     S
C411   H413    1.084   .     S
C411   C418    1.397   .     A
C412   C417    1.397   .     A
C412   H414    1.084   .     S
C412   C80     1.391   1_565 S
C415   C429    1.488   .     S
C415   C417    1.412   .     A
C415   C75     1.391   1_565 S
C416   C433    1.488   .     S
C416   C418    1.412   .     A
C419   N437    1.427   .     S
C419   C1429   1.424   1_554 S
C420   N440    1.427   .     S
C420   C926    1.424   .     S
C421   N443    1.430   .     S
C421   C923    1.424   .     S
C422   N446    1.430   .     S
C422   C1428   1.424   1_554 S
N423   O425    1.302   .     A
N423   O424    1.301   .     A
N423   C465    1.439   .     S
N426   O428    1.302   .     A
N426   O427    1.301   .     A
C429   O430    1.222   .     D
C429   O431    1.399   .     S
O431   H432    1.014   .     S
C433   O435    1.399   .     S
C433   O434    1.222   .     D
O435   H436    1.014   .     S
N437   O439    1.301   .     A
N437   O438    1.299   .     A
N440   O442    1.301   .     A
N440   O441    1.299   .     A
N443   O444    1.299   .     A
N443   O445    1.301   .     A
N446   O448    1.301   .     A
N446   O447    1.299   .     A
O449   C453    1.297   .     A
O449   Cu461   1.950   .     S
O450   C454    1.297   .     A
O450   Cu462   1.950   .     S
O451   Cu462   1.953   .     S
O451   C453    1.299   .     A
O452   C454    1.299   .     A
O452   Cu461   1.953   .     S
C453   C474    1.442   .     S
C454   C473    1.442   .     S
O455   C459    1.292   .     A
O455   Cu461   1.969   .     S
O456   C460    1.292   .     A
O456   Cu462   1.969   .     S
O457   Cu462   1.972   .     S
O457   C459    1.302   .     A
O458   C460    1.302   .     A
O458   Cu461   1.972   .     S
C459   C465    1.441   .     S
C460   C466    1.441   .     S
Cu461  N463    2.036   .     S
Cu461  Cu462   2.709   .     S
Cu462  N464    2.036   .     S
N463   C476    1.375   .     A
N463   C477    1.374   .     A
N464   C475    1.375   .     A
N464   C478    1.374   .     A
C466   C353    1.361   1_655 S
C466   N370    1.439   1_655 S
C467   H469    1.084   .     S
C467   C474    1.397   .     A
C468   C473    1.397   .     A
C468   H470    1.084   .     S
C468   C136    1.391   1_565 S
C471   C485    1.488   .     S
C471   C473    1.412   .     A
C471   C131    1.391   1_565 S
C472   C489    1.488   .     S
C472   C474    1.412   .     A
C475   N493    1.427   .     S
C475   C1485   1.424   1_554 S
C476   N496    1.427   .     S
C476   C982    1.424   .     S
C477   N499    1.430   .     S
C477   C979    1.424   .     S
C478   N502    1.430   .     S
C478   C1484   1.424   1_554 S
N479   O481    1.302   .     A
N479   O480    1.301   .     A
N479   C353    1.439   1_655 S
N482   O484    1.302   .     A
N482   O483    1.301   .     A
C485   O486    1.222   .     D
C485   O487    1.399   .     S
O487   H488    1.014   .     S
C489   O491    1.399   .     S
C489   O490    1.222   .     D
O491   H492    1.014   .     S
N493   O495    1.301   .     A
N493   O494    1.299   .     A
N496   O498    1.301   .     A
N496   O497    1.299   .     A
N499   O500    1.299   .     A
N499   O501    1.301   .     A
N502   O504    1.301   .     A
N502   O503    1.299   .     A
O505   C509    1.297   .     A
O505   Cu517   1.950   .     S
O506   C510    1.297   .     A
O506   Cu518   1.950   .     S
O507   Cu518   1.953   .     S
O507   C509    1.299   .     A
O508   C510    1.299   .     A
O508   Cu517   1.953   .     S
C509   C530    1.442   .     S
C510   C529    1.442   .     S
O511   C515    1.292   .     A
O511   Cu517   1.969   .     S
O512   C516    1.292   .     A
O512   Cu518   1.969   .     S
O513   Cu518   1.972   .     S
O513   C515    1.302   .     A
O514   C516    1.302   .     A
O514   Cu517   1.972   .     S
C515   C521    1.441   .     S
C516   C522    1.441   .     S
Cu517  N519    2.036   .     S
Cu517  Cu518   2.709   .     S
Cu518  N520    2.036   .     S
N519   C532    1.375   .     A
N519   C533    1.374   .     A
N520   C531    1.375   .     A
N520   C534    1.374   .     A
C521   C634    1.361   1_455 S
C521   N647    1.439   1_455 S
C522   C577    1.361   .     S
C522   N594    1.439   .     S
C523   H525    1.084   .     S
C523   C530    1.397   .     A
C523   C863    1.391   1_545 S
C524   C529    1.397   .     A
C524   H526    1.084   .     S
C524   C696    1.391   .     S
C527   C541    1.488   .     S
C527   C529    1.412   .     A
C527   C691    1.391   .     S
C528   C545    1.488   .     S
C528   C530    1.412   .     A
C528   C860    1.391   1_545 S
C531   N549    1.427   .     S
C532   N552    1.427   .     S
C532   C1038   1.424   .     S
C533   N555    1.430   .     S
C533   C1035   1.424   .     S
C534   N558    1.430   .     S
N535   O537    1.302   .     A
N535   O536    1.301   .     A
N535   C577    1.439   .     S
N538   O540    1.302   .     A
N538   O539    1.301   .     A
N538   C634    1.439   1_455 S
C541   O542    1.222   .     D
C541   O543    1.399   .     S
O543   H544    1.014   .     S
C545   O547    1.399   .     S
C545   O546    1.222   .     D
O547   H548    1.014   .     S
N549   O551    1.301   .     A
N549   O550    1.299   .     A
N552   O554    1.301   .     A
N552   O553    1.299   .     A
N555   O556    1.299   .     A
N555   O557    1.301   .     A
N558   O560    1.301   .     A
N558   O559    1.299   .     A
O561   C565    1.297   .     A
O561   Cu573   1.950   .     S
O562   C566    1.297   .     A
O562   Cu574   1.950   .     S
O563   Cu574   1.953   .     S
O563   C565    1.299   .     A
O564   C566    1.299   .     A
O564   Cu573   1.953   .     S
C565   C586    1.442   .     S
C566   C585    1.442   .     S
O567   C571    1.292   .     A
O567   Cu573   1.969   .     S
O568   C572    1.292   .     A
O568   Cu574   1.969   .     S
O569   Cu574   1.972   .     S
O569   C571    1.302   .     A
O570   C572    1.302   .     A
O570   Cu573   1.972   .     S
C571   C577    1.441   .     S
C572   C578    1.441   .     S
Cu573  N575    2.036   .     S
Cu573  Cu574   2.709   .     S
Cu574  N576    2.036   .     S
N575   C588    1.375   .     A
N575   C589    1.374   .     A
N576   C587    1.375   .     A
N576   C590    1.374   .     A
C578   C633    1.361   .     S
C578   N650    1.439   .     S
C579   H581    1.084   .     S
C579   C586    1.397   .     A
C579   C919    1.391   1_545 S
C580   C585    1.397   .     A
C580   H582    1.084   .     S
C580   C752    1.391   .     S
C583   C597    1.488   .     S
C583   C585    1.412   .     A
C583   C747    1.391   .     S
C584   C601    1.488   .     S
C584   C586    1.412   .     A
C584   C916    1.391   1_545 S
C587   N605    1.427   .     S
C588   N608    1.427   .     S
C588   C1094   1.424   .     S
C589   N611    1.430   .     S
C589   C1091   1.424   .     S
C590   N614    1.430   .     S
N591   O593    1.302   .     A
N591   O592    1.301   .     A
N591   C633    1.439   .     S
N594   O596    1.302   .     A
N594   O595    1.301   .     A
C597   O598    1.222   .     D
C597   O599    1.399   .     S
O599   H600    1.014   .     S
C601   O603    1.399   .     S
C601   O602    1.222   .     D
O603   H604    1.014   .     S
N605   O607    1.301   .     A
N605   O606    1.299   .     A
N608   O610    1.301   .     A
N608   O609    1.299   .     A
N611   O612    1.299   .     A
N611   O613    1.301   .     A
N614   O616    1.301   .     A
N614   O615    1.299   .     A
O617   C621    1.297   .     A
O617   Cu629   1.950   .     S
O618   C622    1.297   .     A
O618   Cu630   1.950   .     S
O619   Cu630   1.953   .     S
O619   C621    1.299   .     A
O620   C622    1.299   .     A
O620   Cu629   1.953   .     S
C621   C642    1.442   .     S
C622   C641    1.442   .     S
O623   C627    1.292   .     A
O623   Cu629   1.969   .     S
O624   C628    1.292   .     A
O624   Cu630   1.969   .     S
O625   Cu630   1.972   .     S
O625   C627    1.302   .     A
O626   C628    1.302   .     A
O626   Cu629   1.972   .     S
C627   C633    1.441   .     S
C628   C634    1.441   .     S
Cu629  N631    2.036   .     S
Cu629  Cu630   2.709   .     S
Cu630  N632    2.036   .     S
N631   C644    1.375   .     A
N631   C645    1.374   .     A
N632   C643    1.375   .     A
N632   C646    1.374   .     A
C634   C521    1.361   1_655 S
C634   N538    1.439   1_655 S
C635   H637    1.084   .     S
C635   C642    1.397   .     A
C635   C975    1.391   1_545 S
C636   C641    1.397   .     A
C636   H638    1.084   .     S
C636   C808    1.391   .     S
C639   C653    1.488   .     S
C639   C641    1.412   .     A
C639   C803    1.391   .     S
C640   C657    1.488   .     S
C640   C642    1.412   .     A
C640   C972    1.391   1_545 S
C643   N661    1.427   .     S
C644   N664    1.427   .     S
C644   C1150   1.424   .     S
C645   N667    1.430   .     S
C645   C1147   1.424   .     S
C646   N670    1.430   .     S
N647   O649    1.302   .     A
N647   O648    1.301   .     A
N647   C521    1.439   1_655 S
N650   O652    1.302   .     A
N650   O651    1.301   .     A
C653   O654    1.222   .     D
C653   O655    1.399   .     S
O655   H656    1.014   .     S
C657   O659    1.399   .     S
C657   O658    1.222   .     D
O659   H660    1.014   .     S
N661   O663    1.301   .     A
N661   O662    1.299   .     A
N664   O666    1.301   .     A
N664   O665    1.299   .     A
N667   O668    1.299   .     A
N667   O669    1.301   .     A
N670   O672    1.301   .     A
N670   O671    1.299   .     A
O673   C677    1.297   .     A
O673   Cu685   1.950   .     S
O674   C678    1.297   .     A
O674   Cu686   1.950   .     S
O675   Cu686   1.953   .     S
O675   C677    1.299   .     A
O676   C678    1.299   .     A
O676   Cu685   1.953   .     S
C677   C698    1.442   .     S
C678   C697    1.442   .     S
O679   C683    1.292   .     A
O679   Cu685   1.969   .     S
O680   C684    1.292   .     A
O680   Cu686   1.969   .     S
O681   Cu686   1.972   .     S
O681   C683    1.302   .     A
O682   C684    1.302   .     A
O682   Cu685   1.972   .     S
C683   C689    1.441   .     S
C684   C690    1.441   .     S
Cu685  N687    2.036   .     S
Cu685  Cu686   2.709   .     S
Cu686  N688    2.036   .     S
N687   C700    1.375   .     A
N687   C701    1.374   .     A
N688   C699    1.375   .     A
N688   C702    1.374   .     A
C689   C802    1.361   1_455 S
C689   N815    1.439   1_455 S
C690   C745    1.361   .     S
C690   N762    1.439   .     S
C691   H693    1.084   .     S
C691   C698    1.397   .     A
C692   C697    1.397   .     A
C692   H694    1.084   .     S
C692   C864    1.391   .     S
C695   C709    1.488   .     S
C695   C697    1.412   .     A
C695   C859    1.391   .     S
C696   C713    1.488   .     S
C696   C698    1.412   .     A
C699   N717    1.427   .     S
C700   N720    1.427   .     S
C700   C1206   1.424   .     S
C701   N723    1.430   .     S
C701   C1203   1.424   .     S
C702   N726    1.430   .     S
N703   O705    1.302   .     A
N703   O704    1.301   .     A
N703   C745    1.439   .     S
N706   O708    1.302   .     A
N706   O707    1.301   .     A
N706   C802    1.439   1_455 S
C709   O710    1.222   .     D
C709   O711    1.399   .     S
O711   H712    1.014   .     S
C713   O715    1.399   .     S
C713   O714    1.222   .     D
O715   H716    1.014   .     S
N717   O719    1.301   .     A
N717   O718    1.299   .     A
N720   O722    1.301   .     A
N720   O721    1.299   .     A
N723   O724    1.299   .     A
N723   O725    1.301   .     A
N726   O728    1.301   .     A
N726   O727    1.299   .     A
O729   C733    1.297   .     A
O729   Cu741   1.950   .     S
O730   C734    1.297   .     A
O730   Cu742   1.950   .     S
O731   Cu742   1.953   .     S
O731   C733    1.299   .     A
O732   C734    1.299   .     A
O732   Cu741   1.953   .     S
C733   C754    1.442   .     S
C734   C753    1.442   .     S
O735   C739    1.292   .     A
O735   Cu741   1.969   .     S
O736   C740    1.292   .     A
O736   Cu742   1.969   .     S
O737   Cu742   1.972   .     S
O737   C739    1.302   .     A
O738   C740    1.302   .     A
O738   Cu741   1.972   .     S
C739   C745    1.441   .     S
C740   C746    1.441   .     S
Cu741  N743    2.036   .     S
Cu741  Cu742   2.709   .     S
Cu742  N744    2.036   .     S
N743   C756    1.375   .     A
N743   C757    1.374   .     A
N744   C755    1.375   .     A
N744   C758    1.374   .     A
C746   C801    1.361   .     S
C746   N818    1.439   .     S
C747   H749    1.084   .     S
C747   C754    1.397   .     A
C748   C753    1.397   .     A
C748   H750    1.084   .     S
C748   C920    1.391   .     S
C751   C765    1.488   .     S
C751   C753    1.412   .     A
C751   C915    1.391   .     S
C752   C769    1.488   .     S
C752   C754    1.412   .     A
C755   N773    1.427   .     S
C756   N776    1.427   .     S
C756   C1262   1.424   .     S
C757   N779    1.430   .     S
C757   C1259   1.424   .     S
C758   N782    1.430   .     S
N759   O761    1.302   .     A
N759   O760    1.301   .     A
N759   C801    1.439   .     S
N762   O764    1.302   .     A
N762   O763    1.301   .     A
C765   O766    1.222   .     D
C765   O767    1.399   .     S
O767   H768    1.014   .     S
C769   O771    1.399   .     S
C769   O770    1.222   .     D
O771   H772    1.014   .     S
N773   O775    1.301   .     A
N773   O774    1.299   .     A
N776   O778    1.301   .     A
N776   O777    1.299   .     A
N779   O780    1.299   .     A
N779   O781    1.301   .     A
N782   O784    1.301   .     A
N782   O783    1.299   .     A
O785   C789    1.297   .     A
O785   Cu797   1.950   .     S
O786   C790    1.297   .     A
O786   Cu798   1.950   .     S
O787   Cu798   1.953   .     S
O787   C789    1.299   .     A
O788   C790    1.299   .     A
O788   Cu797   1.953   .     S
C789   C810    1.442   .     S
C790   C809    1.442   .     S
O791   C795    1.292   .     A
O791   Cu797   1.969   .     S
O792   C796    1.292   .     A
O792   Cu798   1.969   .     S
O793   Cu798   1.972   .     S
O793   C795    1.302   .     A
O794   C796    1.302   .     A
O794   Cu797   1.972   .     S
C795   C801    1.441   .     S
C796   C802    1.441   .     S
Cu797  N799    2.036   .     S
Cu797  Cu798   2.709   .     S
Cu798  N800    2.036   .     S
N799   C812    1.375   .     A
N799   C813    1.374   .     A
N800   C811    1.375   .     A
N800   C814    1.374   .     A
C802   C689    1.361   1_655 S
C802   N706    1.439   1_655 S
C803   H805    1.084   .     S
C803   C810    1.397   .     A
C804   C809    1.397   .     A
C804   H806    1.084   .     S
C804   C976    1.391   .     S
C807   C821    1.488   .     S
C807   C809    1.412   .     A
C807   C971    1.391   .     S
C808   C825    1.488   .     S
C808   C810    1.412   .     A
C811   N829    1.427   .     S
C812   N832    1.427   .     S
C812   C1318   1.424   .     S
C813   N835    1.430   .     S
C813   C1315   1.424   .     S
C814   N838    1.430   .     S
N815   O817    1.302   .     A
N815   O816    1.301   .     A
N815   C689    1.439   1_655 S
N818   O820    1.302   .     A
N818   O819    1.301   .     A
C821   O822    1.222   .     D
C821   O823    1.399   .     S
O823   H824    1.014   .     S
C825   O827    1.399   .     S
C825   O826    1.222   .     D
O827   H828    1.014   .     S
N829   O831    1.301   .     A
N829   O830    1.299   .     A
N832   O834    1.301   .     A
N832   O833    1.299   .     A
N835   O836    1.299   .     A
N835   O837    1.301   .     A
N838   O840    1.301   .     A
N838   O839    1.299   .     A
O841   C845    1.297   .     A
O841   Cu853   1.950   .     S
O842   C846    1.297   .     A
O842   Cu854   1.950   .     S
O843   Cu854   1.953   .     S
O843   C845    1.299   .     A
O844   C846    1.299   .     A
O844   Cu853   1.953   .     S
C845   C866    1.442   .     S
C846   C865    1.442   .     S
O847   C851    1.292   .     A
O847   Cu853   1.969   .     S
O848   C852    1.292   .     A
O848   Cu854   1.969   .     S
O849   Cu854   1.972   .     S
O849   C851    1.302   .     A
O850   C852    1.302   .     A
O850   Cu853   1.972   .     S
C851   C857    1.441   .     S
C852   C858    1.441   .     S
Cu853  N855    2.036   .     S
Cu853  Cu854   2.709   .     S
Cu854  N856    2.036   .     S
N855   C868    1.375   .     A
N855   C869    1.374   .     A
N856   C867    1.375   .     A
N856   C870    1.374   .     A
C857   C970    1.361   1_455 S
C857   N983    1.439   1_455 S
C858   C913    1.361   .     S
C858   N930    1.439   .     S
C859   H861    1.084   .     S
C859   C866    1.397   .     A
C860   C865    1.397   .     A
C860   H862    1.084   .     S
C860   C528    1.391   1_565 S
C863   C877    1.488   .     S
C863   C865    1.412   .     A
C863   C523    1.391   1_565 S
C864   C881    1.488   .     S
C864   C866    1.412   .     A
C867   N885    1.427   .     S
C868   N888    1.427   .     S
C868   C1374   1.424   .     S
C869   N891    1.430   .     S
C869   C1371   1.424   .     S
C870   N894    1.430   .     S
N871   O873    1.302   .     A
N871   O872    1.301   .     A
N871   C913    1.439   .     S
N874   O876    1.302   .     A
N874   O875    1.301   .     A
N874   C970    1.439   1_455 S
C877   O878    1.222   .     D
C877   O879    1.399   .     S
O879   H880    1.014   .     S
C881   O883    1.399   .     S
C881   O882    1.222   .     D
O883   H884    1.014   .     S
N885   O887    1.301   .     A
N885   O886    1.299   .     A
N888   O890    1.301   .     A
N888   O889    1.299   .     A
N891   O892    1.299   .     A
N891   O893    1.301   .     A
N894   O896    1.301   .     A
N894   O895    1.299   .     A
O897   C901    1.297   .     A
O897   Cu909   1.950   .     S
O898   C902    1.297   .     A
O898   Cu910   1.950   .     S
O899   Cu910   1.953   .     S
O899   C901    1.299   .     A
O900   C902    1.299   .     A
O900   Cu909   1.953   .     S
C901   C922    1.442   .     S
C902   C921    1.442   .     S
O903   C907    1.292   .     A
O903   Cu909   1.969   .     S
O904   C908    1.292   .     A
O904   Cu910   1.969   .     S
O905   Cu910   1.972   .     S
O905   C907    1.302   .     A
O906   C908    1.302   .     A
O906   Cu909   1.972   .     S
C907   C913    1.441   .     S
C908   C914    1.441   .     S
Cu909  N911    2.036   .     S
Cu909  Cu910   2.709   .     S
Cu910  N912    2.036   .     S
N911   C924    1.375   .     A
N911   C925    1.374   .     A
N912   C923    1.375   .     A
N912   C926    1.374   .     A
C914   C969    1.361   .     S
C914   N986    1.439   .     S
C915   H917    1.084   .     S
C915   C922    1.397   .     A
C916   C921    1.397   .     A
C916   H918    1.084   .     S
C916   C584    1.391   1_565 S
C919   C933    1.488   .     S
C919   C921    1.412   .     A
C919   C579    1.391   1_565 S
C920   C937    1.488   .     S
C920   C922    1.412   .     A
C923   N941    1.427   .     S
C924   N944    1.427   .     S
C924   C1430   1.424   .     S
C925   N947    1.430   .     S
C925   C1427   1.424   .     S
C926   N950    1.430   .     S
N927   O929    1.302   .     A
N927   O928    1.301   .     A
N927   C969    1.439   .     S
N930   O932    1.302   .     A
N930   O931    1.301   .     A
C933   O934    1.222   .     D
C933   O935    1.399   .     S
O935   H936    1.014   .     S
C937   O939    1.399   .     S
C937   O938    1.222   .     D
O939   H940    1.014   .     S
N941   O943    1.301   .     A
N941   O942    1.299   .     A
N944   O946    1.301   .     A
N944   O945    1.299   .     A
N947   O948    1.299   .     A
N947   O949    1.301   .     A
N950   O952    1.301   .     A
N950   O951    1.299   .     A
O953   C957    1.297   .     A
O953   Cu965   1.950   .     S
O954   C958    1.297   .     A
O954   Cu966   1.950   .     S
O955   Cu966   1.953   .     S
O955   C957    1.299   .     A
O956   C958    1.299   .     A
O956   Cu965   1.953   .     S
C957   C978    1.442   .     S
C958   C977    1.442   .     S
O959   C963    1.292   .     A
O959   Cu965   1.969   .     S
O960   C964    1.292   .     A
O960   Cu966   1.969   .     S
O961   Cu966   1.972   .     S
O961   C963    1.302   .     A
O962   C964    1.302   .     A
O962   Cu965   1.972   .     S
C963   C969    1.441   .     S
C964   C970    1.441   .     S
Cu965  N967    2.036   .     S
Cu965  Cu966   2.709   .     S
Cu966  N968    2.036   .     S
N967   C980    1.375   .     A
N967   C981    1.374   .     A
N968   C979    1.375   .     A
N968   C982    1.374   .     A
C970   C857    1.361   1_655 S
C970   N874    1.439   1_655 S
C971   H973    1.084   .     S
C971   C978    1.397   .     A
C972   C977    1.397   .     A
C972   H974    1.084   .     S
C972   C640    1.391   1_565 S
C975   C989    1.488   .     S
C975   C977    1.412   .     A
C975   C635    1.391   1_565 S
C976   C993    1.488   .     S
C976   C978    1.412   .     A
C979   N997    1.427   .     S
C980   N1000   1.427   .     S
C980   C1486   1.424   .     S
C981   N1003   1.430   .     S
C981   C1483   1.424   .     S
C982   N1006   1.430   .     S
N983   O985    1.302   .     A
N983   O984    1.301   .     A
N983   C857    1.439   1_655 S
N986   O988    1.302   .     A
N986   O987    1.301   .     A
C989   O990    1.222   .     D
C989   O991    1.399   .     S
O991   H992    1.014   .     S
C993   O995    1.399   .     S
C993   O994    1.222   .     D
O995   H996    1.014   .     S
N997   O999    1.301   .     A
N997   O998    1.299   .     A
N1000  O1002   1.301   .     A
N1000  O1001   1.299   .     A
N1003  O1004   1.299   .     A
N1003  O1005   1.301   .     A
N1006  O1008   1.301   .     A
N1006  O1007   1.299   .     A
O1009  C1013   1.297   .     A
O1009  Cu1021  1.950   .     S
O1010  C1014   1.297   .     A
O1010  Cu1022  1.950   .     S
O1011  Cu1022  1.953   .     S
O1011  C1013   1.299   .     A
O1012  C1014   1.299   .     A
O1012  Cu1021  1.953   .     S
C1013  C1034   1.442   .     S
C1014  C1033   1.442   .     S
O1015  C1019   1.292   .     A
O1015  Cu1021  1.969   .     S
O1016  C1020   1.292   .     A
O1016  Cu1022  1.969   .     S
O1017  Cu1022  1.972   .     S
O1017  C1019   1.302   .     A
O1018  C1020   1.302   .     A
O1018  Cu1021  1.972   .     S
C1019  C1025   1.441   .     S
C1020  C1026   1.441   .     S
Cu1021 N1023   2.036   .     S
Cu1021 Cu1022  2.709   .     S
Cu1022 N1024   2.036   .     S
N1023  C1036   1.375   .     A
N1023  C1037   1.374   .     A
N1024  C1035   1.375   .     A
N1024  C1038   1.374   .     A
C1025  C1138   1.361   1_455 S
C1025  N1151   1.439   1_455 S
C1026  C1081   1.361   .     S
C1026  N1098   1.439   .     S
C1027  H1029   1.084   .     S
C1027  C1034   1.397   .     A
C1027  C1367   1.391   1_545 S
C1028  C1033   1.397   .     A
C1028  H1030   1.084   .     S
C1028  C1200   1.391   .     S
C1031  C1045   1.488   .     S
C1031  C1033   1.412   .     A
C1031  C1195   1.391   .     S
C1032  C1049   1.488   .     S
C1032  C1034   1.412   .     A
C1032  C1364   1.391   1_545 S
C1035  N1053   1.427   .     S
C1036  N1056   1.427   .     S
C1036  C30     1.424   1_556 S
C1037  N1059   1.430   .     S
C1037  C27     1.424   1_556 S
C1038  N1062   1.430   .     S
N1039  O1041   1.302   .     A
N1039  O1040   1.301   .     A
N1039  C1081   1.439   .     S
N1042  O1044   1.302   .     A
N1042  O1043   1.301   .     A
N1042  C1138   1.439   1_455 S
C1045  O1046   1.222   .     D
C1045  O1047   1.399   .     S
O1047  H1048   1.014   .     S
C1049  O1051   1.399   .     S
C1049  O1050   1.222   .     D
O1051  H1052   1.014   .     S
N1053  O1055   1.301   .     A
N1053  O1054   1.299   .     A
N1056  O1058   1.301   .     A
N1056  O1057   1.299   .     A
N1059  O1060   1.299   .     A
N1059  O1061   1.301   .     A
N1062  O1064   1.301   .     A
N1062  O1063   1.299   .     A
O1065  C1069   1.297   .     A
O1065  Cu1077  1.950   .     S
O1066  C1070   1.297   .     A
O1066  Cu1078  1.950   .     S
O1067  Cu1078  1.953   .     S
O1067  C1069   1.299   .     A
O1068  C1070   1.299   .     A
O1068  Cu1077  1.953   .     S
C1069  C1090   1.442   .     S
C1070  C1089   1.442   .     S
O1071  C1075   1.292   .     A
O1071  Cu1077  1.969   .     S
O1072  C1076   1.292   .     A
O1072  Cu1078  1.969   .     S
O1073  Cu1078  1.972   .     S
O1073  C1075   1.302   .     A
O1074  C1076   1.302   .     A
O1074  Cu1077  1.972   .     S
C1075  C1081   1.441   .     S
C1076  C1082   1.441   .     S
Cu1077 N1079   2.036   .     S
Cu1077 Cu1078  2.709   .     S
Cu1078 N1080   2.036   .     S
N1079  C1092   1.375   .     A
N1079  C1093   1.374   .     A
N1080  C1091   1.375   .     A
N1080  C1094   1.374   .     A
C1082  C1137   1.361   .     S
C1082  N1154   1.439   .     S
C1083  H1085   1.084   .     S
C1083  C1090   1.397   .     A
C1083  C1423   1.391   1_545 S
C1084  C1089   1.397   .     A
C1084  H1086   1.084   .     S
C1084  C1256   1.391   .     S
C1087  C1101   1.488   .     S
C1087  C1089   1.412   .     A
C1087  C1251   1.391   .     S
C1088  C1105   1.488   .     S
C1088  C1090   1.412   .     A
C1088  C1420   1.391   1_545 S
C1091  N1109   1.427   .     S
C1092  N1112   1.427   .     S
C1092  C86     1.424   1_556 S
C1093  N1115   1.430   .     S
C1093  C83     1.424   1_556 S
C1094  N1118   1.430   .     S
N1095  O1097   1.302   .     A
N1095  O1096   1.301   .     A
N1095  C1137   1.439   .     S
N1098  O1100   1.302   .     A
N1098  O1099   1.301   .     A
C1101  O1102   1.222   .     D
C1101  O1103   1.399   .     S
O1103  H1104   1.014   .     S
C1105  O1107   1.399   .     S
C1105  O1106   1.222   .     D
O1107  H1108   1.014   .     S
N1109  O1111   1.301   .     A
N1109  O1110   1.299   .     A
N1112  O1114   1.301   .     A
N1112  O1113   1.299   .     A
N1115  O1116   1.299   .     A
N1115  O1117   1.301   .     A
N1118  O1120   1.301   .     A
N1118  O1119   1.299   .     A
O1121  C1125   1.297   .     A
O1121  Cu1133  1.950   .     S
O1122  C1126   1.297   .     A
O1122  Cu1134  1.950   .     S
O1123  Cu1134  1.953   .     S
O1123  C1125   1.299   .     A
O1124  C1126   1.299   .     A
O1124  Cu1133  1.953   .     S
C1125  C1146   1.442   .     S
C1126  C1145   1.442   .     S
O1127  C1131   1.292   .     A
O1127  Cu1133  1.969   .     S
O1128  C1132   1.292   .     A
O1128  Cu1134  1.969   .     S
O1129  Cu1134  1.972   .     S
O1129  C1131   1.302   .     A
O1130  C1132   1.302   .     A
O1130  Cu1133  1.972   .     S
C1131  C1137   1.441   .     S
C1132  C1138   1.441   .     S
Cu1133 N1135   2.036   .     S
Cu1133 Cu1134  2.709   .     S
Cu1134 N1136   2.036   .     S
N1135  C1148   1.375   .     A
N1135  C1149   1.374   .     A
N1136  C1147   1.375   .     A
N1136  C1150   1.374   .     A
C1138  C1025   1.361   1_655 S
C1138  N1042   1.439   1_655 S
C1139  H1141   1.084   .     S
C1139  C1146   1.397   .     A
C1139  C1479   1.391   1_545 S
C1140  C1145   1.397   .     A
C1140  H1142   1.084   .     S
C1140  C1312   1.391   .     S
C1143  C1157   1.488   .     S
C1143  C1145   1.412   .     A
C1143  C1307   1.391   .     S
C1144  C1161   1.488   .     S
C1144  C1146   1.412   .     A
C1144  C1476   1.391   1_545 S
C1147  N1165   1.427   .     S
C1148  N1168   1.427   .     S
C1148  C142    1.424   1_556 S
C1149  N1171   1.430   .     S
C1149  C139    1.424   1_556 S
C1150  N1174   1.430   .     S
N1151  O1153   1.302   .     A
N1151  O1152   1.301   .     A
N1151  C1025   1.439   1_655 S
N1154  O1156   1.302   .     A
N1154  O1155   1.301   .     A
C1157  O1158   1.222   .     D
C1157  O1159   1.399   .     S
O1159  H1160   1.014   .     S
C1161  O1163   1.399   .     S
C1161  O1162   1.222   .     D
O1163  H1164   1.014   .     S
N1165  O1167   1.301   .     A
N1165  O1166   1.299   .     A
N1168  O1170   1.301   .     A
N1168  O1169   1.299   .     A
N1171  O1172   1.299   .     A
N1171  O1173   1.301   .     A
N1174  O1176   1.301   .     A
N1174  O1175   1.299   .     A
O1177  C1181   1.297   .     A
O1177  Cu1189  1.950   .     S
O1178  C1182   1.297   .     A
O1178  Cu1190  1.950   .     S
O1179  Cu1190  1.953   .     S
O1179  C1181   1.299   .     A
O1180  C1182   1.299   .     A
O1180  Cu1189  1.953   .     S
C1181  C1202   1.442   .     S
C1182  C1201   1.442   .     S
O1183  C1187   1.292   .     A
O1183  Cu1189  1.969   .     S
O1184  C1188   1.292   .     A
O1184  Cu1190  1.969   .     S
O1185  Cu1190  1.972   .     S
O1185  C1187   1.302   .     A
O1186  C1188   1.302   .     A
O1186  Cu1189  1.972   .     S
C1187  C1193   1.441   .     S
C1188  C1194   1.441   .     S
Cu1189 N1191   2.036   .     S
Cu1189 Cu1190  2.709   .     S
Cu1190 N1192   2.036   .     S
N1191  C1204   1.375   .     A
N1191  C1205   1.374   .     A
N1192  C1203   1.375   .     A
N1192  C1206   1.374   .     A
C1193  C1306   1.361   1_455 S
C1193  N1319   1.439   1_455 S
C1194  C1249   1.361   .     S
C1194  N1266   1.439   .     S
C1195  H1197   1.084   .     S
C1195  C1202   1.397   .     A
C1196  C1201   1.397   .     A
C1196  H1198   1.084   .     S
C1196  C1368   1.391   .     S
C1199  C1213   1.488   .     S
C1199  C1201   1.412   .     A
C1199  C1363   1.391   .     S
C1200  C1217   1.488   .     S
C1200  C1202   1.412   .     A
C1203  N1221   1.427   .     S
C1204  N1224   1.427   .     S
C1204  C198    1.424   1_556 S
C1205  N1227   1.430   .     S
C1205  C195    1.424   1_556 S
C1206  N1230   1.430   .     S
N1207  O1209   1.302   .     A
N1207  O1208   1.301   .     A
N1207  C1249   1.439   .     S
N1210  O1212   1.302   .     A
N1210  O1211   1.301   .     A
N1210  C1306   1.439   1_455 S
C1213  O1214   1.222   .     D
C1213  O1215   1.399   .     S
O1215  H1216   1.014   .     S
C1217  O1219   1.399   .     S
C1217  O1218   1.222   .     D
O1219  H1220   1.014   .     S
N1221  O1223   1.301   .     A
N1221  O1222   1.299   .     A
N1224  O1226   1.301   .     A
N1224  O1225   1.299   .     A
N1227  O1228   1.299   .     A
N1227  O1229   1.301   .     A
N1230  O1232   1.301   .     A
N1230  O1231   1.299   .     A
O1233  C1237   1.297   .     A
O1233  Cu1245  1.950   .     S
O1234  C1238   1.297   .     A
O1234  Cu1246  1.950   .     S
O1235  Cu1246  1.953   .     S
O1235  C1237   1.299   .     A
O1236  C1238   1.299   .     A
O1236  Cu1245  1.953   .     S
C1237  C1258   1.442   .     S
C1238  C1257   1.442   .     S
O1239  C1243   1.292   .     A
O1239  Cu1245  1.969   .     S
O1240  C1244   1.292   .     A
O1240  Cu1246  1.969   .     S
O1241  Cu1246  1.972   .     S
O1241  C1243   1.302   .     A
O1242  C1244   1.302   .     A
O1242  Cu1245  1.972   .     S
C1243  C1249   1.441   .     S
C1244  C1250   1.441   .     S
Cu1245 N1247   2.036   .     S
Cu1245 Cu1246  2.709   .     S
Cu1246 N1248   2.036   .     S
N1247  C1260   1.375   .     A
N1247  C1261   1.374   .     A
N1248  C1259   1.375   .     A
N1248  C1262   1.374   .     A
C1250  C1305   1.361   .     S
C1250  N1322   1.439   .     S
C1251  H1253   1.084   .     S
C1251  C1258   1.397   .     A
C1252  C1257   1.397   .     A
C1252  H1254   1.084   .     S
C1252  C1424   1.391   .     S
C1255  C1269   1.488   .     S
C1255  C1257   1.412   .     A
C1255  C1419   1.391   .     S
C1256  C1273   1.488   .     S
C1256  C1258   1.412   .     A
C1259  N1277   1.427   .     S
C1260  N1280   1.427   .     S
C1260  C254    1.424   1_556 S
C1261  N1283   1.430   .     S
C1261  C251    1.424   1_556 S
C1262  N1286   1.430   .     S
N1263  O1265   1.302   .     A
N1263  O1264   1.301   .     A
N1263  C1305   1.439   .     S
N1266  O1268   1.302   .     A
N1266  O1267   1.301   .     A
C1269  O1270   1.222   .     D
C1269  O1271   1.399   .     S
O1271  H1272   1.014   .     S
C1273  O1275   1.399   .     S
C1273  O1274   1.222   .     D
O1275  H1276   1.014   .     S
N1277  O1279   1.301   .     A
N1277  O1278   1.299   .     A
N1280  O1282   1.301   .     A
N1280  O1281   1.299   .     A
N1283  O1284   1.299   .     A
N1283  O1285   1.301   .     A
N1286  O1288   1.301   .     A
N1286  O1287   1.299   .     A
O1289  C1293   1.297   .     A
O1289  Cu1301  1.950   .     S
O1290  C1294   1.297   .     A
O1290  Cu1302  1.950   .     S
O1291  Cu1302  1.953   .     S
O1291  C1293   1.299   .     A
O1292  C1294   1.299   .     A
O1292  Cu1301  1.953   .     S
C1293  C1314   1.442   .     S
C1294  C1313   1.442   .     S
O1295  C1299   1.292   .     A
O1295  Cu1301  1.969   .     S
O1296  C1300   1.292   .     A
O1296  Cu1302  1.969   .     S
O1297  Cu1302  1.972   .     S
O1297  C1299   1.302   .     A
O1298  C1300   1.302   .     A
O1298  Cu1301  1.972   .     S
C1299  C1305   1.441   .     S
C1300  C1306   1.441   .     S
Cu1301 N1303   2.036   .     S
Cu1301 Cu1302  2.709   .     S
Cu1302 N1304   2.036   .     S
N1303  C1316   1.375   .     A
N1303  C1317   1.374   .     A
N1304  C1315   1.375   .     A
N1304  C1318   1.374   .     A
C1306  C1193   1.361   1_655 S
C1306  N1210   1.439   1_655 S
C1307  H1309   1.084   .     S
C1307  C1314   1.397   .     A
C1308  C1313   1.397   .     A
C1308  H1310   1.084   .     S
C1308  C1480   1.391   .     S
C1311  C1325   1.488   .     S
C1311  C1313   1.412   .     A
C1311  C1475   1.391   .     S
C1312  C1329   1.488   .     S
C1312  C1314   1.412   .     A
C1315  N1333   1.427   .     S
C1316  N1336   1.427   .     S
C1316  C310    1.424   1_556 S
C1317  N1339   1.430   .     S
C1317  C307    1.424   1_556 S
C1318  N1342   1.430   .     S
N1319  O1321   1.302   .     A
N1319  O1320   1.301   .     A
N1319  C1193   1.439   1_655 S
N1322  O1324   1.302   .     A
N1322  O1323   1.301   .     A
C1325  O1326   1.222   .     D
C1325  O1327   1.399   .     S
O1327  H1328   1.014   .     S
C1329  O1331   1.399   .     S
C1329  O1330   1.222   .     D
O1331  H1332   1.014   .     S
N1333  O1335   1.301   .     A
N1333  O1334   1.299   .     A
N1336  O1338   1.301   .     A
N1336  O1337   1.299   .     A
N1339  O1340   1.299   .     A
N1339  O1341   1.301   .     A
N1342  O1344   1.301   .     A
N1342  O1343   1.299   .     A
O1345  C1349   1.297   .     A
O1345  Cu1357  1.950   .     S
O1346  C1350   1.297   .     A
O1346  Cu1358  1.950   .     S
O1347  Cu1358  1.953   .     S
O1347  C1349   1.299   .     A
O1348  C1350   1.299   .     A
O1348  Cu1357  1.953   .     S
C1349  C1370   1.442   .     S
C1350  C1369   1.442   .     S
O1351  C1355   1.292   .     A
O1351  Cu1357  1.969   .     S
O1352  C1356   1.292   .     A
O1352  Cu1358  1.969   .     S
O1353  Cu1358  1.972   .     S
O1353  C1355   1.302   .     A
O1354  C1356   1.302   .     A
O1354  Cu1357  1.972   .     S
C1355  C1361   1.441   .     S
C1356  C1362   1.441   .     S
Cu1357 N1359   2.036   .     S
Cu1357 Cu1358  2.709   .     S
Cu1358 N1360   2.036   .     S
N1359  C1372   1.375   .     A
N1359  C1373   1.374   .     A
N1360  C1371   1.375   .     A
N1360  C1374   1.374   .     A
C1361  C1474   1.361   1_455 S
C1361  N1487   1.439   1_455 S
C1362  C1417   1.361   .     S
C1362  N1434   1.439   .     S
C1363  H1365   1.084   .     S
C1363  C1370   1.397   .     A
C1364  C1369   1.397   .     A
C1364  H1366   1.084   .     S
C1364  C1032   1.391   1_565 S
C1367  C1381   1.488   .     S
C1367  C1369   1.412   .     A
C1367  C1027   1.391   1_565 S
C1368  C1385   1.488   .     S
C1368  C1370   1.412   .     A
C1371  N1389   1.427   .     S
C1372  N1392   1.427   .     S
C1372  C366    1.424   1_556 S
C1373  N1395   1.430   .     S
C1373  C363    1.424   1_556 S
C1374  N1398   1.430   .     S
N1375  O1377   1.302   .     A
N1375  O1376   1.301   .     A
N1375  C1417   1.439   .     S
N1378  O1380   1.302   .     A
N1378  O1379   1.301   .     A
N1378  C1474   1.439   1_455 S
C1381  O1382   1.222   .     D
C1381  O1383   1.399   .     S
O1383  H1384   1.014   .     S
C1385  O1387   1.399   .     S
C1385  O1386   1.222   .     D
O1387  H1388   1.014   .     S
N1389  O1391   1.301   .     A
N1389  O1390   1.299   .     A
N1392  O1394   1.301   .     A
N1392  O1393   1.299   .     A
N1395  O1396   1.299   .     A
N1395  O1397   1.301   .     A
N1398  O1400   1.301   .     A
N1398  O1399   1.299   .     A
O1401  C1405   1.297   .     A
O1401  Cu1413  1.950   .     S
O1402  C1406   1.297   .     A
O1402  Cu1414  1.950   .     S
O1403  Cu1414  1.953   .     S
O1403  C1405   1.299   .     A
O1404  C1406   1.299   .     A
O1404  Cu1413  1.953   .     S
C1405  C1426   1.442   .     S
C1406  C1425   1.442   .     S
O1407  C1411   1.292   .     A
O1407  Cu1413  1.969   .     S
O1408  C1412   1.292   .     A
O1408  Cu1414  1.969   .     S
O1409  Cu1414  1.972   .     S
O1409  C1411   1.302   .     A
O1410  C1412   1.302   .     A
O1410  Cu1413  1.972   .     S
C1411  C1417   1.441   .     S
C1412  C1418   1.441   .     S
Cu1413 N1415   2.036   .     S
Cu1413 Cu1414  2.709   .     S
Cu1414 N1416   2.036   .     S
N1415  C1428   1.375   .     A
N1415  C1429   1.374   .     A
N1416  C1427   1.375   .     A
N1416  C1430   1.374   .     A
C1418  C1473   1.361   .     S
C1418  N1490   1.439   .     S
C1419  H1421   1.084   .     S
C1419  C1426   1.397   .     A
C1420  C1425   1.397   .     A
C1420  H1422   1.084   .     S
C1420  C1088   1.391   1_565 S
C1423  C1437   1.488   .     S
C1423  C1425   1.412   .     A
C1423  C1083   1.391   1_565 S
C1424  C1441   1.488   .     S
C1424  C1426   1.412   .     A
C1427  N1445   1.427   .     S
C1428  N1448   1.427   .     S
C1428  C422    1.424   1_556 S
C1429  N1451   1.430   .     S
C1429  C419    1.424   1_556 S
C1430  N1454   1.430   .     S
N1431  O1433   1.302   .     A
N1431  O1432   1.301   .     A
N1431  C1473   1.439   .     S
N1434  O1436   1.302   .     A
N1434  O1435   1.301   .     A
C1437  O1438   1.222   .     D
C1437  O1439   1.399   .     S
O1439  H1440   1.014   .     S
C1441  O1443   1.399   .     S
C1441  O1442   1.222   .     D
O1443  H1444   1.014   .     S
N1445  O1447   1.301   .     A
N1445  O1446   1.299   .     A
N1448  O1450   1.301   .     A
N1448  O1449   1.299   .     A
N1451  O1452   1.299   .     A
N1451  O1453   1.301   .     A
N1454  O1456   1.301   .     A
N1454  O1455   1.299   .     A
O1457  C1461   1.297   .     A
O1457  Cu1469  1.950   .     S
O1458  C1462   1.297   .     A
O1458  Cu1470  1.950   .     S
O1459  Cu1470  1.953   .     S
O1459  C1461   1.299   .     A
O1460  C1462   1.299   .     A
O1460  Cu1469  1.953   .     S
C1461  C1482   1.442   .     S
C1462  C1481   1.442   .     S
O1463  C1467   1.292   .     A
O1463  Cu1469  1.969   .     S
O1464  C1468   1.292   .     A
O1464  Cu1470  1.969   .     S
O1465  Cu1470  1.972   .     S
O1465  C1467   1.302   .     A
O1466  C1468   1.302   .     A
O1466  Cu1469  1.972   .     S
C1467  C1473   1.441   .     S
C1468  C1474   1.441   .     S
Cu1469 N1471   2.036   .     S
Cu1469 Cu1470  2.709   .     S
Cu1470 N1472   2.036   .     S
N1471  C1484   1.375   .     A
N1471  C1485   1.374   .     A
N1472  C1483   1.375   .     A
N1472  C1486   1.374   .     A
C1474  C1361   1.361   1_655 S
C1474  N1378   1.439   1_655 S
C1475  H1477   1.084   .     S
C1475  C1482   1.397   .     A
C1476  C1481   1.397   .     A
C1476  H1478   1.084   .     S
C1476  C1144   1.391   1_565 S
C1479  C1493   1.488   .     S
C1479  C1481   1.412   .     A
C1479  C1139   1.391   1_565 S
C1480  C1497   1.488   .     S
C1480  C1482   1.412   .     A
C1483  N1501   1.427   .     S
C1484  N1504   1.427   .     S
C1484  C478    1.424   1_556 S
C1485  N1507   1.430   .     S
C1485  C475    1.424   1_556 S
C1486  N1510   1.430   .     S
N1487  O1489   1.302   .     A
N1487  O1488   1.301   .     A
N1487  C1361   1.439   1_655 S
N1490  O1492   1.302   .     A
N1490  O1491   1.301   .     A
C1493  O1494   1.222   .     D
C1493  O1495   1.399   .     S
O1495  H1496   1.014   .     S
C1497  O1499   1.399   .     S
C1497  O1498   1.222   .     D
O1499  H1500   1.014   .     S
N1501  O1503   1.301   .     A
N1501  O1502   1.299   .     A
N1504  O1506   1.301   .     A
N1504  O1505   1.299   .     A
N1507  O1508   1.299   .     A
N1507  O1509   1.301   .     A
N1510  O1512   1.301   .     A
N1510  O1511   1.299   .     A
