data_str_m2_o10_o16_pcu_sym.21
_audit_creation_date              2020-01-03
_audit_creation_method            'Materials Studio'
_symmetry_space_group_name_H-M    'P1'
_symmetry_Int_Tables_number       1
_symmetry_cell_setting            triclinic
loop_
_symmetry_equiv_pos_as_xyz
  x,y,z
_cell_length_a                    22.3964
_cell_length_b                    26.0711
_cell_length_c                    26.8751
_cell_angle_alpha                 94.0526
_cell_angle_beta                  78.5193
_cell_angle_gamma                 102.9834
loop_
_atom_site_label
_atom_site_type_symbol
_atom_site_fract_x
_atom_site_fract_y
_atom_site_fract_z
_atom_site_U_iso_or_equiv
_atom_site_adp_type
_atom_site_occupancy
C1     C     0.18175   0.26668   0.25145   0.00000  Uiso   1.00
C2     C     0.11623   0.13650   0.39869   0.00000  Uiso   1.00
C3     C     0.19033   0.32263   0.25186   0.00000  Uiso   1.00
C4     C     0.13352   0.15549   0.34567   0.00000  Uiso   1.00
C5     C     0.14305   0.01069   0.24794   0.00000  Uiso   1.00
C6     C     0.15162   0.06664   0.24846   0.00000  Uiso   1.00
C7     C     0.19981   0.17039   0.15324   0.00000  Uiso   1.00
C8     C     0.29552   0.19669   0.02242   0.00000  Uiso   1.00
C9     C     0.21820   0.17328   0.09807   0.00000  Uiso   1.00
C10    C     0.05434   0.11357   0.41854   0.00000  Uiso   1.00
C11    C     0.03532   0.10401   0.47017   0.00000  Uiso   1.00
C12    C     0.14144   0.13975   0.48394   0.00000  Uiso   1.00
C13    C     0.07735   0.11967   0.00310   0.00000  Uiso   1.00
C14    C     0.24772   0.11184   0.37042   0.00000  Uiso   1.00
C15    C     0.16143   0.14117   0.43051   0.00000  Uiso   1.00
C16    C     0.18700   0.15733   0.01534   0.00000  Uiso   1.00
C17    C     0.25024   0.17708   0.49254   0.00000  Uiso   1.00
C18    C     0.26885   0.17196   0.44032   0.00000  Uiso   1.00
C19    C     0.22594   0.14632   0.41125   0.00000  Uiso   1.00
C20    C     0.17219   0.15597   0.06841   0.00000  Uiso   1.00
C21    C     0.27973   0.19420   0.07499   0.00000  Uiso   1.00
Cu22   Cu    0.10710   0.16105   0.24435   0.00000  Uiso   1.00
Cu23   Cu    0.22623   0.17228   0.25564   0.00000  Uiso   1.00
H24    H     0.31550   0.20844   0.09750   0.00000  Uiso   1.00
H25    H     0.32023   0.08684   0.48516   0.00000  Uiso   1.00
H26    H     0.23602   0.01298   0.25527   0.00000  Uiso   1.00
H27    H     0.09740   0.32031   0.24439   0.00000  Uiso   1.00
H28    H     0.00380   0.20611   0.28961   0.00000  Uiso   1.00
H29    H     0.32947   0.12713   0.21048   0.00000  Uiso   1.00
H30    H     0.31776   0.18262   0.42312   0.00000  Uiso   1.00
H31    H     0.01038   0.21198   0.00498   0.00000  Uiso   1.00
H32    H     0.12524   0.14057   0.08761   0.00000  Uiso   1.00
H33    H     0.02065   0.10352   0.39402   0.00000  Uiso   1.00
H34    H     0.05828   0.11453   0.04294   0.00000  Uiso   1.00
N35    N     0.31574   0.18074   0.26416   0.00000  Uiso   1.00
N36    N     0.01759   0.15259   0.23584   0.00000  Uiso   1.00
N37    N     0.26512   0.08384   0.33819   0.00000  Uiso   1.00
O38    O     0.12797   0.23807   0.24633   0.00000  Uiso   1.00
O39    O     0.22858   0.24755   0.25587   0.00000  Uiso   1.00
O40    O     0.09181   0.15960   0.31839   0.00000  Uiso   1.00
O41    O     0.19242   0.16908   0.32793   0.00000  Uiso   1.00
O42    O     0.10476   0.08578   0.24413   0.00000  Uiso   1.00
O43    O     0.20536   0.09526   0.25367   0.00000  Uiso   1.00
O44    O     0.14092   0.16425   0.17207   0.00000  Uiso   1.00
O45    O     0.24152   0.17373   0.18161   0.00000  Uiso   1.00
C46    C     0.51508   0.26668   0.25145   0.00000  Uiso   1.00
C47    C     0.44956   0.13650   0.39869   0.00000  Uiso   1.00
C48    C     0.52367   0.32263   0.25186   0.00000  Uiso   1.00
C49    C     0.46686   0.15549   0.34567   0.00000  Uiso   1.00
C50    C     0.47639   0.01069   0.24794   0.00000  Uiso   1.00
C51    C     0.48495   0.06664   0.24846   0.00000  Uiso   1.00
C52    C     0.53314   0.17039   0.15324   0.00000  Uiso   1.00
C53    C     0.62885   0.19669   0.02242   0.00000  Uiso   1.00
C54    C     0.55153   0.17328   0.09807   0.00000  Uiso   1.00
C55    C     0.38768   0.11357   0.41854   0.00000  Uiso   1.00
C56    C     0.36865   0.10401   0.47017   0.00000  Uiso   1.00
C57    C     0.47478   0.13975   0.48394   0.00000  Uiso   1.00
C58    C     0.41068   0.11967   0.00310   0.00000  Uiso   1.00
C59    C     0.58106   0.11184   0.37042   0.00000  Uiso   1.00
C60    C     0.49477   0.14117   0.43051   0.00000  Uiso   1.00
C61    C     0.52033   0.15733   0.01534   0.00000  Uiso   1.00
C62    C     0.58357   0.17708   0.49254   0.00000  Uiso   1.00
C63    C     0.60218   0.17196   0.44032   0.00000  Uiso   1.00
C64    C     0.55927   0.14632   0.41125   0.00000  Uiso   1.00
C65    C     0.50552   0.15597   0.06841   0.00000  Uiso   1.00
C66    C     0.61306   0.19420   0.07499   0.00000  Uiso   1.00
Cu67   Cu    0.44043   0.16105   0.24435   0.00000  Uiso   1.00
Cu68   Cu    0.55957   0.17228   0.25564   0.00000  Uiso   1.00
H69    H     0.64884   0.20844   0.09750   0.00000  Uiso   1.00
H70    H     0.65356   0.08684   0.48516   0.00000  Uiso   1.00
H71    H     0.56936   0.01298   0.25527   0.00000  Uiso   1.00
H72    H     0.43074   0.32031   0.24439   0.00000  Uiso   1.00
H73    H     0.33714   0.20611   0.28961   0.00000  Uiso   1.00
H74    H     0.66280   0.12713   0.21048   0.00000  Uiso   1.00
H75    H     0.65110   0.18262   0.42312   0.00000  Uiso   1.00
H76    H     0.34371   0.21198   0.00498   0.00000  Uiso   1.00
H77    H     0.45857   0.14057   0.08761   0.00000  Uiso   1.00
H78    H     0.35398   0.10352   0.39402   0.00000  Uiso   1.00
H79    H     0.39161   0.11453   0.04294   0.00000  Uiso   1.00
N80    N     0.64908   0.18074   0.26416   0.00000  Uiso   1.00
N81    N     0.35092   0.15259   0.23584   0.00000  Uiso   1.00
N82    N     0.59845   0.08384   0.33819   0.00000  Uiso   1.00
O83    O     0.46131   0.23807   0.24633   0.00000  Uiso   1.00
O84    O     0.56191   0.24755   0.25587   0.00000  Uiso   1.00
O85    O     0.42515   0.15960   0.31839   0.00000  Uiso   1.00
O86    O     0.52575   0.16908   0.32793   0.00000  Uiso   1.00
O87    O     0.43809   0.08578   0.24413   0.00000  Uiso   1.00
O88    O     0.53869   0.09526   0.25367   0.00000  Uiso   1.00
O89    O     0.47425   0.16425   0.17207   0.00000  Uiso   1.00
O90    O     0.57485   0.17373   0.18161   0.00000  Uiso   1.00
C91    C     0.84841   0.26668   0.25145   0.00000  Uiso   1.00
C92    C     0.78290   0.13650   0.39869   0.00000  Uiso   1.00
C93    C     0.85700   0.32263   0.25186   0.00000  Uiso   1.00
C94    C     0.80019   0.15549   0.34567   0.00000  Uiso   1.00
C95    C     0.80972   0.01069   0.24794   0.00000  Uiso   1.00
C96    C     0.81828   0.06664   0.24846   0.00000  Uiso   1.00
C97    C     0.86648   0.17039   0.15324   0.00000  Uiso   1.00
C98    C     0.96219   0.19669   0.02242   0.00000  Uiso   1.00
C99    C     0.88486   0.17328   0.09807   0.00000  Uiso   1.00
C100   C     0.72101   0.11357   0.41854   0.00000  Uiso   1.00
C101   C     0.70199   0.10401   0.47017   0.00000  Uiso   1.00
C102   C     0.80811   0.13975   0.48394   0.00000  Uiso   1.00
C103   C     0.74401   0.11967   0.00310   0.00000  Uiso   1.00
C104   C     0.91439   0.11184   0.37042   0.00000  Uiso   1.00
C105   C     0.82810   0.14117   0.43051   0.00000  Uiso   1.00
C106   C     0.85366   0.15733   0.01534   0.00000  Uiso   1.00
C107   C     0.91690   0.17708   0.49254   0.00000  Uiso   1.00
C108   C     0.93552   0.17196   0.44032   0.00000  Uiso   1.00
C109   C     0.89261   0.14632   0.41125   0.00000  Uiso   1.00
C110   C     0.83885   0.15597   0.06841   0.00000  Uiso   1.00
C111   C     0.94640   0.19420   0.07499   0.00000  Uiso   1.00
Cu112  Cu    0.77377   0.16105   0.24435   0.00000  Uiso   1.00
Cu113  Cu    0.89290   0.17228   0.25564   0.00000  Uiso   1.00
H114   H     0.98217   0.20844   0.09750   0.00000  Uiso   1.00
H115   H     0.98689   0.08684   0.48516   0.00000  Uiso   1.00
H116   H     0.90269   0.01298   0.25527   0.00000  Uiso   1.00
H117   H     0.76407   0.32031   0.24439   0.00000  Uiso   1.00
H118   H     0.67047   0.20611   0.28961   0.00000  Uiso   1.00
H119   H     0.99614   0.12713   0.21048   0.00000  Uiso   1.00
H120   H     0.98443   0.18262   0.42312   0.00000  Uiso   1.00
H121   H     0.67705   0.21198   0.00498   0.00000  Uiso   1.00
H122   H     0.79190   0.14057   0.08761   0.00000  Uiso   1.00
H123   H     0.68731   0.10352   0.39402   0.00000  Uiso   1.00
H124   H     0.72495   0.11453   0.04294   0.00000  Uiso   1.00
N125   N     0.98241   0.18074   0.26416   0.00000  Uiso   1.00
N126   N     0.68426   0.15259   0.23584   0.00000  Uiso   1.00
N127   N     0.93178   0.08384   0.33819   0.00000  Uiso   1.00
O128   O     0.79464   0.23807   0.24633   0.00000  Uiso   1.00
O129   O     0.89524   0.24755   0.25587   0.00000  Uiso   1.00
O130   O     0.75848   0.15960   0.31839   0.00000  Uiso   1.00
O131   O     0.85908   0.16908   0.32793   0.00000  Uiso   1.00
O132   O     0.77142   0.08578   0.24413   0.00000  Uiso   1.00
O133   O     0.87203   0.09526   0.25367   0.00000  Uiso   1.00
O134   O     0.80758   0.16425   0.17207   0.00000  Uiso   1.00
O135   O     0.90819   0.17373   0.18161   0.00000  Uiso   1.00
C136   C     0.18175   0.60001   0.25145   0.00000  Uiso   1.00
C137   C     0.11623   0.46983   0.39869   0.00000  Uiso   1.00
C138   C     0.19033   0.65596   0.25186   0.00000  Uiso   1.00
C139   C     0.13352   0.48883   0.34567   0.00000  Uiso   1.00
C140   C     0.14305   0.34402   0.24794   0.00000  Uiso   1.00
C141   C     0.15162   0.39998   0.24846   0.00000  Uiso   1.00
C142   C     0.19981   0.50372   0.15324   0.00000  Uiso   1.00
C143   C     0.29552   0.53003   0.02242   0.00000  Uiso   1.00
C144   C     0.21820   0.50661   0.09807   0.00000  Uiso   1.00
C145   C     0.05434   0.44691   0.41854   0.00000  Uiso   1.00
C146   C     0.03532   0.43734   0.47017   0.00000  Uiso   1.00
C147   C     0.14144   0.47309   0.48394   0.00000  Uiso   1.00
C148   C     0.07735   0.45300   0.00310   0.00000  Uiso   1.00
C149   C     0.24772   0.44518   0.37042   0.00000  Uiso   1.00
C150   C     0.16143   0.47450   0.43051   0.00000  Uiso   1.00
C151   C     0.18700   0.49066   0.01534   0.00000  Uiso   1.00
C152   C     0.25024   0.51042   0.49254   0.00000  Uiso   1.00
C153   C     0.26885   0.50529   0.44032   0.00000  Uiso   1.00
C154   C     0.22594   0.47965   0.41125   0.00000  Uiso   1.00
C155   C     0.17219   0.48930   0.06841   0.00000  Uiso   1.00
C156   C     0.27973   0.52754   0.07499   0.00000  Uiso   1.00
Cu157  Cu    0.10710   0.49439   0.24435   0.00000  Uiso   1.00
Cu158  Cu    0.22623   0.50561   0.25564   0.00000  Uiso   1.00
H159   H     0.31550   0.54178   0.09750   0.00000  Uiso   1.00
H160   H     0.32023   0.42018   0.48516   0.00000  Uiso   1.00
H161   H     0.23602   0.34631   0.25527   0.00000  Uiso   1.00
H162   H     0.09740   0.65365   0.24439   0.00000  Uiso   1.00
H163   H     0.00380   0.53944   0.28961   0.00000  Uiso   1.00
H164   H     0.32947   0.46046   0.21048   0.00000  Uiso   1.00
H165   H     0.31776   0.51596   0.42312   0.00000  Uiso   1.00
H166   H     0.01038   0.54532   0.00498   0.00000  Uiso   1.00
H167   H     0.12524   0.47390   0.08761   0.00000  Uiso   1.00
H168   H     0.02065   0.43686   0.39402   0.00000  Uiso   1.00
H169   H     0.05828   0.44786   0.04294   0.00000  Uiso   1.00
N170   N     0.31574   0.51407   0.26416   0.00000  Uiso   1.00
N171   N     0.01759   0.48593   0.23584   0.00000  Uiso   1.00
N172   N     0.26512   0.41717   0.33819   0.00000  Uiso   1.00
O173   O     0.12797   0.57141   0.24633   0.00000  Uiso   1.00
O174   O     0.22858   0.58089   0.25587   0.00000  Uiso   1.00
O175   O     0.09181   0.49293   0.31839   0.00000  Uiso   1.00
O176   O     0.19242   0.50241   0.32793   0.00000  Uiso   1.00
O177   O     0.10476   0.41911   0.24413   0.00000  Uiso   1.00
O178   O     0.20536   0.42859   0.25367   0.00000  Uiso   1.00
O179   O     0.14092   0.49759   0.17207   0.00000  Uiso   1.00
O180   O     0.24152   0.50707   0.18161   0.00000  Uiso   1.00
C181   C     0.51508   0.60001   0.25145   0.00000  Uiso   1.00
C182   C     0.44956   0.46983   0.39869   0.00000  Uiso   1.00
C183   C     0.52367   0.65596   0.25186   0.00000  Uiso   1.00
C184   C     0.46686   0.48883   0.34567   0.00000  Uiso   1.00
C185   C     0.47639   0.34402   0.24794   0.00000  Uiso   1.00
C186   C     0.48495   0.39998   0.24846   0.00000  Uiso   1.00
C187   C     0.53314   0.50372   0.15324   0.00000  Uiso   1.00
C188   C     0.62885   0.53003   0.02242   0.00000  Uiso   1.00
C189   C     0.55153   0.50661   0.09807   0.00000  Uiso   1.00
C190   C     0.38768   0.44691   0.41854   0.00000  Uiso   1.00
C191   C     0.36865   0.43734   0.47017   0.00000  Uiso   1.00
C192   C     0.47478   0.47309   0.48394   0.00000  Uiso   1.00
C193   C     0.41068   0.45300   0.00310   0.00000  Uiso   1.00
C194   C     0.58106   0.44518   0.37042   0.00000  Uiso   1.00
C195   C     0.49477   0.47450   0.43051   0.00000  Uiso   1.00
C196   C     0.52033   0.49066   0.01534   0.00000  Uiso   1.00
C197   C     0.58357   0.51042   0.49254   0.00000  Uiso   1.00
C198   C     0.60218   0.50529   0.44032   0.00000  Uiso   1.00
C199   C     0.55927   0.47965   0.41125   0.00000  Uiso   1.00
C200   C     0.50552   0.48930   0.06841   0.00000  Uiso   1.00
C201   C     0.61306   0.52754   0.07499   0.00000  Uiso   1.00
Cu202  Cu    0.44043   0.49439   0.24435   0.00000  Uiso   1.00
Cu203  Cu    0.55957   0.50561   0.25564   0.00000  Uiso   1.00
H204   H     0.64884   0.54178   0.09750   0.00000  Uiso   1.00
H205   H     0.65356   0.42018   0.48516   0.00000  Uiso   1.00
H206   H     0.56936   0.34631   0.25527   0.00000  Uiso   1.00
H207   H     0.43074   0.65365   0.24439   0.00000  Uiso   1.00
H208   H     0.33714   0.53944   0.28961   0.00000  Uiso   1.00
H209   H     0.66280   0.46046   0.21048   0.00000  Uiso   1.00
H210   H     0.65110   0.51596   0.42312   0.00000  Uiso   1.00
H211   H     0.34371   0.54532   0.00498   0.00000  Uiso   1.00
H212   H     0.45857   0.47390   0.08761   0.00000  Uiso   1.00
H213   H     0.35398   0.43686   0.39402   0.00000  Uiso   1.00
H214   H     0.39161   0.44786   0.04294   0.00000  Uiso   1.00
N215   N     0.64908   0.51407   0.26416   0.00000  Uiso   1.00
N216   N     0.35092   0.48593   0.23584   0.00000  Uiso   1.00
N217   N     0.59845   0.41717   0.33819   0.00000  Uiso   1.00
O218   O     0.46131   0.57141   0.24633   0.00000  Uiso   1.00
O219   O     0.56191   0.58089   0.25587   0.00000  Uiso   1.00
O220   O     0.42515   0.49293   0.31839   0.00000  Uiso   1.00
O221   O     0.52575   0.50241   0.32793   0.00000  Uiso   1.00
O222   O     0.43809   0.41911   0.24413   0.00000  Uiso   1.00
O223   O     0.53869   0.42859   0.25367   0.00000  Uiso   1.00
O224   O     0.47425   0.49759   0.17207   0.00000  Uiso   1.00
O225   O     0.57485   0.50707   0.18161   0.00000  Uiso   1.00
C226   C     0.84841   0.60001   0.25145   0.00000  Uiso   1.00
C227   C     0.78290   0.46983   0.39869   0.00000  Uiso   1.00
C228   C     0.85700   0.65596   0.25186   0.00000  Uiso   1.00
C229   C     0.80019   0.48883   0.34567   0.00000  Uiso   1.00
C230   C     0.80972   0.34402   0.24794   0.00000  Uiso   1.00
C231   C     0.81828   0.39998   0.24846   0.00000  Uiso   1.00
C232   C     0.86648   0.50372   0.15324   0.00000  Uiso   1.00
C233   C     0.96219   0.53003   0.02242   0.00000  Uiso   1.00
C234   C     0.88486   0.50661   0.09807   0.00000  Uiso   1.00
C235   C     0.72101   0.44691   0.41854   0.00000  Uiso   1.00
C236   C     0.70199   0.43734   0.47017   0.00000  Uiso   1.00
C237   C     0.80811   0.47309   0.48394   0.00000  Uiso   1.00
C238   C     0.74401   0.45300   0.00310   0.00000  Uiso   1.00
C239   C     0.91439   0.44518   0.37042   0.00000  Uiso   1.00
C240   C     0.82810   0.47450   0.43051   0.00000  Uiso   1.00
C241   C     0.85366   0.49066   0.01534   0.00000  Uiso   1.00
C242   C     0.91690   0.51042   0.49254   0.00000  Uiso   1.00
C243   C     0.93552   0.50529   0.44032   0.00000  Uiso   1.00
C244   C     0.89261   0.47965   0.41125   0.00000  Uiso   1.00
C245   C     0.83885   0.48930   0.06841   0.00000  Uiso   1.00
C246   C     0.94640   0.52754   0.07499   0.00000  Uiso   1.00
Cu247  Cu    0.77377   0.49439   0.24435   0.00000  Uiso   1.00
Cu248  Cu    0.89290   0.50561   0.25564   0.00000  Uiso   1.00
H249   H     0.98217   0.54178   0.09750   0.00000  Uiso   1.00
H250   H     0.98689   0.42018   0.48516   0.00000  Uiso   1.00
H251   H     0.90269   0.34631   0.25527   0.00000  Uiso   1.00
H252   H     0.76407   0.65365   0.24439   0.00000  Uiso   1.00
H253   H     0.67047   0.53944   0.28961   0.00000  Uiso   1.00
H254   H     0.99614   0.46046   0.21048   0.00000  Uiso   1.00
H255   H     0.98443   0.51596   0.42312   0.00000  Uiso   1.00
H256   H     0.67705   0.54532   0.00498   0.00000  Uiso   1.00
H257   H     0.79190   0.47390   0.08761   0.00000  Uiso   1.00
H258   H     0.68731   0.43686   0.39402   0.00000  Uiso   1.00
H259   H     0.72495   0.44786   0.04294   0.00000  Uiso   1.00
N260   N     0.98241   0.51407   0.26416   0.00000  Uiso   1.00
N261   N     0.68426   0.48593   0.23584   0.00000  Uiso   1.00
N262   N     0.93178   0.41717   0.33819   0.00000  Uiso   1.00
O263   O     0.79464   0.57141   0.24633   0.00000  Uiso   1.00
O264   O     0.89524   0.58089   0.25587   0.00000  Uiso   1.00
O265   O     0.75848   0.49293   0.31839   0.00000  Uiso   1.00
O266   O     0.85908   0.50241   0.32793   0.00000  Uiso   1.00
O267   O     0.77142   0.41911   0.24413   0.00000  Uiso   1.00
O268   O     0.87203   0.42859   0.25367   0.00000  Uiso   1.00
O269   O     0.80758   0.49759   0.17207   0.00000  Uiso   1.00
O270   O     0.90819   0.50707   0.18161   0.00000  Uiso   1.00
C271   C     0.18175   0.93335   0.25145   0.00000  Uiso   1.00
C272   C     0.11623   0.80316   0.39869   0.00000  Uiso   1.00
C273   C     0.19033   0.98929   0.25186   0.00000  Uiso   1.00
C274   C     0.13352   0.82216   0.34567   0.00000  Uiso   1.00
C275   C     0.14305   0.67736   0.24794   0.00000  Uiso   1.00
C276   C     0.15162   0.73331   0.24846   0.00000  Uiso   1.00
C277   C     0.19981   0.83706   0.15324   0.00000  Uiso   1.00
C278   C     0.29552   0.86336   0.02242   0.00000  Uiso   1.00
C279   C     0.21820   0.83995   0.09807   0.00000  Uiso   1.00
C280   C     0.05434   0.78024   0.41854   0.00000  Uiso   1.00
C281   C     0.03532   0.77068   0.47017   0.00000  Uiso   1.00
C282   C     0.14144   0.80642   0.48394   0.00000  Uiso   1.00
C283   C     0.07735   0.78634   0.00310   0.00000  Uiso   1.00
C284   C     0.24772   0.77851   0.37042   0.00000  Uiso   1.00
C285   C     0.16143   0.80784   0.43051   0.00000  Uiso   1.00
C286   C     0.18700   0.82399   0.01534   0.00000  Uiso   1.00
C287   C     0.25024   0.84375   0.49254   0.00000  Uiso   1.00
C288   C     0.26885   0.83863   0.44032   0.00000  Uiso   1.00
C289   C     0.22594   0.81298   0.41125   0.00000  Uiso   1.00
C290   C     0.17219   0.82263   0.06841   0.00000  Uiso   1.00
C291   C     0.27973   0.86087   0.07499   0.00000  Uiso   1.00
Cu292  Cu    0.10710   0.82772   0.24435   0.00000  Uiso   1.00
Cu293  Cu    0.22623   0.83895   0.25564   0.00000  Uiso   1.00
H294   H     0.31550   0.87511   0.09750   0.00000  Uiso   1.00
H295   H     0.32023   0.75351   0.48516   0.00000  Uiso   1.00
H296   H     0.23602   0.67965   0.25527   0.00000  Uiso   1.00
H297   H     0.09740   0.98698   0.24439   0.00000  Uiso   1.00
H298   H     0.00380   0.87278   0.28961   0.00000  Uiso   1.00
H299   H     0.32947   0.79380   0.21048   0.00000  Uiso   1.00
H300   H     0.31776   0.84929   0.42312   0.00000  Uiso   1.00
H301   H     0.01038   0.87865   0.00498   0.00000  Uiso   1.00
H302   H     0.12524   0.80724   0.08761   0.00000  Uiso   1.00
H303   H     0.02065   0.77019   0.39402   0.00000  Uiso   1.00
H304   H     0.05828   0.78119   0.04294   0.00000  Uiso   1.00
N305   N     0.31574   0.84741   0.26416   0.00000  Uiso   1.00
N306   N     0.01759   0.81926   0.23584   0.00000  Uiso   1.00
N307   N     0.26512   0.75051   0.33819   0.00000  Uiso   1.00
O308   O     0.12797   0.90474   0.24633   0.00000  Uiso   1.00
O309   O     0.22858   0.91422   0.25587   0.00000  Uiso   1.00
O310   O     0.09181   0.82627   0.31839   0.00000  Uiso   1.00
O311   O     0.19242   0.83575   0.32793   0.00000  Uiso   1.00
O312   O     0.10476   0.75245   0.24413   0.00000  Uiso   1.00
O313   O     0.20536   0.76193   0.25367   0.00000  Uiso   1.00
O314   O     0.14092   0.83092   0.17207   0.00000  Uiso   1.00
O315   O     0.24152   0.84040   0.18161   0.00000  Uiso   1.00
C316   C     0.51508   0.93335   0.25145   0.00000  Uiso   1.00
C317   C     0.44956   0.80316   0.39869   0.00000  Uiso   1.00
C318   C     0.52367   0.98929   0.25186   0.00000  Uiso   1.00
C319   C     0.46686   0.82216   0.34567   0.00000  Uiso   1.00
C320   C     0.47639   0.67736   0.24794   0.00000  Uiso   1.00
C321   C     0.48495   0.73331   0.24846   0.00000  Uiso   1.00
C322   C     0.53314   0.83706   0.15324   0.00000  Uiso   1.00
C323   C     0.62885   0.86336   0.02242   0.00000  Uiso   1.00
C324   C     0.55153   0.83995   0.09807   0.00000  Uiso   1.00
C325   C     0.38768   0.78024   0.41854   0.00000  Uiso   1.00
C326   C     0.36865   0.77068   0.47017   0.00000  Uiso   1.00
C327   C     0.47478   0.80642   0.48394   0.00000  Uiso   1.00
C328   C     0.41068   0.78634   0.00310   0.00000  Uiso   1.00
C329   C     0.58106   0.77851   0.37042   0.00000  Uiso   1.00
C330   C     0.49477   0.80784   0.43051   0.00000  Uiso   1.00
C331   C     0.52033   0.82399   0.01534   0.00000  Uiso   1.00
C332   C     0.58357   0.84375   0.49254   0.00000  Uiso   1.00
C333   C     0.60218   0.83863   0.44032   0.00000  Uiso   1.00
C334   C     0.55927   0.81298   0.41125   0.00000  Uiso   1.00
C335   C     0.50552   0.82263   0.06841   0.00000  Uiso   1.00
C336   C     0.61306   0.86087   0.07499   0.00000  Uiso   1.00
Cu337  Cu    0.44043   0.82772   0.24435   0.00000  Uiso   1.00
Cu338  Cu    0.55957   0.83895   0.25564   0.00000  Uiso   1.00
H339   H     0.64884   0.87511   0.09750   0.00000  Uiso   1.00
H340   H     0.65356   0.75351   0.48516   0.00000  Uiso   1.00
H341   H     0.56936   0.67965   0.25527   0.00000  Uiso   1.00
H342   H     0.43074   0.98698   0.24439   0.00000  Uiso   1.00
H343   H     0.33714   0.87278   0.28961   0.00000  Uiso   1.00
H344   H     0.66280   0.79380   0.21048   0.00000  Uiso   1.00
H345   H     0.65110   0.84929   0.42312   0.00000  Uiso   1.00
H346   H     0.34371   0.87865   0.00498   0.00000  Uiso   1.00
H347   H     0.45857   0.80724   0.08761   0.00000  Uiso   1.00
H348   H     0.35398   0.77019   0.39402   0.00000  Uiso   1.00
H349   H     0.39161   0.78119   0.04294   0.00000  Uiso   1.00
N350   N     0.64908   0.84741   0.26416   0.00000  Uiso   1.00
N351   N     0.35092   0.81926   0.23584   0.00000  Uiso   1.00
N352   N     0.59845   0.75051   0.33819   0.00000  Uiso   1.00
O353   O     0.46131   0.90474   0.24633   0.00000  Uiso   1.00
O354   O     0.56191   0.91422   0.25587   0.00000  Uiso   1.00
O355   O     0.42515   0.82627   0.31839   0.00000  Uiso   1.00
O356   O     0.52575   0.83575   0.32793   0.00000  Uiso   1.00
O357   O     0.43809   0.75245   0.24413   0.00000  Uiso   1.00
O358   O     0.53869   0.76193   0.25367   0.00000  Uiso   1.00
O359   O     0.47425   0.83092   0.17207   0.00000  Uiso   1.00
O360   O     0.57485   0.84040   0.18161   0.00000  Uiso   1.00
C361   C     0.84841   0.93335   0.25145   0.00000  Uiso   1.00
C362   C     0.78290   0.80316   0.39869   0.00000  Uiso   1.00
C363   C     0.85700   0.98929   0.25186   0.00000  Uiso   1.00
C364   C     0.80019   0.82216   0.34567   0.00000  Uiso   1.00
C365   C     0.80972   0.67736   0.24794   0.00000  Uiso   1.00
C366   C     0.81828   0.73331   0.24846   0.00000  Uiso   1.00
C367   C     0.86648   0.83706   0.15324   0.00000  Uiso   1.00
C368   C     0.96219   0.86336   0.02242   0.00000  Uiso   1.00
C369   C     0.88486   0.83995   0.09807   0.00000  Uiso   1.00
C370   C     0.72101   0.78024   0.41854   0.00000  Uiso   1.00
C371   C     0.70199   0.77068   0.47017   0.00000  Uiso   1.00
C372   C     0.80811   0.80642   0.48394   0.00000  Uiso   1.00
C373   C     0.74401   0.78634   0.00310   0.00000  Uiso   1.00
C374   C     0.91439   0.77851   0.37042   0.00000  Uiso   1.00
C375   C     0.82810   0.80784   0.43051   0.00000  Uiso   1.00
C376   C     0.85366   0.82399   0.01534   0.00000  Uiso   1.00
C377   C     0.91690   0.84375   0.49254   0.00000  Uiso   1.00
C378   C     0.93552   0.83863   0.44032   0.00000  Uiso   1.00
C379   C     0.89261   0.81298   0.41125   0.00000  Uiso   1.00
C380   C     0.83885   0.82263   0.06841   0.00000  Uiso   1.00
C381   C     0.94640   0.86087   0.07499   0.00000  Uiso   1.00
Cu382  Cu    0.77377   0.82772   0.24435   0.00000  Uiso   1.00
Cu383  Cu    0.89290   0.83895   0.25564   0.00000  Uiso   1.00
H384   H     0.98217   0.87511   0.09750   0.00000  Uiso   1.00
H385   H     0.98689   0.75351   0.48516   0.00000  Uiso   1.00
H386   H     0.90269   0.67965   0.25527   0.00000  Uiso   1.00
H387   H     0.76407   0.98698   0.24439   0.00000  Uiso   1.00
H388   H     0.67047   0.87278   0.28961   0.00000  Uiso   1.00
H389   H     0.99614   0.79380   0.21048   0.00000  Uiso   1.00
H390   H     0.98443   0.84929   0.42312   0.00000  Uiso   1.00
H391   H     0.67705   0.87865   0.00498   0.00000  Uiso   1.00
H392   H     0.79190   0.80724   0.08761   0.00000  Uiso   1.00
H393   H     0.68731   0.77019   0.39402   0.00000  Uiso   1.00
H394   H     0.72495   0.78119   0.04294   0.00000  Uiso   1.00
N395   N     0.98241   0.84741   0.26416   0.00000  Uiso   1.00
N396   N     0.68426   0.81926   0.23584   0.00000  Uiso   1.00
N397   N     0.93178   0.75051   0.33819   0.00000  Uiso   1.00
O398   O     0.79464   0.90474   0.24633   0.00000  Uiso   1.00
O399   O     0.89524   0.91422   0.25587   0.00000  Uiso   1.00
O400   O     0.75848   0.82627   0.31839   0.00000  Uiso   1.00
O401   O     0.85908   0.83575   0.32793   0.00000  Uiso   1.00
O402   O     0.77142   0.75245   0.24413   0.00000  Uiso   1.00
O403   O     0.87203   0.76193   0.25367   0.00000  Uiso   1.00
O404   O     0.80758   0.83092   0.17207   0.00000  Uiso   1.00
O405   O     0.90819   0.84040   0.18161   0.00000  Uiso   1.00
C406   C     0.18175   0.26668   0.75145   0.00000  Uiso   1.00
C407   C     0.11623   0.13650   0.89869   0.00000  Uiso   1.00
C408   C     0.19033   0.32263   0.75186   0.00000  Uiso   1.00
C409   C     0.13352   0.15549   0.84567   0.00000  Uiso   1.00
C410   C     0.14305   0.01069   0.74794   0.00000  Uiso   1.00
C411   C     0.15162   0.06664   0.74846   0.00000  Uiso   1.00
C412   C     0.19981   0.17039   0.65324   0.00000  Uiso   1.00
C413   C     0.29552   0.19669   0.52242   0.00000  Uiso   1.00
C414   C     0.21820   0.17328   0.59807   0.00000  Uiso   1.00
C415   C     0.05434   0.11357   0.91854   0.00000  Uiso   1.00
C416   C     0.03532   0.10401   0.97017   0.00000  Uiso   1.00
C417   C     0.14144   0.13975   0.98394   0.00000  Uiso   1.00
C418   C     0.07735   0.11967   0.50310   0.00000  Uiso   1.00
C419   C     0.24772   0.11184   0.87042   0.00000  Uiso   1.00
C420   C     0.16143   0.14117   0.93051   0.00000  Uiso   1.00
C421   C     0.18700   0.15733   0.51534   0.00000  Uiso   1.00
C422   C     0.25024   0.17708   0.99254   0.00000  Uiso   1.00
C423   C     0.26885   0.17196   0.94032   0.00000  Uiso   1.00
C424   C     0.22594   0.14632   0.91125   0.00000  Uiso   1.00
C425   C     0.17219   0.15597   0.56841   0.00000  Uiso   1.00
C426   C     0.27973   0.19420   0.57499   0.00000  Uiso   1.00
Cu427  Cu    0.10710   0.16105   0.74435   0.00000  Uiso   1.00
Cu428  Cu    0.22623   0.17228   0.75564   0.00000  Uiso   1.00
H429   H     0.31550   0.20844   0.59750   0.00000  Uiso   1.00
H430   H     0.32023   0.08684   0.98516   0.00000  Uiso   1.00
H431   H     0.23602   0.01298   0.75527   0.00000  Uiso   1.00
H432   H     0.09740   0.32031   0.74439   0.00000  Uiso   1.00
H433   H     0.00380   0.20611   0.78961   0.00000  Uiso   1.00
H434   H     0.32947   0.12713   0.71048   0.00000  Uiso   1.00
H435   H     0.31776   0.18262   0.92312   0.00000  Uiso   1.00
H436   H     0.01038   0.21198   0.50498   0.00000  Uiso   1.00
H437   H     0.12524   0.14057   0.58761   0.00000  Uiso   1.00
H438   H     0.02065   0.10352   0.89402   0.00000  Uiso   1.00
H439   H     0.05828   0.11453   0.54294   0.00000  Uiso   1.00
N440   N     0.31574   0.18074   0.76416   0.00000  Uiso   1.00
N441   N     0.01759   0.15259   0.73584   0.00000  Uiso   1.00
N442   N     0.26512   0.08384   0.83819   0.00000  Uiso   1.00
O443   O     0.12797   0.23807   0.74633   0.00000  Uiso   1.00
O444   O     0.22858   0.24755   0.75587   0.00000  Uiso   1.00
O445   O     0.09181   0.15960   0.81839   0.00000  Uiso   1.00
O446   O     0.19242   0.16908   0.82793   0.00000  Uiso   1.00
O447   O     0.10476   0.08578   0.74413   0.00000  Uiso   1.00
O448   O     0.20536   0.09526   0.75367   0.00000  Uiso   1.00
O449   O     0.14092   0.16425   0.67207   0.00000  Uiso   1.00
O450   O     0.24152   0.17373   0.68161   0.00000  Uiso   1.00
C451   C     0.51508   0.26668   0.75145   0.00000  Uiso   1.00
C452   C     0.44956   0.13650   0.89869   0.00000  Uiso   1.00
C453   C     0.52367   0.32263   0.75186   0.00000  Uiso   1.00
C454   C     0.46686   0.15549   0.84567   0.00000  Uiso   1.00
C455   C     0.47639   0.01069   0.74794   0.00000  Uiso   1.00
C456   C     0.48495   0.06664   0.74846   0.00000  Uiso   1.00
C457   C     0.53314   0.17039   0.65324   0.00000  Uiso   1.00
C458   C     0.62885   0.19669   0.52242   0.00000  Uiso   1.00
C459   C     0.55153   0.17328   0.59807   0.00000  Uiso   1.00
C460   C     0.38768   0.11357   0.91854   0.00000  Uiso   1.00
C461   C     0.36865   0.10401   0.97017   0.00000  Uiso   1.00
C462   C     0.47478   0.13975   0.98394   0.00000  Uiso   1.00
C463   C     0.41068   0.11967   0.50310   0.00000  Uiso   1.00
C464   C     0.58106   0.11184   0.87042   0.00000  Uiso   1.00
C465   C     0.49477   0.14117   0.93051   0.00000  Uiso   1.00
C466   C     0.52033   0.15733   0.51534   0.00000  Uiso   1.00
C467   C     0.58357   0.17708   0.99254   0.00000  Uiso   1.00
C468   C     0.60218   0.17196   0.94032   0.00000  Uiso   1.00
C469   C     0.55927   0.14632   0.91125   0.00000  Uiso   1.00
C470   C     0.50552   0.15597   0.56841   0.00000  Uiso   1.00
C471   C     0.61306   0.19420   0.57499   0.00000  Uiso   1.00
Cu472  Cu    0.44043   0.16105   0.74435   0.00000  Uiso   1.00
Cu473  Cu    0.55957   0.17228   0.75564   0.00000  Uiso   1.00
H474   H     0.64884   0.20844   0.59750   0.00000  Uiso   1.00
H475   H     0.65356   0.08684   0.98516   0.00000  Uiso   1.00
H476   H     0.56936   0.01298   0.75527   0.00000  Uiso   1.00
H477   H     0.43074   0.32031   0.74439   0.00000  Uiso   1.00
H478   H     0.33714   0.20611   0.78961   0.00000  Uiso   1.00
H479   H     0.66280   0.12713   0.71048   0.00000  Uiso   1.00
H480   H     0.65110   0.18262   0.92312   0.00000  Uiso   1.00
H481   H     0.34371   0.21198   0.50498   0.00000  Uiso   1.00
H482   H     0.45857   0.14057   0.58761   0.00000  Uiso   1.00
H483   H     0.35398   0.10352   0.89402   0.00000  Uiso   1.00
H484   H     0.39161   0.11453   0.54294   0.00000  Uiso   1.00
N485   N     0.64908   0.18074   0.76416   0.00000  Uiso   1.00
N486   N     0.35092   0.15259   0.73584   0.00000  Uiso   1.00
N487   N     0.59845   0.08384   0.83819   0.00000  Uiso   1.00
O488   O     0.46131   0.23807   0.74633   0.00000  Uiso   1.00
O489   O     0.56191   0.24755   0.75587   0.00000  Uiso   1.00
O490   O     0.42515   0.15960   0.81839   0.00000  Uiso   1.00
O491   O     0.52575   0.16908   0.82793   0.00000  Uiso   1.00
O492   O     0.43809   0.08578   0.74413   0.00000  Uiso   1.00
O493   O     0.53869   0.09526   0.75367   0.00000  Uiso   1.00
O494   O     0.47425   0.16425   0.67207   0.00000  Uiso   1.00
O495   O     0.57485   0.17373   0.68161   0.00000  Uiso   1.00
C496   C     0.84841   0.26668   0.75145   0.00000  Uiso   1.00
C497   C     0.78290   0.13650   0.89869   0.00000  Uiso   1.00
C498   C     0.85700   0.32263   0.75186   0.00000  Uiso   1.00
C499   C     0.80019   0.15549   0.84567   0.00000  Uiso   1.00
C500   C     0.80972   0.01069   0.74794   0.00000  Uiso   1.00
C501   C     0.81828   0.06664   0.74846   0.00000  Uiso   1.00
C502   C     0.86648   0.17039   0.65324   0.00000  Uiso   1.00
C503   C     0.96219   0.19669   0.52242   0.00000  Uiso   1.00
C504   C     0.88486   0.17328   0.59807   0.00000  Uiso   1.00
C505   C     0.72101   0.11357   0.91854   0.00000  Uiso   1.00
C506   C     0.70199   0.10401   0.97017   0.00000  Uiso   1.00
C507   C     0.80811   0.13975   0.98394   0.00000  Uiso   1.00
C508   C     0.74401   0.11967   0.50310   0.00000  Uiso   1.00
C509   C     0.91439   0.11184   0.87042   0.00000  Uiso   1.00
C510   C     0.82810   0.14117   0.93051   0.00000  Uiso   1.00
C511   C     0.85366   0.15733   0.51534   0.00000  Uiso   1.00
C512   C     0.91690   0.17708   0.99254   0.00000  Uiso   1.00
C513   C     0.93552   0.17196   0.94032   0.00000  Uiso   1.00
C514   C     0.89261   0.14632   0.91125   0.00000  Uiso   1.00
C515   C     0.83885   0.15597   0.56841   0.00000  Uiso   1.00
C516   C     0.94640   0.19420   0.57499   0.00000  Uiso   1.00
Cu517  Cu    0.77377   0.16105   0.74435   0.00000  Uiso   1.00
Cu518  Cu    0.89290   0.17228   0.75564   0.00000  Uiso   1.00
H519   H     0.98217   0.20844   0.59750   0.00000  Uiso   1.00
H520   H     0.98689   0.08684   0.98516   0.00000  Uiso   1.00
H521   H     0.90269   0.01298   0.75527   0.00000  Uiso   1.00
H522   H     0.76407   0.32031   0.74439   0.00000  Uiso   1.00
H523   H     0.67047   0.20611   0.78961   0.00000  Uiso   1.00
H524   H     0.99614   0.12713   0.71048   0.00000  Uiso   1.00
H525   H     0.98443   0.18262   0.92312   0.00000  Uiso   1.00
H526   H     0.67705   0.21198   0.50498   0.00000  Uiso   1.00
H527   H     0.79190   0.14057   0.58761   0.00000  Uiso   1.00
H528   H     0.68731   0.10352   0.89402   0.00000  Uiso   1.00
H529   H     0.72495   0.11453   0.54294   0.00000  Uiso   1.00
N530   N     0.98241   0.18074   0.76416   0.00000  Uiso   1.00
N531   N     0.68426   0.15259   0.73584   0.00000  Uiso   1.00
N532   N     0.93178   0.08384   0.83819   0.00000  Uiso   1.00
O533   O     0.79464   0.23807   0.74633   0.00000  Uiso   1.00
O534   O     0.89524   0.24755   0.75587   0.00000  Uiso   1.00
O535   O     0.75848   0.15960   0.81839   0.00000  Uiso   1.00
O536   O     0.85908   0.16908   0.82793   0.00000  Uiso   1.00
O537   O     0.77142   0.08578   0.74413   0.00000  Uiso   1.00
O538   O     0.87203   0.09526   0.75367   0.00000  Uiso   1.00
O539   O     0.80758   0.16425   0.67207   0.00000  Uiso   1.00
O540   O     0.90819   0.17373   0.68161   0.00000  Uiso   1.00
C541   C     0.18175   0.60001   0.75145   0.00000  Uiso   1.00
C542   C     0.11623   0.46983   0.89869   0.00000  Uiso   1.00
C543   C     0.19033   0.65596   0.75186   0.00000  Uiso   1.00
C544   C     0.13352   0.48883   0.84567   0.00000  Uiso   1.00
C545   C     0.14305   0.34402   0.74794   0.00000  Uiso   1.00
C546   C     0.15162   0.39998   0.74846   0.00000  Uiso   1.00
C547   C     0.19981   0.50372   0.65324   0.00000  Uiso   1.00
C548   C     0.29552   0.53003   0.52242   0.00000  Uiso   1.00
C549   C     0.21820   0.50661   0.59807   0.00000  Uiso   1.00
C550   C     0.05434   0.44691   0.91854   0.00000  Uiso   1.00
C551   C     0.03532   0.43734   0.97017   0.00000  Uiso   1.00
C552   C     0.14144   0.47309   0.98394   0.00000  Uiso   1.00
C553   C     0.07735   0.45300   0.50310   0.00000  Uiso   1.00
C554   C     0.24772   0.44518   0.87042   0.00000  Uiso   1.00
C555   C     0.16143   0.47450   0.93051   0.00000  Uiso   1.00
C556   C     0.18700   0.49066   0.51534   0.00000  Uiso   1.00
C557   C     0.25024   0.51042   0.99254   0.00000  Uiso   1.00
C558   C     0.26885   0.50529   0.94032   0.00000  Uiso   1.00
C559   C     0.22594   0.47965   0.91125   0.00000  Uiso   1.00
C560   C     0.17219   0.48930   0.56841   0.00000  Uiso   1.00
C561   C     0.27973   0.52754   0.57499   0.00000  Uiso   1.00
Cu562  Cu    0.10710   0.49439   0.74435   0.00000  Uiso   1.00
Cu563  Cu    0.22623   0.50561   0.75564   0.00000  Uiso   1.00
H564   H     0.31550   0.54178   0.59750   0.00000  Uiso   1.00
H565   H     0.32023   0.42018   0.98516   0.00000  Uiso   1.00
H566   H     0.23602   0.34631   0.75527   0.00000  Uiso   1.00
H567   H     0.09740   0.65365   0.74439   0.00000  Uiso   1.00
H568   H     0.00380   0.53944   0.78961   0.00000  Uiso   1.00
H569   H     0.32947   0.46046   0.71048   0.00000  Uiso   1.00
H570   H     0.31776   0.51596   0.92312   0.00000  Uiso   1.00
H571   H     0.01038   0.54532   0.50498   0.00000  Uiso   1.00
H572   H     0.12524   0.47390   0.58761   0.00000  Uiso   1.00
H573   H     0.02065   0.43686   0.89402   0.00000  Uiso   1.00
H574   H     0.05828   0.44786   0.54294   0.00000  Uiso   1.00
N575   N     0.31574   0.51407   0.76416   0.00000  Uiso   1.00
N576   N     0.01759   0.48593   0.73584   0.00000  Uiso   1.00
N577   N     0.26512   0.41717   0.83819   0.00000  Uiso   1.00
O578   O     0.12797   0.57141   0.74633   0.00000  Uiso   1.00
O579   O     0.22858   0.58089   0.75587   0.00000  Uiso   1.00
O580   O     0.09181   0.49293   0.81839   0.00000  Uiso   1.00
O581   O     0.19242   0.50241   0.82793   0.00000  Uiso   1.00
O582   O     0.10476   0.41911   0.74413   0.00000  Uiso   1.00
O583   O     0.20536   0.42859   0.75367   0.00000  Uiso   1.00
O584   O     0.14092   0.49759   0.67207   0.00000  Uiso   1.00
O585   O     0.24152   0.50707   0.68161   0.00000  Uiso   1.00
C586   C     0.51508   0.60001   0.75145   0.00000  Uiso   1.00
C587   C     0.44956   0.46983   0.89869   0.00000  Uiso   1.00
C588   C     0.52367   0.65596   0.75186   0.00000  Uiso   1.00
C589   C     0.46686   0.48883   0.84567   0.00000  Uiso   1.00
C590   C     0.47639   0.34402   0.74794   0.00000  Uiso   1.00
C591   C     0.48495   0.39998   0.74846   0.00000  Uiso   1.00
C592   C     0.53314   0.50372   0.65324   0.00000  Uiso   1.00
C593   C     0.62885   0.53003   0.52242   0.00000  Uiso   1.00
C594   C     0.55153   0.50661   0.59807   0.00000  Uiso   1.00
C595   C     0.38768   0.44691   0.91854   0.00000  Uiso   1.00
C596   C     0.36865   0.43734   0.97017   0.00000  Uiso   1.00
C597   C     0.47478   0.47309   0.98394   0.00000  Uiso   1.00
C598   C     0.41068   0.45300   0.50310   0.00000  Uiso   1.00
C599   C     0.58106   0.44518   0.87042   0.00000  Uiso   1.00
C600   C     0.49477   0.47450   0.93051   0.00000  Uiso   1.00
C601   C     0.52033   0.49066   0.51534   0.00000  Uiso   1.00
C602   C     0.58357   0.51042   0.99254   0.00000  Uiso   1.00
C603   C     0.60218   0.50529   0.94032   0.00000  Uiso   1.00
C604   C     0.55927   0.47965   0.91125   0.00000  Uiso   1.00
C605   C     0.50552   0.48930   0.56841   0.00000  Uiso   1.00
C606   C     0.61306   0.52754   0.57499   0.00000  Uiso   1.00
Cu607  Cu    0.44043   0.49439   0.74435   0.00000  Uiso   1.00
Cu608  Cu    0.55957   0.50561   0.75564   0.00000  Uiso   1.00
H609   H     0.64884   0.54178   0.59750   0.00000  Uiso   1.00
H610   H     0.65356   0.42018   0.98516   0.00000  Uiso   1.00
H611   H     0.56936   0.34631   0.75527   0.00000  Uiso   1.00
H612   H     0.43074   0.65365   0.74439   0.00000  Uiso   1.00
H613   H     0.33714   0.53944   0.78961   0.00000  Uiso   1.00
H614   H     0.66280   0.46046   0.71048   0.00000  Uiso   1.00
H615   H     0.65110   0.51596   0.92312   0.00000  Uiso   1.00
H616   H     0.34371   0.54532   0.50498   0.00000  Uiso   1.00
H617   H     0.45857   0.47390   0.58761   0.00000  Uiso   1.00
H618   H     0.35398   0.43686   0.89402   0.00000  Uiso   1.00
H619   H     0.39161   0.44786   0.54294   0.00000  Uiso   1.00
N620   N     0.64908   0.51407   0.76416   0.00000  Uiso   1.00
N621   N     0.35092   0.48593   0.73584   0.00000  Uiso   1.00
N622   N     0.59845   0.41717   0.83819   0.00000  Uiso   1.00
O623   O     0.46131   0.57141   0.74633   0.00000  Uiso   1.00
O624   O     0.56191   0.58089   0.75587   0.00000  Uiso   1.00
O625   O     0.42515   0.49293   0.81839   0.00000  Uiso   1.00
O626   O     0.52575   0.50241   0.82793   0.00000  Uiso   1.00
O627   O     0.43809   0.41911   0.74413   0.00000  Uiso   1.00
O628   O     0.53869   0.42859   0.75367   0.00000  Uiso   1.00
O629   O     0.47425   0.49759   0.67207   0.00000  Uiso   1.00
O630   O     0.57485   0.50707   0.68161   0.00000  Uiso   1.00
C631   C     0.84841   0.60001   0.75145   0.00000  Uiso   1.00
C632   C     0.78290   0.46983   0.89869   0.00000  Uiso   1.00
C633   C     0.85700   0.65596   0.75186   0.00000  Uiso   1.00
C634   C     0.80019   0.48883   0.84567   0.00000  Uiso   1.00
C635   C     0.80972   0.34402   0.74794   0.00000  Uiso   1.00
C636   C     0.81828   0.39998   0.74846   0.00000  Uiso   1.00
C637   C     0.86648   0.50372   0.65324   0.00000  Uiso   1.00
C638   C     0.96219   0.53003   0.52242   0.00000  Uiso   1.00
C639   C     0.88486   0.50661   0.59807   0.00000  Uiso   1.00
C640   C     0.72101   0.44691   0.91854   0.00000  Uiso   1.00
C641   C     0.70199   0.43734   0.97017   0.00000  Uiso   1.00
C642   C     0.80811   0.47309   0.98394   0.00000  Uiso   1.00
C643   C     0.74401   0.45300   0.50310   0.00000  Uiso   1.00
C644   C     0.91439   0.44518   0.87042   0.00000  Uiso   1.00
C645   C     0.82810   0.47450   0.93051   0.00000  Uiso   1.00
C646   C     0.85366   0.49066   0.51534   0.00000  Uiso   1.00
C647   C     0.91690   0.51042   0.99254   0.00000  Uiso   1.00
C648   C     0.93552   0.50529   0.94032   0.00000  Uiso   1.00
C649   C     0.89261   0.47965   0.91125   0.00000  Uiso   1.00
C650   C     0.83885   0.48930   0.56841   0.00000  Uiso   1.00
C651   C     0.94640   0.52754   0.57499   0.00000  Uiso   1.00
Cu652  Cu    0.77377   0.49439   0.74435   0.00000  Uiso   1.00
Cu653  Cu    0.89290   0.50561   0.75564   0.00000  Uiso   1.00
H654   H     0.98217   0.54178   0.59750   0.00000  Uiso   1.00
H655   H     0.98689   0.42018   0.98516   0.00000  Uiso   1.00
H656   H     0.90269   0.34631   0.75527   0.00000  Uiso   1.00
H657   H     0.76407   0.65365   0.74439   0.00000  Uiso   1.00
H658   H     0.67047   0.53944   0.78961   0.00000  Uiso   1.00
H659   H     0.99614   0.46046   0.71048   0.00000  Uiso   1.00
H660   H     0.98443   0.51596   0.92312   0.00000  Uiso   1.00
H661   H     0.67705   0.54532   0.50498   0.00000  Uiso   1.00
H662   H     0.79190   0.47390   0.58761   0.00000  Uiso   1.00
H663   H     0.68731   0.43686   0.89402   0.00000  Uiso   1.00
H664   H     0.72495   0.44786   0.54294   0.00000  Uiso   1.00
N665   N     0.98241   0.51407   0.76416   0.00000  Uiso   1.00
N666   N     0.68426   0.48593   0.73584   0.00000  Uiso   1.00
N667   N     0.93178   0.41717   0.83819   0.00000  Uiso   1.00
O668   O     0.79464   0.57141   0.74633   0.00000  Uiso   1.00
O669   O     0.89524   0.58089   0.75587   0.00000  Uiso   1.00
O670   O     0.75848   0.49293   0.81839   0.00000  Uiso   1.00
O671   O     0.85908   0.50241   0.82793   0.00000  Uiso   1.00
O672   O     0.77142   0.41911   0.74413   0.00000  Uiso   1.00
O673   O     0.87203   0.42859   0.75367   0.00000  Uiso   1.00
O674   O     0.80758   0.49759   0.67207   0.00000  Uiso   1.00
O675   O     0.90819   0.50707   0.68161   0.00000  Uiso   1.00
C676   C     0.18175   0.93335   0.75145   0.00000  Uiso   1.00
C677   C     0.11623   0.80316   0.89869   0.00000  Uiso   1.00
C678   C     0.19033   0.98929   0.75186   0.00000  Uiso   1.00
C679   C     0.13352   0.82216   0.84567   0.00000  Uiso   1.00
C680   C     0.14305   0.67736   0.74794   0.00000  Uiso   1.00
C681   C     0.15162   0.73331   0.74846   0.00000  Uiso   1.00
C682   C     0.19981   0.83706   0.65324   0.00000  Uiso   1.00
C683   C     0.29552   0.86336   0.52242   0.00000  Uiso   1.00
C684   C     0.21820   0.83995   0.59807   0.00000  Uiso   1.00
C685   C     0.05434   0.78024   0.91854   0.00000  Uiso   1.00
C686   C     0.03532   0.77068   0.97017   0.00000  Uiso   1.00
C687   C     0.14144   0.80642   0.98394   0.00000  Uiso   1.00
C688   C     0.07735   0.78634   0.50310   0.00000  Uiso   1.00
C689   C     0.24772   0.77851   0.87042   0.00000  Uiso   1.00
C690   C     0.16143   0.80784   0.93051   0.00000  Uiso   1.00
C691   C     0.18700   0.82399   0.51534   0.00000  Uiso   1.00
C692   C     0.25024   0.84375   0.99254   0.00000  Uiso   1.00
C693   C     0.26885   0.83863   0.94032   0.00000  Uiso   1.00
C694   C     0.22594   0.81298   0.91125   0.00000  Uiso   1.00
C695   C     0.17219   0.82263   0.56841   0.00000  Uiso   1.00
C696   C     0.27973   0.86087   0.57499   0.00000  Uiso   1.00
Cu697  Cu    0.10710   0.82772   0.74435   0.00000  Uiso   1.00
Cu698  Cu    0.22623   0.83895   0.75564   0.00000  Uiso   1.00
H699   H     0.31550   0.87511   0.59750   0.00000  Uiso   1.00
H700   H     0.32023   0.75351   0.98516   0.00000  Uiso   1.00
H701   H     0.23602   0.67965   0.75527   0.00000  Uiso   1.00
H702   H     0.09740   0.98698   0.74439   0.00000  Uiso   1.00
H703   H     0.00380   0.87278   0.78961   0.00000  Uiso   1.00
H704   H     0.32947   0.79380   0.71048   0.00000  Uiso   1.00
H705   H     0.31776   0.84929   0.92312   0.00000  Uiso   1.00
H706   H     0.01038   0.87865   0.50498   0.00000  Uiso   1.00
H707   H     0.12524   0.80724   0.58761   0.00000  Uiso   1.00
H708   H     0.02065   0.77019   0.89402   0.00000  Uiso   1.00
H709   H     0.05828   0.78119   0.54294   0.00000  Uiso   1.00
N710   N     0.31574   0.84741   0.76416   0.00000  Uiso   1.00
N711   N     0.01759   0.81926   0.73584   0.00000  Uiso   1.00
N712   N     0.26512   0.75051   0.83819   0.00000  Uiso   1.00
O713   O     0.12797   0.90474   0.74633   0.00000  Uiso   1.00
O714   O     0.22858   0.91422   0.75587   0.00000  Uiso   1.00
O715   O     0.09181   0.82627   0.81839   0.00000  Uiso   1.00
O716   O     0.19242   0.83575   0.82793   0.00000  Uiso   1.00
O717   O     0.10476   0.75245   0.74413   0.00000  Uiso   1.00
O718   O     0.20536   0.76193   0.75367   0.00000  Uiso   1.00
O719   O     0.14092   0.83092   0.67207   0.00000  Uiso   1.00
O720   O     0.24152   0.84040   0.68161   0.00000  Uiso   1.00
C721   C     0.51508   0.93335   0.75145   0.00000  Uiso   1.00
C722   C     0.44956   0.80316   0.89869   0.00000  Uiso   1.00
C723   C     0.52367   0.98929   0.75186   0.00000  Uiso   1.00
C724   C     0.46686   0.82216   0.84567   0.00000  Uiso   1.00
C725   C     0.47639   0.67736   0.74794   0.00000  Uiso   1.00
C726   C     0.48495   0.73331   0.74846   0.00000  Uiso   1.00
C727   C     0.53314   0.83706   0.65324   0.00000  Uiso   1.00
C728   C     0.62885   0.86336   0.52242   0.00000  Uiso   1.00
C729   C     0.55153   0.83995   0.59807   0.00000  Uiso   1.00
C730   C     0.38768   0.78024   0.91854   0.00000  Uiso   1.00
C731   C     0.36865   0.77068   0.97017   0.00000  Uiso   1.00
C732   C     0.47478   0.80642   0.98394   0.00000  Uiso   1.00
C733   C     0.41068   0.78634   0.50310   0.00000  Uiso   1.00
C734   C     0.58106   0.77851   0.87042   0.00000  Uiso   1.00
C735   C     0.49477   0.80784   0.93051   0.00000  Uiso   1.00
C736   C     0.52033   0.82399   0.51534   0.00000  Uiso   1.00
C737   C     0.58357   0.84375   0.99254   0.00000  Uiso   1.00
C738   C     0.60218   0.83863   0.94032   0.00000  Uiso   1.00
C739   C     0.55927   0.81298   0.91125   0.00000  Uiso   1.00
C740   C     0.50552   0.82263   0.56841   0.00000  Uiso   1.00
C741   C     0.61306   0.86087   0.57499   0.00000  Uiso   1.00
Cu742  Cu    0.44043   0.82772   0.74435   0.00000  Uiso   1.00
Cu743  Cu    0.55957   0.83895   0.75564   0.00000  Uiso   1.00
H744   H     0.64884   0.87511   0.59750   0.00000  Uiso   1.00
H745   H     0.65356   0.75351   0.98516   0.00000  Uiso   1.00
H746   H     0.56936   0.67965   0.75527   0.00000  Uiso   1.00
H747   H     0.43074   0.98698   0.74439   0.00000  Uiso   1.00
H748   H     0.33714   0.87278   0.78961   0.00000  Uiso   1.00
H749   H     0.66280   0.79380   0.71048   0.00000  Uiso   1.00
H750   H     0.65110   0.84929   0.92312   0.00000  Uiso   1.00
H751   H     0.34371   0.87865   0.50498   0.00000  Uiso   1.00
H752   H     0.45857   0.80724   0.58761   0.00000  Uiso   1.00
H753   H     0.35398   0.77019   0.89402   0.00000  Uiso   1.00
H754   H     0.39161   0.78119   0.54294   0.00000  Uiso   1.00
N755   N     0.64908   0.84741   0.76416   0.00000  Uiso   1.00
N756   N     0.35092   0.81926   0.73584   0.00000  Uiso   1.00
N757   N     0.59845   0.75051   0.83819   0.00000  Uiso   1.00
O758   O     0.46131   0.90474   0.74633   0.00000  Uiso   1.00
O759   O     0.56191   0.91422   0.75587   0.00000  Uiso   1.00
O760   O     0.42515   0.82627   0.81839   0.00000  Uiso   1.00
O761   O     0.52575   0.83575   0.82793   0.00000  Uiso   1.00
O762   O     0.43809   0.75245   0.74413   0.00000  Uiso   1.00
O763   O     0.53869   0.76193   0.75367   0.00000  Uiso   1.00
O764   O     0.47425   0.83092   0.67207   0.00000  Uiso   1.00
O765   O     0.57485   0.84040   0.68161   0.00000  Uiso   1.00
C766   C     0.84841   0.93335   0.75145   0.00000  Uiso   1.00
C767   C     0.78290   0.80316   0.89869   0.00000  Uiso   1.00
C768   C     0.85700   0.98929   0.75186   0.00000  Uiso   1.00
C769   C     0.80019   0.82216   0.84567   0.00000  Uiso   1.00
C770   C     0.80972   0.67736   0.74794   0.00000  Uiso   1.00
C771   C     0.81828   0.73331   0.74846   0.00000  Uiso   1.00
C772   C     0.86648   0.83706   0.65324   0.00000  Uiso   1.00
C773   C     0.96219   0.86336   0.52242   0.00000  Uiso   1.00
C774   C     0.88486   0.83995   0.59807   0.00000  Uiso   1.00
C775   C     0.72101   0.78024   0.91854   0.00000  Uiso   1.00
C776   C     0.70199   0.77068   0.97017   0.00000  Uiso   1.00
C777   C     0.80811   0.80642   0.98394   0.00000  Uiso   1.00
C778   C     0.74401   0.78634   0.50310   0.00000  Uiso   1.00
C779   C     0.91439   0.77851   0.87042   0.00000  Uiso   1.00
C780   C     0.82810   0.80784   0.93051   0.00000  Uiso   1.00
C781   C     0.85366   0.82399   0.51534   0.00000  Uiso   1.00
C782   C     0.91690   0.84375   0.99254   0.00000  Uiso   1.00
C783   C     0.93552   0.83863   0.94032   0.00000  Uiso   1.00
C784   C     0.89261   0.81298   0.91125   0.00000  Uiso   1.00
C785   C     0.83885   0.82263   0.56841   0.00000  Uiso   1.00
C786   C     0.94640   0.86087   0.57499   0.00000  Uiso   1.00
Cu787  Cu    0.77377   0.82772   0.74435   0.00000  Uiso   1.00
Cu788  Cu    0.89290   0.83895   0.75564   0.00000  Uiso   1.00
H789   H     0.98217   0.87511   0.59750   0.00000  Uiso   1.00
H790   H     0.98689   0.75351   0.98516   0.00000  Uiso   1.00
H791   H     0.90269   0.67965   0.75527   0.00000  Uiso   1.00
H792   H     0.76407   0.98698   0.74439   0.00000  Uiso   1.00
H793   H     0.67047   0.87278   0.78961   0.00000  Uiso   1.00
H794   H     0.99614   0.79380   0.71048   0.00000  Uiso   1.00
H795   H     0.98443   0.84929   0.92312   0.00000  Uiso   1.00
H796   H     0.67705   0.87865   0.50498   0.00000  Uiso   1.00
H797   H     0.79190   0.80724   0.58761   0.00000  Uiso   1.00
H798   H     0.68731   0.77019   0.89402   0.00000  Uiso   1.00
H799   H     0.72495   0.78119   0.54294   0.00000  Uiso   1.00
N800   N     0.98241   0.84741   0.76416   0.00000  Uiso   1.00
N801   N     0.68426   0.81926   0.73584   0.00000  Uiso   1.00
N802   N     0.93178   0.75051   0.83819   0.00000  Uiso   1.00
O803   O     0.79464   0.90474   0.74633   0.00000  Uiso   1.00
O804   O     0.89524   0.91422   0.75587   0.00000  Uiso   1.00
O805   O     0.75848   0.82627   0.81839   0.00000  Uiso   1.00
O806   O     0.85908   0.83575   0.82793   0.00000  Uiso   1.00
O807   O     0.77142   0.75245   0.74413   0.00000  Uiso   1.00
O808   O     0.87203   0.76193   0.75367   0.00000  Uiso   1.00
O809   O     0.80758   0.83092   0.67207   0.00000  Uiso   1.00
O810   O     0.90819   0.84040   0.68161   0.00000  Uiso   1.00
loop_
_geom_bond_atom_site_label_1
_geom_bond_atom_site_label_2
_geom_bond_distance
_geom_bond_site_symmetry_2
_ccdc_geom_bond_type
C1     O38     1.294   .     A
C1     O39     1.287   .     A
C1     C3      1.427   .     S
C2     C4      1.490   .     S
C2     C15     1.430   .     A
C2     C10     1.393   .     A
C3     C140    1.327   .     S
C3     H161    1.087   .     S
C4     O41     1.287   .     A
C4     O40     1.323   .     A
C5     C6      1.427   .     S
C5     C273    1.327   1_545 S
C5     H297    1.088   1_545 S
C6     O43     1.294   .     A
C6     O42     1.287   .     A
C7     O44     1.293   .     A
C7     O45     1.303   .     A
C7     C9      1.460   .     S
C8     C21     1.389   .     A
C8     C422    1.403   1_554 S
C8     H76     1.084   .     S
C9     C20     1.403   .     A
C9     C21     1.397   .     A
C10    C11     1.391   .     A
C10    H33     1.076   .     S
C11    C418    1.394   .     S
C11    H115    1.083   1_455 S
C12    C15     1.417   .     A
C12    C418    1.416   .     S
C12    C421    1.429   .     S
C13    H34     1.077   .     S
C13    C417    1.416   1_554 S
C13    C416    1.394   1_554 S
C14    N37     1.157   .     T
C14    C19     1.447   .     S
C15    C19     1.414   .     A
C16    C20     1.399   .     A
C16    C417    1.429   1_554 S
C16    C422    1.421   1_554 S
C17    C18     1.388   .     A
C17    C421    1.421   .     S
C17    C413    1.403   .     S
C18    H30     1.082   .     S
C18    C19     1.385   .     A
C20    H32     1.076   .     S
C21    H24     1.083   .     S
Cu22   N36     2.024   .     S
Cu22   O40     1.952   .     S
Cu22   O42     1.951   .     S
Cu22   O38     1.956   .     S
Cu22   Cu23    2.694   .     S
Cu22   O44     1.940   .     S
Cu23   O41     1.940   .     S
Cu23   O45     1.952   .     S
Cu23   N35     2.024   .     S
Cu23   O39     1.951   .     S
Cu23   O43     1.956   .     S
H25    C56     1.083   .     S
H26    C273    1.087   1_545 S
H27    C140    1.088   .     S
H28    N125    1.029   1_455 S
H29    N81     1.029   .     S
H31    C98     1.084   1_455 S
N35    H73     1.029   .     S
N35    N81     1.296   .     S
N36    N125    1.296   1_455 S
N36    H119    1.029   1_455 S
C46    O83     1.294   .     A
C46    O84     1.287   .     A
C46    C48     1.427   .     S
C47    C49     1.490   .     S
C47    C60     1.430   .     A
C47    C55     1.393   .     A
C48    C185    1.327   .     S
C48    H206    1.087   .     S
C49    O86     1.287   .     A
C49    O85     1.323   .     A
C50    C51     1.427   .     S
C50    C318    1.327   1_545 S
C50    H342    1.088   1_545 S
C51    O88     1.294   .     A
C51    O87     1.287   .     A
C52    O89     1.293   .     A
C52    O90     1.303   .     A
C52    C54     1.460   .     S
C53    C66     1.389   .     A
C53    C467    1.403   1_554 S
C53    H121    1.084   .     S
C54    C65     1.403   .     A
C54    C66     1.397   .     A
C55    C56     1.391   .     A
C55    H78     1.076   .     S
C56    C463    1.394   .     S
C57    C60     1.417   .     A
C57    C463    1.416   .     S
C57    C466    1.429   .     S
C58    H79     1.077   .     S
C58    C462    1.416   1_554 S
C58    C461    1.394   1_554 S
C59    N82     1.157   .     T
C59    C64     1.447   .     S
C60    C64     1.414   .     A
C61    C65     1.399   .     A
C61    C462    1.429   1_554 S
C61    C467    1.421   1_554 S
C62    C63     1.388   .     A
C62    C466    1.421   .     S
C62    C458    1.403   .     S
C63    H75     1.082   .     S
C63    C64     1.385   .     A
C65    H77     1.076   .     S
C66    H69     1.083   .     S
Cu67   N81     2.024   .     S
Cu67   O85     1.952   .     S
Cu67   O87     1.951   .     S
Cu67   O83     1.956   .     S
Cu67   Cu68    2.694   .     S
Cu67   O89     1.940   .     S
Cu68   O86     1.940   .     S
Cu68   O90     1.952   .     S
Cu68   N80     2.024   .     S
Cu68   O84     1.951   .     S
Cu68   O88     1.956   .     S
H70    C101    1.083   .     S
H71    C318    1.087   1_545 S
H72    C185    1.088   .     S
H74    N126    1.029   .     S
N80    H118    1.029   .     S
N80    N126    1.296   .     S
C91    O128    1.294   .     A
C91    O129    1.287   .     A
C91    C93     1.427   .     S
C92    C94     1.490   .     S
C92    C105    1.430   .     A
C92    C100    1.393   .     A
C93    C230    1.327   .     S
C93    H251    1.087   .     S
C94    O131    1.287   .     A
C94    O130    1.323   .     A
C95    C96     1.427   .     S
C95    C363    1.327   1_545 S
C95    H387    1.088   1_545 S
C96    O133    1.294   .     A
C96    O132    1.287   .     A
C97    O134    1.293   .     A
C97    O135    1.303   .     A
C97    C99     1.460   .     S
C98    C111    1.389   .     A
C98    C512    1.403   1_554 S
C98    H31     1.084   1_655 S
C99    C110    1.403   .     A
C99    C111    1.397   .     A
C100   C101    1.391   .     A
C100   H123    1.076   .     S
C101   C508    1.394   .     S
C102   C105    1.417   .     A
C102   C508    1.416   .     S
C102   C511    1.429   .     S
C103   H124    1.077   .     S
C103   C507    1.416   1_554 S
C103   C506    1.394   1_554 S
C104   N127    1.157   .     T
C104   C109    1.447   .     S
C105   C109    1.414   .     A
C106   C110    1.399   .     A
C106   C507    1.429   1_554 S
C106   C512    1.421   1_554 S
C107   C108    1.388   .     A
C107   C511    1.421   .     S
C107   C503    1.403   .     S
C108   H120    1.082   .     S
C108   C109    1.385   .     A
C110   H122    1.076   .     S
C111   H114    1.083   .     S
Cu112  N126    2.024   .     S
Cu112  O130    1.952   .     S
Cu112  O132    1.951   .     S
Cu112  O128    1.956   .     S
Cu112  Cu113   2.694   .     S
Cu112  O134    1.940   .     S
Cu113  O131    1.940   .     S
Cu113  O135    1.952   .     S
Cu113  N125    2.024   .     S
Cu113  O129    1.951   .     S
Cu113  O133    1.956   .     S
H115   C11     1.083   1_655 S
H116   C363    1.087   1_545 S
H117   C230    1.088   .     S
H119   N36     1.029   1_655 S
N125   H28     1.029   1_655 S
N125   N36     1.296   1_655 S
C136   O173    1.294   .     A
C136   O174    1.287   .     A
C136   C138    1.427   .     S
C137   C139    1.490   .     S
C137   C150    1.430   .     A
C137   C145    1.393   .     A
C138   C275    1.327   .     S
C138   H296    1.087   .     S
C139   O176    1.287   .     A
C139   O175    1.323   .     A
C140   C141    1.427   .     S
C141   O178    1.294   .     A
C141   O177    1.287   .     A
C142   O179    1.293   .     A
C142   O180    1.303   .     A
C142   C144    1.460   .     S
C143   C156    1.389   .     A
C143   C557    1.403   1_554 S
C143   H211    1.084   .     S
C144   C155    1.403   .     A
C144   C156    1.397   .     A
C145   C146    1.391   .     A
C145   H168    1.076   .     S
C146   C553    1.394   .     S
C146   H250    1.083   1_455 S
C147   C150    1.417   .     A
C147   C553    1.416   .     S
C147   C556    1.429   .     S
C148   H169    1.077   .     S
C148   C552    1.416   1_554 S
C148   C551    1.394   1_554 S
C149   N172    1.157   .     T
C149   C154    1.447   .     S
C150   C154    1.414   .     A
C151   C155    1.399   .     A
C151   C552    1.429   1_554 S
C151   C557    1.421   1_554 S
C152   C153    1.388   .     A
C152   C556    1.421   .     S
C152   C548    1.403   .     S
C153   H165    1.082   .     S
C153   C154    1.385   .     A
C155   H167    1.076   .     S
C156   H159    1.083   .     S
Cu157  N171    2.024   .     S
Cu157  O175    1.952   .     S
Cu157  O177    1.951   .     S
Cu157  O173    1.956   .     S
Cu157  Cu158   2.694   .     S
Cu157  O179    1.940   .     S
Cu158  O176    1.940   .     S
Cu158  O180    1.952   .     S
Cu158  N170    2.024   .     S
Cu158  O174    1.951   .     S
Cu158  O178    1.956   .     S
H160   C191    1.083   .     S
H162   C275    1.088   .     S
H163   N260    1.029   1_455 S
H164   N216    1.029   .     S
H166   C233    1.084   1_455 S
N170   H208    1.029   .     S
N170   N216    1.296   .     S
N171   N260    1.296   1_455 S
N171   H254    1.029   1_455 S
C181   O218    1.294   .     A
C181   O219    1.287   .     A
C181   C183    1.427   .     S
C182   C184    1.490   .     S
C182   C195    1.430   .     A
C182   C190    1.393   .     A
C183   C320    1.327   .     S
C183   H341    1.087   .     S
C184   O221    1.287   .     A
C184   O220    1.323   .     A
C185   C186    1.427   .     S
C186   O223    1.294   .     A
C186   O222    1.287   .     A
C187   O224    1.293   .     A
C187   O225    1.303   .     A
C187   C189    1.460   .     S
C188   C201    1.389   .     A
C188   C602    1.403   1_554 S
C188   H256    1.084   .     S
C189   C200    1.403   .     A
C189   C201    1.397   .     A
C190   C191    1.391   .     A
C190   H213    1.076   .     S
C191   C598    1.394   .     S
C192   C195    1.417   .     A
C192   C598    1.416   .     S
C192   C601    1.429   .     S
C193   H214    1.077   .     S
C193   C597    1.416   1_554 S
C193   C596    1.394   1_554 S
C194   N217    1.157   .     T
C194   C199    1.447   .     S
C195   C199    1.414   .     A
C196   C200    1.399   .     A
C196   C597    1.429   1_554 S
C196   C602    1.421   1_554 S
C197   C198    1.388   .     A
C197   C601    1.421   .     S
C197   C593    1.403   .     S
C198   H210    1.082   .     S
C198   C199    1.385   .     A
C200   H212    1.076   .     S
C201   H204    1.083   .     S
Cu202  N216    2.024   .     S
Cu202  O220    1.952   .     S
Cu202  O222    1.951   .     S
Cu202  O218    1.956   .     S
Cu202  Cu203   2.694   .     S
Cu202  O224    1.940   .     S
Cu203  O221    1.940   .     S
Cu203  O225    1.952   .     S
Cu203  N215    2.024   .     S
Cu203  O219    1.951   .     S
Cu203  O223    1.956   .     S
H205   C236    1.083   .     S
H207   C320    1.088   .     S
H209   N261    1.029   .     S
N215   H253    1.029   .     S
N215   N261    1.296   .     S
C226   O263    1.294   .     A
C226   O264    1.287   .     A
C226   C228    1.427   .     S
C227   C229    1.490   .     S
C227   C240    1.430   .     A
C227   C235    1.393   .     A
C228   C365    1.327   .     S
C228   H386    1.087   .     S
C229   O266    1.287   .     A
C229   O265    1.323   .     A
C230   C231    1.427   .     S
C231   O268    1.294   .     A
C231   O267    1.287   .     A
C232   O269    1.293   .     A
C232   O270    1.303   .     A
C232   C234    1.460   .     S
C233   C246    1.389   .     A
C233   C647    1.403   1_554 S
C233   H166    1.084   1_655 S
C234   C245    1.403   .     A
C234   C246    1.397   .     A
C235   C236    1.391   .     A
C235   H258    1.076   .     S
C236   C643    1.394   .     S
C237   C240    1.417   .     A
C237   C643    1.416   .     S
C237   C646    1.429   .     S
C238   H259    1.077   .     S
C238   C642    1.416   1_554 S
C238   C641    1.394   1_554 S
C239   N262    1.157   .     T
C239   C244    1.447   .     S
C240   C244    1.414   .     A
C241   C245    1.399   .     A
C241   C642    1.429   1_554 S
C241   C647    1.421   1_554 S
C242   C243    1.388   .     A
C242   C646    1.421   .     S
C242   C638    1.403   .     S
C243   H255    1.082   .     S
C243   C244    1.385   .     A
C245   H257    1.076   .     S
C246   H249    1.083   .     S
Cu247  N261    2.024   .     S
Cu247  O265    1.952   .     S
Cu247  O267    1.951   .     S
Cu247  O263    1.956   .     S
Cu247  Cu248   2.694   .     S
Cu247  O269    1.940   .     S
Cu248  O266    1.940   .     S
Cu248  O270    1.952   .     S
Cu248  N260    2.024   .     S
Cu248  O264    1.951   .     S
Cu248  O268    1.956   .     S
H250   C146    1.083   1_655 S
H252   C365    1.088   .     S
H254   N171    1.029   1_655 S
N260   H163    1.029   1_655 S
N260   N171    1.296   1_655 S
C271   O308    1.294   .     A
C271   O309    1.287   .     A
C271   C273    1.427   .     S
C272   C274    1.490   .     S
C272   C285    1.430   .     A
C272   C280    1.393   .     A
C273   C5      1.327   1_565 S
C273   H26     1.087   1_565 S
C274   O311    1.287   .     A
C274   O310    1.323   .     A
C275   C276    1.427   .     S
C276   O313    1.294   .     A
C276   O312    1.287   .     A
C277   O314    1.293   .     A
C277   O315    1.303   .     A
C277   C279    1.460   .     S
C278   C291    1.389   .     A
C278   C692    1.403   1_554 S
C278   H346    1.084   .     S
C279   C290    1.403   .     A
C279   C291    1.397   .     A
C280   C281    1.391   .     A
C280   H303    1.076   .     S
C281   C688    1.394   .     S
C281   H385    1.083   1_455 S
C282   C285    1.417   .     A
C282   C688    1.416   .     S
C282   C691    1.429   .     S
C283   H304    1.077   .     S
C283   C687    1.416   1_554 S
C283   C686    1.394   1_554 S
C284   N307    1.157   .     T
C284   C289    1.447   .     S
C285   C289    1.414   .     A
C286   C290    1.399   .     A
C286   C687    1.429   1_554 S
C286   C692    1.421   1_554 S
C287   C288    1.388   .     A
C287   C691    1.421   .     S
C287   C683    1.403   .     S
C288   H300    1.082   .     S
C288   C289    1.385   .     A
C290   H302    1.076   .     S
C291   H294    1.083   .     S
Cu292  N306    2.024   .     S
Cu292  O310    1.952   .     S
Cu292  O312    1.951   .     S
Cu292  O308    1.956   .     S
Cu292  Cu293   2.694   .     S
Cu292  O314    1.940   .     S
Cu293  O311    1.940   .     S
Cu293  O315    1.952   .     S
Cu293  N305    2.024   .     S
Cu293  O309    1.951   .     S
Cu293  O313    1.956   .     S
H295   C326    1.083   .     S
H297   C5      1.088   1_565 S
H298   N395    1.029   1_455 S
H299   N351    1.029   .     S
H301   C368    1.084   1_455 S
N305   H343    1.029   .     S
N305   N351    1.296   .     S
N306   N395    1.296   1_455 S
N306   H389    1.029   1_455 S
C316   O353    1.294   .     A
C316   O354    1.287   .     A
C316   C318    1.427   .     S
C317   C319    1.490   .     S
C317   C330    1.430   .     A
C317   C325    1.393   .     A
C318   C50     1.327   1_565 S
C318   H71     1.087   1_565 S
C319   O356    1.287   .     A
C319   O355    1.323   .     A
C320   C321    1.427   .     S
C321   O358    1.294   .     A
C321   O357    1.287   .     A
C322   O359    1.293   .     A
C322   O360    1.303   .     A
C322   C324    1.460   .     S
C323   C336    1.389   .     A
C323   C737    1.403   1_554 S
C323   H391    1.084   .     S
C324   C335    1.403   .     A
C324   C336    1.397   .     A
C325   C326    1.391   .     A
C325   H348    1.076   .     S
C326   C733    1.394   .     S
C327   C330    1.417   .     A
C327   C733    1.416   .     S
C327   C736    1.429   .     S
C328   H349    1.077   .     S
C328   C732    1.416   1_554 S
C328   C731    1.394   1_554 S
C329   N352    1.157   .     T
C329   C334    1.447   .     S
C330   C334    1.414   .     A
C331   C335    1.399   .     A
C331   C732    1.429   1_554 S
C331   C737    1.421   1_554 S
C332   C333    1.388   .     A
C332   C736    1.421   .     S
C332   C728    1.403   .     S
C333   H345    1.082   .     S
C333   C334    1.385   .     A
C335   H347    1.076   .     S
C336   H339    1.083   .     S
Cu337  N351    2.024   .     S
Cu337  O355    1.952   .     S
Cu337  O357    1.951   .     S
Cu337  O353    1.956   .     S
Cu337  Cu338   2.694   .     S
Cu337  O359    1.940   .     S
Cu338  O356    1.940   .     S
Cu338  O360    1.952   .     S
Cu338  N350    2.024   .     S
Cu338  O354    1.951   .     S
Cu338  O358    1.956   .     S
H340   C371    1.083   .     S
H342   C50     1.088   1_565 S
H344   N396    1.029   .     S
N350   H388    1.029   .     S
N350   N396    1.296   .     S
C361   O398    1.294   .     A
C361   O399    1.287   .     A
C361   C363    1.427   .     S
C362   C364    1.490   .     S
C362   C375    1.430   .     A
C362   C370    1.393   .     A
C363   C95     1.327   1_565 S
C363   H116    1.087   1_565 S
C364   O401    1.287   .     A
C364   O400    1.323   .     A
C365   C366    1.427   .     S
C366   O403    1.294   .     A
C366   O402    1.287   .     A
C367   O404    1.293   .     A
C367   O405    1.303   .     A
C367   C369    1.460   .     S
C368   C381    1.389   .     A
C368   C782    1.403   1_554 S
C368   H301    1.084   1_655 S
C369   C380    1.403   .     A
C369   C381    1.397   .     A
C370   C371    1.391   .     A
C370   H393    1.076   .     S
C371   C778    1.394   .     S
C372   C375    1.417   .     A
C372   C778    1.416   .     S
C372   C781    1.429   .     S
C373   H394    1.077   .     S
C373   C777    1.416   1_554 S
C373   C776    1.394   1_554 S
C374   N397    1.157   .     T
C374   C379    1.447   .     S
C375   C379    1.414   .     A
C376   C380    1.399   .     A
C376   C777    1.429   1_554 S
C376   C782    1.421   1_554 S
C377   C378    1.388   .     A
C377   C781    1.421   .     S
C377   C773    1.403   .     S
C378   H390    1.082   .     S
C378   C379    1.385   .     A
C380   H392    1.076   .     S
C381   H384    1.083   .     S
Cu382  N396    2.024   .     S
Cu382  O400    1.952   .     S
Cu382  O402    1.951   .     S
Cu382  O398    1.956   .     S
Cu382  Cu383   2.694   .     S
Cu382  O404    1.940   .     S
Cu383  O401    1.940   .     S
Cu383  O405    1.952   .     S
Cu383  N395    2.024   .     S
Cu383  O399    1.951   .     S
Cu383  O403    1.956   .     S
H385   C281    1.083   1_655 S
H387   C95     1.088   1_565 S
H389   N306    1.029   1_655 S
N395   H298    1.029   1_655 S
N395   N306    1.296   1_655 S
C406   O443    1.294   .     A
C406   O444    1.287   .     A
C406   C408    1.427   .     S
C407   C409    1.490   .     S
C407   C420    1.430   .     A
C407   C415    1.393   .     A
C408   C545    1.327   .     S
C408   H566    1.087   .     S
C409   O446    1.287   .     A
C409   O445    1.323   .     A
C410   C411    1.427   .     S
C410   C678    1.327   1_545 S
C410   H702    1.088   1_545 S
C411   O448    1.294   .     A
C411   O447    1.287   .     A
C412   O449    1.293   .     A
C412   O450    1.303   .     A
C412   C414    1.460   .     S
C413   C426    1.389   .     A
C413   H481    1.084   .     S
C414   C425    1.403   .     A
C414   C426    1.397   .     A
C415   C416    1.391   .     A
C415   H438    1.076   .     S
C416   C13     1.394   1_556 S
C416   H520    1.083   1_455 S
C417   C420    1.417   .     A
C417   C13     1.416   1_556 S
C417   C16     1.429   1_556 S
C418   H439    1.077   .     S
C419   N442    1.157   .     T
C419   C424    1.447   .     S
C420   C424    1.414   .     A
C421   C425    1.399   .     A
C422   C423    1.388   .     A
C422   C16     1.421   1_556 S
C422   C8      1.403   1_556 S
C423   H435    1.082   .     S
C423   C424    1.385   .     A
C425   H437    1.076   .     S
C426   H429    1.083   .     S
Cu427  N441    2.024   .     S
Cu427  O445    1.952   .     S
Cu427  O447    1.951   .     S
Cu427  O443    1.956   .     S
Cu427  Cu428   2.694   .     S
Cu427  O449    1.940   .     S
Cu428  O446    1.940   .     S
Cu428  O450    1.952   .     S
Cu428  N440    2.024   .     S
Cu428  O444    1.951   .     S
Cu428  O448    1.956   .     S
H430   C461    1.083   .     S
H431   C678    1.087   1_545 S
H432   C545    1.088   .     S
H433   N530    1.029   1_455 S
H434   N486    1.029   .     S
H436   C503    1.084   1_455 S
N440   H478    1.029   .     S
N440   N486    1.296   .     S
N441   N530    1.296   1_455 S
N441   H524    1.029   1_455 S
C451   O488    1.294   .     A
C451   O489    1.287   .     A
C451   C453    1.427   .     S
C452   C454    1.490   .     S
C452   C465    1.430   .     A
C452   C460    1.393   .     A
C453   C590    1.327   .     S
C453   H611    1.087   .     S
C454   O491    1.287   .     A
C454   O490    1.323   .     A
C455   C456    1.427   .     S
C455   C723    1.327   1_545 S
C455   H747    1.088   1_545 S
C456   O493    1.294   .     A
C456   O492    1.287   .     A
C457   O494    1.293   .     A
C457   O495    1.303   .     A
C457   C459    1.460   .     S
C458   C471    1.389   .     A
C458   H526    1.084   .     S
C459   C470    1.403   .     A
C459   C471    1.397   .     A
C460   C461    1.391   .     A
C460   H483    1.076   .     S
C461   C58     1.394   1_556 S
C462   C465    1.417   .     A
C462   C58     1.416   1_556 S
C462   C61     1.429   1_556 S
C463   H484    1.077   .     S
C464   N487    1.157   .     T
C464   C469    1.447   .     S
C465   C469    1.414   .     A
C466   C470    1.399   .     A
C467   C468    1.388   .     A
C467   C61     1.421   1_556 S
C467   C53     1.403   1_556 S
C468   H480    1.082   .     S
C468   C469    1.385   .     A
C470   H482    1.076   .     S
C471   H474    1.083   .     S
Cu472  N486    2.024   .     S
Cu472  O490    1.952   .     S
Cu472  O492    1.951   .     S
Cu472  O488    1.956   .     S
Cu472  Cu473   2.694   .     S
Cu472  O494    1.940   .     S
Cu473  O491    1.940   .     S
Cu473  O495    1.952   .     S
Cu473  N485    2.024   .     S
Cu473  O489    1.951   .     S
Cu473  O493    1.956   .     S
H475   C506    1.083   .     S
H476   C723    1.087   1_545 S
H477   C590    1.088   .     S
H479   N531    1.029   .     S
N485   H523    1.029   .     S
N485   N531    1.296   .     S
C496   O533    1.294   .     A
C496   O534    1.287   .     A
C496   C498    1.427   .     S
C497   C499    1.490   .     S
C497   C510    1.430   .     A
C497   C505    1.393   .     A
C498   C635    1.327   .     S
C498   H656    1.087   .     S
C499   O536    1.287   .     A
C499   O535    1.323   .     A
C500   C501    1.427   .     S
C500   C768    1.327   1_545 S
C500   H792    1.088   1_545 S
C501   O538    1.294   .     A
C501   O537    1.287   .     A
C502   O539    1.293   .     A
C502   O540    1.303   .     A
C502   C504    1.460   .     S
C503   C516    1.389   .     A
C503   H436    1.084   1_655 S
C504   C515    1.403   .     A
C504   C516    1.397   .     A
C505   C506    1.391   .     A
C505   H528    1.076   .     S
C506   C103    1.394   1_556 S
C507   C510    1.417   .     A
C507   C103    1.416   1_556 S
C507   C106    1.429   1_556 S
C508   H529    1.077   .     S
C509   N532    1.157   .     T
C509   C514    1.447   .     S
C510   C514    1.414   .     A
C511   C515    1.399   .     A
C512   C513    1.388   .     A
C512   C106    1.421   1_556 S
C512   C98     1.403   1_556 S
C513   H525    1.082   .     S
C513   C514    1.385   .     A
C515   H527    1.076   .     S
C516   H519    1.083   .     S
Cu517  N531    2.024   .     S
Cu517  O535    1.952   .     S
Cu517  O537    1.951   .     S
Cu517  O533    1.956   .     S
Cu517  Cu518   2.694   .     S
Cu517  O539    1.940   .     S
Cu518  O536    1.940   .     S
Cu518  O540    1.952   .     S
Cu518  N530    2.024   .     S
Cu518  O534    1.951   .     S
Cu518  O538    1.956   .     S
H520   C416    1.083   1_655 S
H521   C768    1.087   1_545 S
H522   C635    1.088   .     S
H524   N441    1.029   1_655 S
N530   H433    1.029   1_655 S
N530   N441    1.296   1_655 S
C541   O578    1.294   .     A
C541   O579    1.287   .     A
C541   C543    1.427   .     S
C542   C544    1.490   .     S
C542   C555    1.430   .     A
C542   C550    1.393   .     A
C543   C680    1.327   .     S
C543   H701    1.087   .     S
C544   O581    1.287   .     A
C544   O580    1.323   .     A
C545   C546    1.427   .     S
C546   O583    1.294   .     A
C546   O582    1.287   .     A
C547   O584    1.293   .     A
C547   O585    1.303   .     A
C547   C549    1.460   .     S
C548   C561    1.389   .     A
C548   H616    1.084   .     S
C549   C560    1.403   .     A
C549   C561    1.397   .     A
C550   C551    1.391   .     A
C550   H573    1.076   .     S
C551   C148    1.394   1_556 S
C551   H655    1.083   1_455 S
C552   C555    1.417   .     A
C552   C148    1.416   1_556 S
C552   C151    1.429   1_556 S
C553   H574    1.077   .     S
C554   N577    1.157   .     T
C554   C559    1.447   .     S
C555   C559    1.414   .     A
C556   C560    1.399   .     A
C557   C558    1.388   .     A
C557   C151    1.421   1_556 S
C557   C143    1.403   1_556 S
C558   H570    1.082   .     S
C558   C559    1.385   .     A
C560   H572    1.076   .     S
C561   H564    1.083   .     S
Cu562  N576    2.024   .     S
Cu562  O580    1.952   .     S
Cu562  O582    1.951   .     S
Cu562  O578    1.956   .     S
Cu562  Cu563   2.694   .     S
Cu562  O584    1.940   .     S
Cu563  O581    1.940   .     S
Cu563  O585    1.952   .     S
Cu563  N575    2.024   .     S
Cu563  O579    1.951   .     S
Cu563  O583    1.956   .     S
H565   C596    1.083   .     S
H567   C680    1.088   .     S
H568   N665    1.029   1_455 S
H569   N621    1.029   .     S
H571   C638    1.084   1_455 S
N575   H613    1.029   .     S
N575   N621    1.296   .     S
N576   N665    1.296   1_455 S
N576   H659    1.029   1_455 S
C586   O623    1.294   .     A
C586   O624    1.287   .     A
C586   C588    1.427   .     S
C587   C589    1.490   .     S
C587   C600    1.430   .     A
C587   C595    1.393   .     A
C588   C725    1.327   .     S
C588   H746    1.087   .     S
C589   O626    1.287   .     A
C589   O625    1.323   .     A
C590   C591    1.427   .     S
C591   O628    1.294   .     A
C591   O627    1.287   .     A
C592   O629    1.293   .     A
C592   O630    1.303   .     A
C592   C594    1.460   .     S
C593   C606    1.389   .     A
C593   H661    1.084   .     S
C594   C605    1.403   .     A
C594   C606    1.397   .     A
C595   C596    1.391   .     A
C595   H618    1.076   .     S
C596   C193    1.394   1_556 S
C597   C600    1.417   .     A
C597   C193    1.416   1_556 S
C597   C196    1.429   1_556 S
C598   H619    1.077   .     S
C599   N622    1.157   .     T
C599   C604    1.447   .     S
C600   C604    1.414   .     A
C601   C605    1.399   .     A
C602   C603    1.388   .     A
C602   C196    1.421   1_556 S
C602   C188    1.403   1_556 S
C603   H615    1.082   .     S
C603   C604    1.385   .     A
C605   H617    1.076   .     S
C606   H609    1.083   .     S
Cu607  N621    2.024   .     S
Cu607  O625    1.952   .     S
Cu607  O627    1.951   .     S
Cu607  O623    1.956   .     S
Cu607  Cu608   2.694   .     S
Cu607  O629    1.940   .     S
Cu608  O626    1.940   .     S
Cu608  O630    1.952   .     S
Cu608  N620    2.024   .     S
Cu608  O624    1.951   .     S
Cu608  O628    1.956   .     S
H610   C641    1.083   .     S
H612   C725    1.088   .     S
H614   N666    1.029   .     S
N620   H658    1.029   .     S
N620   N666    1.296   .     S
C631   O668    1.294   .     A
C631   O669    1.287   .     A
C631   C633    1.427   .     S
C632   C634    1.490   .     S
C632   C645    1.430   .     A
C632   C640    1.393   .     A
C633   C770    1.327   .     S
C633   H791    1.087   .     S
C634   O671    1.287   .     A
C634   O670    1.323   .     A
C635   C636    1.427   .     S
C636   O673    1.294   .     A
C636   O672    1.287   .     A
C637   O674    1.293   .     A
C637   O675    1.303   .     A
C637   C639    1.460   .     S
C638   C651    1.389   .     A
C638   H571    1.084   1_655 S
C639   C650    1.403   .     A
C639   C651    1.397   .     A
C640   C641    1.391   .     A
C640   H663    1.076   .     S
C641   C238    1.394   1_556 S
C642   C645    1.417   .     A
C642   C238    1.416   1_556 S
C642   C241    1.429   1_556 S
C643   H664    1.077   .     S
C644   N667    1.157   .     T
C644   C649    1.447   .     S
C645   C649    1.414   .     A
C646   C650    1.399   .     A
C647   C648    1.388   .     A
C647   C241    1.421   1_556 S
C647   C233    1.403   1_556 S
C648   H660    1.082   .     S
C648   C649    1.385   .     A
C650   H662    1.076   .     S
C651   H654    1.083   .     S
Cu652  N666    2.024   .     S
Cu652  O670    1.952   .     S
Cu652  O672    1.951   .     S
Cu652  O668    1.956   .     S
Cu652  Cu653   2.694   .     S
Cu652  O674    1.940   .     S
Cu653  O671    1.940   .     S
Cu653  O675    1.952   .     S
Cu653  N665    2.024   .     S
Cu653  O669    1.951   .     S
Cu653  O673    1.956   .     S
H655   C551    1.083   1_655 S
H657   C770    1.088   .     S
H659   N576    1.029   1_655 S
N665   H568    1.029   1_655 S
N665   N576    1.296   1_655 S
C676   O713    1.294   .     A
C676   O714    1.287   .     A
C676   C678    1.427   .     S
C677   C679    1.490   .     S
C677   C690    1.430   .     A
C677   C685    1.393   .     A
C678   C410    1.327   1_565 S
C678   H431    1.087   1_565 S
C679   O716    1.287   .     A
C679   O715    1.323   .     A
C680   C681    1.427   .     S
C681   O718    1.294   .     A
C681   O717    1.287   .     A
C682   O719    1.293   .     A
C682   O720    1.303   .     A
C682   C684    1.460   .     S
C683   C696    1.389   .     A
C683   H751    1.084   .     S
C684   C695    1.403   .     A
C684   C696    1.397   .     A
C685   C686    1.391   .     A
C685   H708    1.076   .     S
C686   C283    1.394   1_556 S
C686   H790    1.083   1_455 S
C687   C690    1.417   .     A
C687   C283    1.416   1_556 S
C687   C286    1.429   1_556 S
C688   H709    1.077   .     S
C689   N712    1.157   .     T
C689   C694    1.447   .     S
C690   C694    1.414   .     A
C691   C695    1.399   .     A
C692   C693    1.388   .     A
C692   C286    1.421   1_556 S
C692   C278    1.403   1_556 S
C693   H705    1.082   .     S
C693   C694    1.385   .     A
C695   H707    1.076   .     S
C696   H699    1.083   .     S
Cu697  N711    2.024   .     S
Cu697  O715    1.952   .     S
Cu697  O717    1.951   .     S
Cu697  O713    1.956   .     S
Cu697  Cu698   2.694   .     S
Cu697  O719    1.940   .     S
Cu698  O716    1.940   .     S
Cu698  O720    1.952   .     S
Cu698  N710    2.024   .     S
Cu698  O714    1.951   .     S
Cu698  O718    1.956   .     S
H700   C731    1.083   .     S
H702   C410    1.088   1_565 S
H703   N800    1.029   1_455 S
H704   N756    1.029   .     S
H706   C773    1.084   1_455 S
N710   H748    1.029   .     S
N710   N756    1.296   .     S
N711   N800    1.296   1_455 S
N711   H794    1.029   1_455 S
C721   O758    1.294   .     A
C721   O759    1.287   .     A
C721   C723    1.427   .     S
C722   C724    1.490   .     S
C722   C735    1.430   .     A
C722   C730    1.393   .     A
C723   C455    1.327   1_565 S
C723   H476    1.087   1_565 S
C724   O761    1.287   .     A
C724   O760    1.323   .     A
C725   C726    1.427   .     S
C726   O763    1.294   .     A
C726   O762    1.287   .     A
C727   O764    1.293   .     A
C727   O765    1.303   .     A
C727   C729    1.460   .     S
C728   C741    1.389   .     A
C728   H796    1.084   .     S
C729   C740    1.403   .     A
C729   C741    1.397   .     A
C730   C731    1.391   .     A
C730   H753    1.076   .     S
C731   C328    1.394   1_556 S
C732   C735    1.417   .     A
C732   C328    1.416   1_556 S
C732   C331    1.429   1_556 S
C733   H754    1.077   .     S
C734   N757    1.157   .     T
C734   C739    1.447   .     S
C735   C739    1.414   .     A
C736   C740    1.399   .     A
C737   C738    1.388   .     A
C737   C331    1.421   1_556 S
C737   C323    1.403   1_556 S
C738   H750    1.082   .     S
C738   C739    1.385   .     A
C740   H752    1.076   .     S
C741   H744    1.083   .     S
Cu742  N756    2.024   .     S
Cu742  O760    1.952   .     S
Cu742  O762    1.951   .     S
Cu742  O758    1.956   .     S
Cu742  Cu743   2.694   .     S
Cu742  O764    1.940   .     S
Cu743  O761    1.940   .     S
Cu743  O765    1.952   .     S
Cu743  N755    2.024   .     S
Cu743  O759    1.951   .     S
Cu743  O763    1.956   .     S
H745   C776    1.083   .     S
H747   C455    1.088   1_565 S
H749   N801    1.029   .     S
N755   H793    1.029   .     S
N755   N801    1.296   .     S
C766   O803    1.294   .     A
C766   O804    1.287   .     A
C766   C768    1.427   .     S
C767   C769    1.490   .     S
C767   C780    1.430   .     A
C767   C775    1.393   .     A
C768   C500    1.327   1_565 S
C768   H521    1.087   1_565 S
C769   O806    1.287   .     A
C769   O805    1.323   .     A
C770   C771    1.427   .     S
C771   O808    1.294   .     A
C771   O807    1.287   .     A
C772   O809    1.293   .     A
C772   O810    1.303   .     A
C772   C774    1.460   .     S
C773   C786    1.389   .     A
C773   H706    1.084   1_655 S
C774   C785    1.403   .     A
C774   C786    1.397   .     A
C775   C776    1.391   .     A
C775   H798    1.076   .     S
C776   C373    1.394   1_556 S
C777   C780    1.417   .     A
C777   C373    1.416   1_556 S
C777   C376    1.429   1_556 S
C778   H799    1.077   .     S
C779   N802    1.157   .     T
C779   C784    1.447   .     S
C780   C784    1.414   .     A
C781   C785    1.399   .     A
C782   C783    1.388   .     A
C782   C376    1.421   1_556 S
C782   C368    1.403   1_556 S
C783   H795    1.082   .     S
C783   C784    1.385   .     A
C785   H797    1.076   .     S
C786   H789    1.083   .     S
Cu787  N801    2.024   .     S
Cu787  O805    1.952   .     S
Cu787  O807    1.951   .     S
Cu787  O803    1.956   .     S
Cu787  Cu788   2.694   .     S
Cu787  O809    1.940   .     S
Cu788  O806    1.940   .     S
Cu788  O810    1.952   .     S
Cu788  N800    2.024   .     S
Cu788  O804    1.951   .     S
Cu788  O808    1.956   .     S
H790   C686    1.083   1_655 S
H792   C500    1.088   1_565 S
H794   N711    1.029   1_655 S
N800   H703    1.029   1_655 S
N800   N711    1.296   1_655 S
