data_str_m3_o1_o18_pcu_sym.65
_audit_creation_date              2020-01-03
_audit_creation_method            'Materials Studio'
_symmetry_space_group_name_H-M    'P1'
_symmetry_Int_Tables_number       1
_symmetry_cell_setting            triclinic
loop_
_symmetry_equiv_pos_as_xyz
  x,y,z
_cell_length_a                    29.5940
_cell_length_b                    31.9444
_cell_length_c                    31.0246
_cell_angle_alpha                 90.0979
_cell_angle_beta                  67.8345
_cell_angle_gamma                 90.0254
loop_
_atom_site_label
_atom_site_type_symbol
_atom_site_fract_x
_atom_site_fract_y
_atom_site_fract_z
_atom_site_U_iso_or_equiv
_atom_site_adp_type
_atom_site_occupancy
C1     C     0.16651   0.24654   0.25043   0.00000  Uiso   1.00
C2     C     0.12836   0.31239   0.28506   0.00000  Uiso   1.00
C3     C     0.16699   0.04266   0.24914   0.00000  Uiso   1.00
C4     C     0.16635   0.29069   0.25084   0.00000  Uiso   1.00
C5     C     0.32054   0.14017   0.22163   0.00000  Uiso   1.00
C6     C     0.01277   0.19313   0.27840   0.00000  Uiso   1.00
C7     C     0.03509   0.14011   0.22166   0.00000  Uiso   1.00
C8     C     0.29821   0.19317   0.27840   0.00000  Uiso   1.00
C9     C     0.13621   0.16629   0.33799   0.00000  Uiso   1.00
C10    C     0.19716   0.16594   0.16203   0.00000  Uiso   1.00
C11    C     0.11794   0.15984   0.38814   0.00000  Uiso   1.00
C12    C     0.16682   0.08680   0.24956   0.00000  Uiso   1.00
C13    C     0.21641   0.16261   0.11145   0.00000  Uiso   1.00
C14    C     0.06152   0.12757   0.45814   0.00000  Uiso   1.00
C15    C     0.28048   0.17201   0.03593   0.00000  Uiso   1.00
C16    C     0.07279   0.14093   0.41245   0.00000  Uiso   1.00
C17    C     0.26502   0.17209   0.08425   0.00000  Uiso   1.00
C18    C     0.15071   0.16633   0.40993   0.00000  Uiso   1.00
C19    C     0.18440   0.15056   0.09034   0.00000  Uiso   1.00
C20    C     0.14236   0.14952   0.45367   0.00000  Uiso   1.00
C21    C     0.19904   0.14989   0.04201   0.00000  Uiso   1.00
C22    C     0.09608   0.13163   0.47891   0.00000  Uiso   1.00
C23    C     0.11904   0.12276   0.04508   0.00000  Uiso   1.00
C24    C     0.24751   0.16214   0.01467   0.00000  Uiso   1.00
C25    C     0.17869   0.15076   0.47300   0.00000  Uiso   1.00
C26    C     0.16546   0.14084   0.02058   0.00000  Uiso   1.00
C27    C     0.24327   0.04227   0.17763   0.00000  Uiso   1.00
C28    C     0.08995   0.29111   0.32225   0.00000  Uiso   1.00
C29    C     0.22797   0.16083   0.44610   0.00000  Uiso   1.00
C30    C     0.08527   0.11772   0.02419   0.00000  Uiso   1.00
C31    C     0.26193   0.16574   0.46667   0.00000  Uiso   1.00
C32    C     0.20449   0.31121   0.21605   0.00000  Uiso   1.00
C33    C     0.12886   0.02215   0.28394   0.00000  Uiso   1.00
C34    C     0.20495   0.02097   0.21489   0.00000  Uiso   1.00
F35    F     0.24020   0.28914   0.18279   0.00000  Uiso   1.00
F36    F     0.09318   0.04423   0.31722   0.00000  Uiso   1.00
F37    F     0.06876   0.11333   0.19329   0.00000  Uiso   1.00
F38    F     0.26450   0.21986   0.30688   0.00000  Uiso   1.00
H39    H     0.05027   0.10347   0.04384   0.00000  Uiso   1.00
H40    H     0.24161   0.16413   0.40875   0.00000  Uiso   1.00
H41    H     0.31136   0.11901   0.19893   0.00000  Uiso   1.00
H42    H     0.02195   0.21427   0.30113   0.00000  Uiso   1.00
H43    H     0.29911   0.17412   0.44513   0.00000  Uiso   1.00
H44    H     0.14710   0.14416   0.11241   0.00000  Uiso   1.00
H45    H     0.18337   0.18401   0.39148   0.00000  Uiso   1.00
H46    H     0.29039   0.18106   0.10026   0.00000  Uiso   1.00
H47    H     0.04717   0.13521   0.39575   0.00000  Uiso   1.00
H48    H     0.02651   0.11292   0.47670   0.00000  Uiso   1.00
H49    H     0.31757   0.18130   0.01530   0.00000  Uiso   1.00
H50    H     0.10840   0.11083   0.08002   0.00000  Uiso   1.00
N51    N     0.04759   0.16668   0.25001   0.00000  Uiso   1.00
N52    N     0.28574   0.16666   0.24999   0.00000  Uiso   1.00
N53    N     0.27383   0.05931   0.14782   0.00000  Uiso   1.00
N54    N     0.05931   0.27409   0.35200   0.00000  Uiso   1.00
O55    O     0.12846   0.22775   0.25001   0.00000  Uiso   1.00
O56    O     0.20488   0.10558   0.25000   0.00000  Uiso   1.00
O57    O     0.20490   0.22774   0.25000   0.00000  Uiso   1.00
O58    O     0.12843   0.10559   0.25000   0.00000  Uiso   1.00
O59    O     0.10661   0.16667   0.31613   0.00000  Uiso   1.00
O60    O     0.22672   0.16666   0.18388   0.00000  Uiso   1.00
O61    O     0.18305   0.16666   0.31612   0.00000  Uiso   1.00
O62    O     0.15028   0.16667   0.18388   0.00000  Uiso   1.00
Zn63   Zn    0.11562   0.16667   0.25000   0.00000  Uiso   1.00
Zn64   Zn    0.21771   0.16666   0.25000   0.00000  Uiso   1.00
C65    C     0.49985   0.24654   0.25043   0.00000  Uiso   1.00
C66    C     0.46169   0.31239   0.28506   0.00000  Uiso   1.00
C67    C     0.50032   0.04266   0.24914   0.00000  Uiso   1.00
C68    C     0.49968   0.29069   0.25084   0.00000  Uiso   1.00
C69    C     0.65388   0.14017   0.22163   0.00000  Uiso   1.00
C70    C     0.34611   0.19313   0.27840   0.00000  Uiso   1.00
C71    C     0.36843   0.14011   0.22166   0.00000  Uiso   1.00
C72    C     0.63155   0.19317   0.27840   0.00000  Uiso   1.00
C73    C     0.46954   0.16629   0.33799   0.00000  Uiso   1.00
C74    C     0.53050   0.16594   0.16203   0.00000  Uiso   1.00
C75    C     0.45127   0.15984   0.38814   0.00000  Uiso   1.00
C76    C     0.50015   0.08680   0.24956   0.00000  Uiso   1.00
C77    C     0.54974   0.16261   0.11145   0.00000  Uiso   1.00
C78    C     0.39485   0.12757   0.45814   0.00000  Uiso   1.00
C79    C     0.61381   0.17201   0.03593   0.00000  Uiso   1.00
C80    C     0.40612   0.14093   0.41245   0.00000  Uiso   1.00
C81    C     0.59835   0.17209   0.08425   0.00000  Uiso   1.00
C82    C     0.48405   0.16633   0.40993   0.00000  Uiso   1.00
C83    C     0.51773   0.15056   0.09034   0.00000  Uiso   1.00
C84    C     0.47569   0.14952   0.45367   0.00000  Uiso   1.00
C85    C     0.53237   0.14989   0.04201   0.00000  Uiso   1.00
C86    C     0.42942   0.13163   0.47891   0.00000  Uiso   1.00
C87    C     0.45237   0.12276   0.04508   0.00000  Uiso   1.00
C88    C     0.58084   0.16214   0.01467   0.00000  Uiso   1.00
C89    C     0.51202   0.15076   0.47300   0.00000  Uiso   1.00
C90    C     0.49880   0.14084   0.02058   0.00000  Uiso   1.00
C91    C     0.57660   0.04227   0.17763   0.00000  Uiso   1.00
C92    C     0.42329   0.29111   0.32225   0.00000  Uiso   1.00
C93    C     0.56130   0.16083   0.44610   0.00000  Uiso   1.00
C94    C     0.41860   0.11772   0.02419   0.00000  Uiso   1.00
C95    C     0.59526   0.16574   0.46667   0.00000  Uiso   1.00
C96    C     0.53782   0.31121   0.21605   0.00000  Uiso   1.00
C97    C     0.46219   0.02215   0.28394   0.00000  Uiso   1.00
C98    C     0.53829   0.02097   0.21489   0.00000  Uiso   1.00
F99    F     0.57353   0.28914   0.18279   0.00000  Uiso   1.00
F100   F     0.42651   0.04423   0.31722   0.00000  Uiso   1.00
F101   F     0.40209   0.11333   0.19329   0.00000  Uiso   1.00
F102   F     0.59783   0.21986   0.30688   0.00000  Uiso   1.00
H103   H     0.38360   0.10347   0.04384   0.00000  Uiso   1.00
H104   H     0.57494   0.16413   0.40875   0.00000  Uiso   1.00
H105   H     0.64469   0.11901   0.19893   0.00000  Uiso   1.00
H106   H     0.35528   0.21427   0.30113   0.00000  Uiso   1.00
H107   H     0.63245   0.17412   0.44513   0.00000  Uiso   1.00
H108   H     0.48043   0.14416   0.11241   0.00000  Uiso   1.00
H109   H     0.51671   0.18401   0.39148   0.00000  Uiso   1.00
H110   H     0.62373   0.18106   0.10026   0.00000  Uiso   1.00
H111   H     0.38051   0.13521   0.39575   0.00000  Uiso   1.00
H112   H     0.35985   0.11292   0.47670   0.00000  Uiso   1.00
H113   H     0.65091   0.18130   0.01530   0.00000  Uiso   1.00
H114   H     0.44173   0.11083   0.08002   0.00000  Uiso   1.00
N115   N     0.38093   0.16668   0.25001   0.00000  Uiso   1.00
N116   N     0.61907   0.16666   0.24999   0.00000  Uiso   1.00
N117   N     0.60716   0.05931   0.14782   0.00000  Uiso   1.00
N118   N     0.39265   0.27409   0.35200   0.00000  Uiso   1.00
O119   O     0.46179   0.22775   0.25001   0.00000  Uiso   1.00
O120   O     0.53821   0.10558   0.25000   0.00000  Uiso   1.00
O121   O     0.53823   0.22774   0.25000   0.00000  Uiso   1.00
O122   O     0.46177   0.10559   0.25000   0.00000  Uiso   1.00
O123   O     0.43994   0.16667   0.31613   0.00000  Uiso   1.00
O124   O     0.56006   0.16666   0.18388   0.00000  Uiso   1.00
O125   O     0.51639   0.16666   0.31612   0.00000  Uiso   1.00
O126   O     0.48361   0.16667   0.18388   0.00000  Uiso   1.00
Zn127  Zn    0.44896   0.16667   0.25000   0.00000  Uiso   1.00
Zn128  Zn    0.55104   0.16666   0.25000   0.00000  Uiso   1.00
C129   C     0.83318   0.24654   0.25043   0.00000  Uiso   1.00
C130   C     0.79503   0.31239   0.28506   0.00000  Uiso   1.00
C131   C     0.83365   0.04266   0.24914   0.00000  Uiso   1.00
C132   C     0.83301   0.29069   0.25084   0.00000  Uiso   1.00
C133   C     0.98721   0.14017   0.22163   0.00000  Uiso   1.00
C134   C     0.67944   0.19313   0.27840   0.00000  Uiso   1.00
C135   C     0.70176   0.14011   0.22166   0.00000  Uiso   1.00
C136   C     0.96488   0.19317   0.27840   0.00000  Uiso   1.00
C137   C     0.80287   0.16629   0.33799   0.00000  Uiso   1.00
C138   C     0.86383   0.16594   0.16203   0.00000  Uiso   1.00
C139   C     0.78461   0.15984   0.38814   0.00000  Uiso   1.00
C140   C     0.83349   0.08680   0.24956   0.00000  Uiso   1.00
C141   C     0.88308   0.16261   0.11145   0.00000  Uiso   1.00
C142   C     0.72819   0.12757   0.45814   0.00000  Uiso   1.00
C143   C     0.94714   0.17201   0.03593   0.00000  Uiso   1.00
C144   C     0.73946   0.14093   0.41245   0.00000  Uiso   1.00
C145   C     0.93169   0.17209   0.08425   0.00000  Uiso   1.00
C146   C     0.81738   0.16633   0.40993   0.00000  Uiso   1.00
C147   C     0.85106   0.15056   0.09034   0.00000  Uiso   1.00
C148   C     0.80902   0.14952   0.45367   0.00000  Uiso   1.00
C149   C     0.86570   0.14989   0.04201   0.00000  Uiso   1.00
C150   C     0.76275   0.13163   0.47891   0.00000  Uiso   1.00
C151   C     0.78570   0.12276   0.04508   0.00000  Uiso   1.00
C152   C     0.91417   0.16214   0.01467   0.00000  Uiso   1.00
C153   C     0.84536   0.15076   0.47300   0.00000  Uiso   1.00
C154   C     0.83213   0.14084   0.02058   0.00000  Uiso   1.00
C155   C     0.90994   0.04227   0.17763   0.00000  Uiso   1.00
C156   C     0.75662   0.29111   0.32225   0.00000  Uiso   1.00
C157   C     0.89463   0.16083   0.44610   0.00000  Uiso   1.00
C158   C     0.75193   0.11772   0.02419   0.00000  Uiso   1.00
C159   C     0.92860   0.16574   0.46667   0.00000  Uiso   1.00
C160   C     0.87115   0.31121   0.21605   0.00000  Uiso   1.00
C161   C     0.79553   0.02215   0.28394   0.00000  Uiso   1.00
C162   C     0.87162   0.02097   0.21489   0.00000  Uiso   1.00
F163   F     0.90686   0.28914   0.18279   0.00000  Uiso   1.00
F164   F     0.75984   0.04423   0.31722   0.00000  Uiso   1.00
F165   F     0.73543   0.11333   0.19329   0.00000  Uiso   1.00
F166   F     0.93117   0.21986   0.30688   0.00000  Uiso   1.00
H167   H     0.71694   0.10347   0.04384   0.00000  Uiso   1.00
H168   H     0.90828   0.16413   0.40875   0.00000  Uiso   1.00
H169   H     0.97802   0.11901   0.19893   0.00000  Uiso   1.00
H170   H     0.68862   0.21427   0.30113   0.00000  Uiso   1.00
H171   H     0.96578   0.17412   0.44513   0.00000  Uiso   1.00
H172   H     0.81377   0.14416   0.11241   0.00000  Uiso   1.00
H173   H     0.85004   0.18401   0.39148   0.00000  Uiso   1.00
H174   H     0.95706   0.18106   0.10026   0.00000  Uiso   1.00
H175   H     0.71384   0.13521   0.39575   0.00000  Uiso   1.00
H176   H     0.69318   0.11292   0.47670   0.00000  Uiso   1.00
H177   H     0.98424   0.18130   0.01530   0.00000  Uiso   1.00
H178   H     0.77506   0.11083   0.08002   0.00000  Uiso   1.00
N179   N     0.71426   0.16668   0.25001   0.00000  Uiso   1.00
N180   N     0.95241   0.16666   0.24999   0.00000  Uiso   1.00
N181   N     0.94049   0.05931   0.14782   0.00000  Uiso   1.00
N182   N     0.72598   0.27409   0.35200   0.00000  Uiso   1.00
O183   O     0.79512   0.22775   0.25001   0.00000  Uiso   1.00
O184   O     0.87154   0.10558   0.25000   0.00000  Uiso   1.00
O185   O     0.87157   0.22774   0.25000   0.00000  Uiso   1.00
O186   O     0.79510   0.10559   0.25000   0.00000  Uiso   1.00
O187   O     0.77328   0.16667   0.31613   0.00000  Uiso   1.00
O188   O     0.89339   0.16666   0.18388   0.00000  Uiso   1.00
O189   O     0.84972   0.16666   0.31612   0.00000  Uiso   1.00
O190   O     0.81695   0.16667   0.18388   0.00000  Uiso   1.00
Zn191  Zn    0.78229   0.16667   0.25000   0.00000  Uiso   1.00
Zn192  Zn    0.88438   0.16666   0.25000   0.00000  Uiso   1.00
C193   C     0.16651   0.57988   0.25043   0.00000  Uiso   1.00
C194   C     0.12836   0.64572   0.28506   0.00000  Uiso   1.00
C195   C     0.16699   0.37600   0.24914   0.00000  Uiso   1.00
C196   C     0.16635   0.62402   0.25084   0.00000  Uiso   1.00
C197   C     0.32054   0.47351   0.22163   0.00000  Uiso   1.00
C198   C     0.01277   0.52646   0.27840   0.00000  Uiso   1.00
C199   C     0.03509   0.47345   0.22166   0.00000  Uiso   1.00
C200   C     0.29821   0.52651   0.27840   0.00000  Uiso   1.00
C201   C     0.13621   0.49962   0.33799   0.00000  Uiso   1.00
C202   C     0.19716   0.49928   0.16203   0.00000  Uiso   1.00
C203   C     0.11794   0.49317   0.38814   0.00000  Uiso   1.00
C204   C     0.16682   0.42013   0.24956   0.00000  Uiso   1.00
C205   C     0.21641   0.49594   0.11145   0.00000  Uiso   1.00
C206   C     0.06152   0.46090   0.45814   0.00000  Uiso   1.00
C207   C     0.28048   0.50535   0.03593   0.00000  Uiso   1.00
C208   C     0.07279   0.47426   0.41245   0.00000  Uiso   1.00
C209   C     0.26502   0.50542   0.08425   0.00000  Uiso   1.00
C210   C     0.15071   0.49966   0.40993   0.00000  Uiso   1.00
C211   C     0.18440   0.48389   0.09034   0.00000  Uiso   1.00
C212   C     0.14236   0.48285   0.45367   0.00000  Uiso   1.00
C213   C     0.19904   0.48322   0.04201   0.00000  Uiso   1.00
C214   C     0.09608   0.46497   0.47891   0.00000  Uiso   1.00
C215   C     0.11904   0.45610   0.04508   0.00000  Uiso   1.00
C216   C     0.24751   0.49548   0.01467   0.00000  Uiso   1.00
C217   C     0.17869   0.48409   0.47300   0.00000  Uiso   1.00
C218   C     0.16546   0.47418   0.02058   0.00000  Uiso   1.00
C219   C     0.24327   0.37560   0.17763   0.00000  Uiso   1.00
C220   C     0.08995   0.62444   0.32225   0.00000  Uiso   1.00
C221   C     0.22797   0.49417   0.44610   0.00000  Uiso   1.00
C222   C     0.08527   0.45105   0.02419   0.00000  Uiso   1.00
C223   C     0.26193   0.49907   0.46667   0.00000  Uiso   1.00
C224   C     0.20449   0.64454   0.21605   0.00000  Uiso   1.00
C225   C     0.12886   0.35548   0.28394   0.00000  Uiso   1.00
C226   C     0.20495   0.35431   0.21489   0.00000  Uiso   1.00
F227   F     0.24020   0.62247   0.18279   0.00000  Uiso   1.00
F228   F     0.09318   0.37756   0.31722   0.00000  Uiso   1.00
F229   F     0.06876   0.44666   0.19329   0.00000  Uiso   1.00
F230   F     0.26450   0.55319   0.30688   0.00000  Uiso   1.00
H231   H     0.05027   0.43680   0.04384   0.00000  Uiso   1.00
H232   H     0.24161   0.49747   0.40875   0.00000  Uiso   1.00
H233   H     0.31136   0.45234   0.19893   0.00000  Uiso   1.00
H234   H     0.02195   0.54761   0.30113   0.00000  Uiso   1.00
H235   H     0.29911   0.50745   0.44513   0.00000  Uiso   1.00
H236   H     0.14710   0.47750   0.11241   0.00000  Uiso   1.00
H237   H     0.18337   0.51734   0.39148   0.00000  Uiso   1.00
H238   H     0.29039   0.51439   0.10026   0.00000  Uiso   1.00
H239   H     0.04717   0.46855   0.39575   0.00000  Uiso   1.00
H240   H     0.02651   0.44625   0.47670   0.00000  Uiso   1.00
H241   H     0.31757   0.51463   0.01530   0.00000  Uiso   1.00
H242   H     0.10840   0.44416   0.08002   0.00000  Uiso   1.00
N243   N     0.04759   0.50001   0.25001   0.00000  Uiso   1.00
N244   N     0.28574   0.49999   0.24999   0.00000  Uiso   1.00
N245   N     0.27383   0.39264   0.14782   0.00000  Uiso   1.00
N246   N     0.05931   0.60742   0.35200   0.00000  Uiso   1.00
O247   O     0.12846   0.56108   0.25001   0.00000  Uiso   1.00
O248   O     0.20488   0.43892   0.25000   0.00000  Uiso   1.00
O249   O     0.20490   0.56107   0.25000   0.00000  Uiso   1.00
O250   O     0.12843   0.43893   0.25000   0.00000  Uiso   1.00
O251   O     0.10661   0.50001   0.31613   0.00000  Uiso   1.00
O252   O     0.22672   0.49999   0.18388   0.00000  Uiso   1.00
O253   O     0.18305   0.50000   0.31612   0.00000  Uiso   1.00
O254   O     0.15028   0.50000   0.18388   0.00000  Uiso   1.00
Zn255  Zn    0.11562   0.50001   0.25000   0.00000  Uiso   1.00
Zn256  Zn    0.21771   0.49999   0.25000   0.00000  Uiso   1.00
C257   C     0.49985   0.57988   0.25043   0.00000  Uiso   1.00
C258   C     0.46169   0.64572   0.28506   0.00000  Uiso   1.00
C259   C     0.50032   0.37600   0.24914   0.00000  Uiso   1.00
C260   C     0.49968   0.62402   0.25084   0.00000  Uiso   1.00
C261   C     0.65388   0.47351   0.22163   0.00000  Uiso   1.00
C262   C     0.34611   0.52646   0.27840   0.00000  Uiso   1.00
C263   C     0.36843   0.47345   0.22166   0.00000  Uiso   1.00
C264   C     0.63155   0.52651   0.27840   0.00000  Uiso   1.00
C265   C     0.46954   0.49962   0.33799   0.00000  Uiso   1.00
C266   C     0.53050   0.49928   0.16203   0.00000  Uiso   1.00
C267   C     0.45127   0.49317   0.38814   0.00000  Uiso   1.00
C268   C     0.50015   0.42013   0.24956   0.00000  Uiso   1.00
C269   C     0.54974   0.49594   0.11145   0.00000  Uiso   1.00
C270   C     0.39485   0.46090   0.45814   0.00000  Uiso   1.00
C271   C     0.61381   0.50535   0.03593   0.00000  Uiso   1.00
C272   C     0.40612   0.47426   0.41245   0.00000  Uiso   1.00
C273   C     0.59835   0.50542   0.08425   0.00000  Uiso   1.00
C274   C     0.48405   0.49966   0.40993   0.00000  Uiso   1.00
C275   C     0.51773   0.48389   0.09034   0.00000  Uiso   1.00
C276   C     0.47569   0.48285   0.45367   0.00000  Uiso   1.00
C277   C     0.53237   0.48322   0.04201   0.00000  Uiso   1.00
C278   C     0.42942   0.46497   0.47891   0.00000  Uiso   1.00
C279   C     0.45237   0.45610   0.04508   0.00000  Uiso   1.00
C280   C     0.58084   0.49548   0.01467   0.00000  Uiso   1.00
C281   C     0.51202   0.48409   0.47300   0.00000  Uiso   1.00
C282   C     0.49880   0.47418   0.02058   0.00000  Uiso   1.00
C283   C     0.57660   0.37560   0.17763   0.00000  Uiso   1.00
C284   C     0.42329   0.62444   0.32225   0.00000  Uiso   1.00
C285   C     0.56130   0.49417   0.44610   0.00000  Uiso   1.00
C286   C     0.41860   0.45105   0.02419   0.00000  Uiso   1.00
C287   C     0.59526   0.49907   0.46667   0.00000  Uiso   1.00
C288   C     0.53782   0.64454   0.21605   0.00000  Uiso   1.00
C289   C     0.46219   0.35548   0.28394   0.00000  Uiso   1.00
C290   C     0.53829   0.35431   0.21489   0.00000  Uiso   1.00
F291   F     0.57353   0.62247   0.18279   0.00000  Uiso   1.00
F292   F     0.42651   0.37756   0.31722   0.00000  Uiso   1.00
F293   F     0.40209   0.44666   0.19329   0.00000  Uiso   1.00
F294   F     0.59783   0.55319   0.30688   0.00000  Uiso   1.00
H295   H     0.38360   0.43680   0.04384   0.00000  Uiso   1.00
H296   H     0.57494   0.49747   0.40875   0.00000  Uiso   1.00
H297   H     0.64469   0.45234   0.19893   0.00000  Uiso   1.00
H298   H     0.35528   0.54761   0.30113   0.00000  Uiso   1.00
H299   H     0.63245   0.50745   0.44513   0.00000  Uiso   1.00
H300   H     0.48043   0.47750   0.11241   0.00000  Uiso   1.00
H301   H     0.51671   0.51734   0.39148   0.00000  Uiso   1.00
H302   H     0.62373   0.51439   0.10026   0.00000  Uiso   1.00
H303   H     0.38051   0.46855   0.39575   0.00000  Uiso   1.00
H304   H     0.35985   0.44625   0.47670   0.00000  Uiso   1.00
H305   H     0.65091   0.51463   0.01530   0.00000  Uiso   1.00
H306   H     0.44173   0.44416   0.08002   0.00000  Uiso   1.00
N307   N     0.38093   0.50001   0.25001   0.00000  Uiso   1.00
N308   N     0.61907   0.49999   0.24999   0.00000  Uiso   1.00
N309   N     0.60716   0.39264   0.14782   0.00000  Uiso   1.00
N310   N     0.39265   0.60742   0.35200   0.00000  Uiso   1.00
O311   O     0.46179   0.56108   0.25001   0.00000  Uiso   1.00
O312   O     0.53821   0.43892   0.25000   0.00000  Uiso   1.00
O313   O     0.53823   0.56107   0.25000   0.00000  Uiso   1.00
O314   O     0.46177   0.43893   0.25000   0.00000  Uiso   1.00
O315   O     0.43994   0.50001   0.31613   0.00000  Uiso   1.00
O316   O     0.56006   0.49999   0.18388   0.00000  Uiso   1.00
O317   O     0.51639   0.50000   0.31612   0.00000  Uiso   1.00
O318   O     0.48361   0.50000   0.18388   0.00000  Uiso   1.00
Zn319  Zn    0.44896   0.50001   0.25000   0.00000  Uiso   1.00
Zn320  Zn    0.55104   0.49999   0.25000   0.00000  Uiso   1.00
C321   C     0.83318   0.57988   0.25043   0.00000  Uiso   1.00
C322   C     0.79503   0.64572   0.28506   0.00000  Uiso   1.00
C323   C     0.83365   0.37600   0.24914   0.00000  Uiso   1.00
C324   C     0.83301   0.62402   0.25084   0.00000  Uiso   1.00
C325   C     0.98721   0.47351   0.22163   0.00000  Uiso   1.00
C326   C     0.67944   0.52646   0.27840   0.00000  Uiso   1.00
C327   C     0.70176   0.47345   0.22166   0.00000  Uiso   1.00
C328   C     0.96488   0.52651   0.27840   0.00000  Uiso   1.00
C329   C     0.80287   0.49962   0.33799   0.00000  Uiso   1.00
C330   C     0.86383   0.49928   0.16203   0.00000  Uiso   1.00
C331   C     0.78461   0.49317   0.38814   0.00000  Uiso   1.00
C332   C     0.83349   0.42013   0.24956   0.00000  Uiso   1.00
C333   C     0.88308   0.49594   0.11145   0.00000  Uiso   1.00
C334   C     0.72819   0.46090   0.45814   0.00000  Uiso   1.00
C335   C     0.94714   0.50535   0.03593   0.00000  Uiso   1.00
C336   C     0.73946   0.47426   0.41245   0.00000  Uiso   1.00
C337   C     0.93169   0.50542   0.08425   0.00000  Uiso   1.00
C338   C     0.81738   0.49966   0.40993   0.00000  Uiso   1.00
C339   C     0.85106   0.48389   0.09034   0.00000  Uiso   1.00
C340   C     0.80902   0.48285   0.45367   0.00000  Uiso   1.00
C341   C     0.86570   0.48322   0.04201   0.00000  Uiso   1.00
C342   C     0.76275   0.46497   0.47891   0.00000  Uiso   1.00
C343   C     0.78570   0.45610   0.04508   0.00000  Uiso   1.00
C344   C     0.91417   0.49548   0.01467   0.00000  Uiso   1.00
C345   C     0.84536   0.48409   0.47300   0.00000  Uiso   1.00
C346   C     0.83213   0.47418   0.02058   0.00000  Uiso   1.00
C347   C     0.90994   0.37560   0.17763   0.00000  Uiso   1.00
C348   C     0.75662   0.62444   0.32225   0.00000  Uiso   1.00
C349   C     0.89463   0.49417   0.44610   0.00000  Uiso   1.00
C350   C     0.75193   0.45105   0.02419   0.00000  Uiso   1.00
C351   C     0.92860   0.49907   0.46667   0.00000  Uiso   1.00
C352   C     0.87115   0.64454   0.21605   0.00000  Uiso   1.00
C353   C     0.79553   0.35548   0.28394   0.00000  Uiso   1.00
C354   C     0.87162   0.35431   0.21489   0.00000  Uiso   1.00
F355   F     0.90686   0.62247   0.18279   0.00000  Uiso   1.00
F356   F     0.75984   0.37756   0.31722   0.00000  Uiso   1.00
F357   F     0.73543   0.44666   0.19329   0.00000  Uiso   1.00
F358   F     0.93117   0.55319   0.30688   0.00000  Uiso   1.00
H359   H     0.71694   0.43680   0.04384   0.00000  Uiso   1.00
H360   H     0.90828   0.49747   0.40875   0.00000  Uiso   1.00
H361   H     0.97802   0.45234   0.19893   0.00000  Uiso   1.00
H362   H     0.68862   0.54761   0.30113   0.00000  Uiso   1.00
H363   H     0.96578   0.50745   0.44513   0.00000  Uiso   1.00
H364   H     0.81377   0.47750   0.11241   0.00000  Uiso   1.00
H365   H     0.85004   0.51734   0.39148   0.00000  Uiso   1.00
H366   H     0.95706   0.51439   0.10026   0.00000  Uiso   1.00
H367   H     0.71384   0.46855   0.39575   0.00000  Uiso   1.00
H368   H     0.69318   0.44625   0.47670   0.00000  Uiso   1.00
H369   H     0.98424   0.51463   0.01530   0.00000  Uiso   1.00
H370   H     0.77506   0.44416   0.08002   0.00000  Uiso   1.00
N371   N     0.71426   0.50001   0.25001   0.00000  Uiso   1.00
N372   N     0.95241   0.49999   0.24999   0.00000  Uiso   1.00
N373   N     0.94049   0.39264   0.14782   0.00000  Uiso   1.00
N374   N     0.72598   0.60742   0.35200   0.00000  Uiso   1.00
O375   O     0.79512   0.56108   0.25001   0.00000  Uiso   1.00
O376   O     0.87154   0.43892   0.25000   0.00000  Uiso   1.00
O377   O     0.87157   0.56107   0.25000   0.00000  Uiso   1.00
O378   O     0.79510   0.43893   0.25000   0.00000  Uiso   1.00
O379   O     0.77328   0.50001   0.31613   0.00000  Uiso   1.00
O380   O     0.89339   0.49999   0.18388   0.00000  Uiso   1.00
O381   O     0.84972   0.50000   0.31612   0.00000  Uiso   1.00
O382   O     0.81695   0.50000   0.18388   0.00000  Uiso   1.00
Zn383  Zn    0.78229   0.50001   0.25000   0.00000  Uiso   1.00
Zn384  Zn    0.88438   0.49999   0.25000   0.00000  Uiso   1.00
C385   C     0.16651   0.91321   0.25043   0.00000  Uiso   1.00
C386   C     0.12836   0.97906   0.28506   0.00000  Uiso   1.00
C387   C     0.16699   0.70933   0.24914   0.00000  Uiso   1.00
C388   C     0.16635   0.95736   0.25084   0.00000  Uiso   1.00
C389   C     0.32054   0.80684   0.22163   0.00000  Uiso   1.00
C390   C     0.01277   0.85980   0.27840   0.00000  Uiso   1.00
C391   C     0.03509   0.80678   0.22166   0.00000  Uiso   1.00
C392   C     0.29821   0.85984   0.27840   0.00000  Uiso   1.00
C393   C     0.13621   0.83296   0.33799   0.00000  Uiso   1.00
C394   C     0.19716   0.83261   0.16203   0.00000  Uiso   1.00
C395   C     0.11794   0.82650   0.38814   0.00000  Uiso   1.00
C396   C     0.16682   0.75346   0.24956   0.00000  Uiso   1.00
C397   C     0.21641   0.82928   0.11145   0.00000  Uiso   1.00
C398   C     0.06152   0.79423   0.45814   0.00000  Uiso   1.00
C399   C     0.28048   0.83868   0.03593   0.00000  Uiso   1.00
C400   C     0.07279   0.80759   0.41245   0.00000  Uiso   1.00
C401   C     0.26502   0.83875   0.08425   0.00000  Uiso   1.00
C402   C     0.15071   0.83299   0.40993   0.00000  Uiso   1.00
C403   C     0.18440   0.81722   0.09034   0.00000  Uiso   1.00
C404   C     0.14236   0.81618   0.45367   0.00000  Uiso   1.00
C405   C     0.19904   0.81655   0.04201   0.00000  Uiso   1.00
C406   C     0.09608   0.79830   0.47891   0.00000  Uiso   1.00
C407   C     0.11904   0.78943   0.04508   0.00000  Uiso   1.00
C408   C     0.24751   0.82881   0.01467   0.00000  Uiso   1.00
C409   C     0.17869   0.81742   0.47300   0.00000  Uiso   1.00
C410   C     0.16546   0.80751   0.02058   0.00000  Uiso   1.00
C411   C     0.24327   0.70894   0.17763   0.00000  Uiso   1.00
C412   C     0.08995   0.95778   0.32225   0.00000  Uiso   1.00
C413   C     0.22797   0.82750   0.44610   0.00000  Uiso   1.00
C414   C     0.08527   0.78438   0.02419   0.00000  Uiso   1.00
C415   C     0.26193   0.83240   0.46667   0.00000  Uiso   1.00
C416   C     0.20449   0.97788   0.21605   0.00000  Uiso   1.00
C417   C     0.12886   0.68882   0.28394   0.00000  Uiso   1.00
C418   C     0.20495   0.68764   0.21489   0.00000  Uiso   1.00
F419   F     0.24020   0.95581   0.18279   0.00000  Uiso   1.00
F420   F     0.09318   0.71089   0.31722   0.00000  Uiso   1.00
F421   F     0.06876   0.77999   0.19329   0.00000  Uiso   1.00
F422   F     0.26450   0.88652   0.30688   0.00000  Uiso   1.00
H423   H     0.05027   0.77014   0.04384   0.00000  Uiso   1.00
H424   H     0.24161   0.83080   0.40875   0.00000  Uiso   1.00
H425   H     0.31136   0.78567   0.19893   0.00000  Uiso   1.00
H426   H     0.02195   0.88094   0.30113   0.00000  Uiso   1.00
H427   H     0.29911   0.84079   0.44513   0.00000  Uiso   1.00
H428   H     0.14710   0.81083   0.11241   0.00000  Uiso   1.00
H429   H     0.18337   0.85068   0.39148   0.00000  Uiso   1.00
H430   H     0.29039   0.84772   0.10026   0.00000  Uiso   1.00
H431   H     0.04717   0.80188   0.39575   0.00000  Uiso   1.00
H432   H     0.02651   0.77958   0.47670   0.00000  Uiso   1.00
H433   H     0.31757   0.84796   0.01530   0.00000  Uiso   1.00
H434   H     0.10840   0.77749   0.08002   0.00000  Uiso   1.00
N435   N     0.04759   0.83334   0.25001   0.00000  Uiso   1.00
N436   N     0.28574   0.83332   0.24999   0.00000  Uiso   1.00
N437   N     0.27383   0.72598   0.14782   0.00000  Uiso   1.00
N438   N     0.05931   0.94076   0.35200   0.00000  Uiso   1.00
O439   O     0.12846   0.89442   0.25001   0.00000  Uiso   1.00
O440   O     0.20488   0.77225   0.25000   0.00000  Uiso   1.00
O441   O     0.20490   0.89441   0.25000   0.00000  Uiso   1.00
O442   O     0.12843   0.77226   0.25000   0.00000  Uiso   1.00
O443   O     0.10661   0.83334   0.31613   0.00000  Uiso   1.00
O444   O     0.22672   0.83333   0.18388   0.00000  Uiso   1.00
O445   O     0.18305   0.83333   0.31612   0.00000  Uiso   1.00
O446   O     0.15028   0.83334   0.18388   0.00000  Uiso   1.00
Zn447  Zn    0.11562   0.83334   0.25000   0.00000  Uiso   1.00
Zn448  Zn    0.21771   0.83333   0.25000   0.00000  Uiso   1.00
C449   C     0.49985   0.91321   0.25043   0.00000  Uiso   1.00
C450   C     0.46169   0.97906   0.28506   0.00000  Uiso   1.00
C451   C     0.50032   0.70933   0.24914   0.00000  Uiso   1.00
C452   C     0.49968   0.95736   0.25084   0.00000  Uiso   1.00
C453   C     0.65388   0.80684   0.22163   0.00000  Uiso   1.00
C454   C     0.34611   0.85980   0.27840   0.00000  Uiso   1.00
C455   C     0.36843   0.80678   0.22166   0.00000  Uiso   1.00
C456   C     0.63155   0.85984   0.27840   0.00000  Uiso   1.00
C457   C     0.46954   0.83296   0.33799   0.00000  Uiso   1.00
C458   C     0.53050   0.83261   0.16203   0.00000  Uiso   1.00
C459   C     0.45127   0.82650   0.38814   0.00000  Uiso   1.00
C460   C     0.50015   0.75346   0.24956   0.00000  Uiso   1.00
C461   C     0.54974   0.82928   0.11145   0.00000  Uiso   1.00
C462   C     0.39485   0.79423   0.45814   0.00000  Uiso   1.00
C463   C     0.61381   0.83868   0.03593   0.00000  Uiso   1.00
C464   C     0.40612   0.80759   0.41245   0.00000  Uiso   1.00
C465   C     0.59835   0.83875   0.08425   0.00000  Uiso   1.00
C466   C     0.48405   0.83299   0.40993   0.00000  Uiso   1.00
C467   C     0.51773   0.81722   0.09034   0.00000  Uiso   1.00
C468   C     0.47569   0.81618   0.45367   0.00000  Uiso   1.00
C469   C     0.53237   0.81655   0.04201   0.00000  Uiso   1.00
C470   C     0.42942   0.79830   0.47891   0.00000  Uiso   1.00
C471   C     0.45237   0.78943   0.04508   0.00000  Uiso   1.00
C472   C     0.58084   0.82881   0.01467   0.00000  Uiso   1.00
C473   C     0.51202   0.81742   0.47300   0.00000  Uiso   1.00
C474   C     0.49880   0.80751   0.02058   0.00000  Uiso   1.00
C475   C     0.57660   0.70894   0.17763   0.00000  Uiso   1.00
C476   C     0.42329   0.95778   0.32225   0.00000  Uiso   1.00
C477   C     0.56130   0.82750   0.44610   0.00000  Uiso   1.00
C478   C     0.41860   0.78438   0.02419   0.00000  Uiso   1.00
C479   C     0.59526   0.83240   0.46667   0.00000  Uiso   1.00
C480   C     0.53782   0.97788   0.21605   0.00000  Uiso   1.00
C481   C     0.46219   0.68882   0.28394   0.00000  Uiso   1.00
C482   C     0.53829   0.68764   0.21489   0.00000  Uiso   1.00
F483   F     0.57353   0.95581   0.18279   0.00000  Uiso   1.00
F484   F     0.42651   0.71089   0.31722   0.00000  Uiso   1.00
F485   F     0.40209   0.77999   0.19329   0.00000  Uiso   1.00
F486   F     0.59783   0.88652   0.30688   0.00000  Uiso   1.00
H487   H     0.38360   0.77014   0.04384   0.00000  Uiso   1.00
H488   H     0.57494   0.83080   0.40875   0.00000  Uiso   1.00
H489   H     0.64469   0.78567   0.19893   0.00000  Uiso   1.00
H490   H     0.35528   0.88094   0.30113   0.00000  Uiso   1.00
H491   H     0.63245   0.84079   0.44513   0.00000  Uiso   1.00
H492   H     0.48043   0.81083   0.11241   0.00000  Uiso   1.00
H493   H     0.51671   0.85068   0.39148   0.00000  Uiso   1.00
H494   H     0.62373   0.84772   0.10026   0.00000  Uiso   1.00
H495   H     0.38051   0.80188   0.39575   0.00000  Uiso   1.00
H496   H     0.35985   0.77958   0.47670   0.00000  Uiso   1.00
H497   H     0.65091   0.84796   0.01530   0.00000  Uiso   1.00
H498   H     0.44173   0.77749   0.08002   0.00000  Uiso   1.00
N499   N     0.38093   0.83334   0.25001   0.00000  Uiso   1.00
N500   N     0.61907   0.83332   0.24999   0.00000  Uiso   1.00
N501   N     0.60716   0.72598   0.14782   0.00000  Uiso   1.00
N502   N     0.39265   0.94076   0.35200   0.00000  Uiso   1.00
O503   O     0.46179   0.89442   0.25001   0.00000  Uiso   1.00
O504   O     0.53821   0.77225   0.25000   0.00000  Uiso   1.00
O505   O     0.53823   0.89441   0.25000   0.00000  Uiso   1.00
O506   O     0.46177   0.77226   0.25000   0.00000  Uiso   1.00
O507   O     0.43994   0.83334   0.31613   0.00000  Uiso   1.00
O508   O     0.56006   0.83333   0.18388   0.00000  Uiso   1.00
O509   O     0.51639   0.83333   0.31612   0.00000  Uiso   1.00
O510   O     0.48361   0.83334   0.18388   0.00000  Uiso   1.00
Zn511  Zn    0.44896   0.83334   0.25000   0.00000  Uiso   1.00
Zn512  Zn    0.55104   0.83333   0.25000   0.00000  Uiso   1.00
C513   C     0.83318   0.91321   0.25043   0.00000  Uiso   1.00
C514   C     0.79503   0.97906   0.28506   0.00000  Uiso   1.00
C515   C     0.83365   0.70933   0.24914   0.00000  Uiso   1.00
C516   C     0.83301   0.95736   0.25084   0.00000  Uiso   1.00
C517   C     0.98721   0.80684   0.22163   0.00000  Uiso   1.00
C518   C     0.67944   0.85980   0.27840   0.00000  Uiso   1.00
C519   C     0.70176   0.80678   0.22166   0.00000  Uiso   1.00
C520   C     0.96488   0.85984   0.27840   0.00000  Uiso   1.00
C521   C     0.80287   0.83296   0.33799   0.00000  Uiso   1.00
C522   C     0.86383   0.83261   0.16203   0.00000  Uiso   1.00
C523   C     0.78461   0.82650   0.38814   0.00000  Uiso   1.00
C524   C     0.83349   0.75346   0.24956   0.00000  Uiso   1.00
C525   C     0.88308   0.82928   0.11145   0.00000  Uiso   1.00
C526   C     0.72819   0.79423   0.45814   0.00000  Uiso   1.00
C527   C     0.94714   0.83868   0.03593   0.00000  Uiso   1.00
C528   C     0.73946   0.80759   0.41245   0.00000  Uiso   1.00
C529   C     0.93169   0.83875   0.08425   0.00000  Uiso   1.00
C530   C     0.81738   0.83299   0.40993   0.00000  Uiso   1.00
C531   C     0.85106   0.81722   0.09034   0.00000  Uiso   1.00
C532   C     0.80902   0.81618   0.45367   0.00000  Uiso   1.00
C533   C     0.86570   0.81655   0.04201   0.00000  Uiso   1.00
C534   C     0.76275   0.79830   0.47891   0.00000  Uiso   1.00
C535   C     0.78570   0.78943   0.04508   0.00000  Uiso   1.00
C536   C     0.91417   0.82881   0.01467   0.00000  Uiso   1.00
C537   C     0.84536   0.81742   0.47300   0.00000  Uiso   1.00
C538   C     0.83213   0.80751   0.02058   0.00000  Uiso   1.00
C539   C     0.90994   0.70894   0.17763   0.00000  Uiso   1.00
C540   C     0.75662   0.95778   0.32225   0.00000  Uiso   1.00
C541   C     0.89463   0.82750   0.44610   0.00000  Uiso   1.00
C542   C     0.75193   0.78438   0.02419   0.00000  Uiso   1.00
C543   C     0.92860   0.83240   0.46667   0.00000  Uiso   1.00
C544   C     0.87115   0.97788   0.21605   0.00000  Uiso   1.00
C545   C     0.79553   0.68882   0.28394   0.00000  Uiso   1.00
C546   C     0.87162   0.68764   0.21489   0.00000  Uiso   1.00
F547   F     0.90686   0.95581   0.18279   0.00000  Uiso   1.00
F548   F     0.75984   0.71089   0.31722   0.00000  Uiso   1.00
F549   F     0.73543   0.77999   0.19329   0.00000  Uiso   1.00
F550   F     0.93117   0.88652   0.30688   0.00000  Uiso   1.00
H551   H     0.71694   0.77014   0.04384   0.00000  Uiso   1.00
H552   H     0.90828   0.83080   0.40875   0.00000  Uiso   1.00
H553   H     0.97802   0.78567   0.19893   0.00000  Uiso   1.00
H554   H     0.68862   0.88094   0.30113   0.00000  Uiso   1.00
H555   H     0.96578   0.84079   0.44513   0.00000  Uiso   1.00
H556   H     0.81377   0.81083   0.11241   0.00000  Uiso   1.00
H557   H     0.85004   0.85068   0.39148   0.00000  Uiso   1.00
H558   H     0.95706   0.84772   0.10026   0.00000  Uiso   1.00
H559   H     0.71384   0.80188   0.39575   0.00000  Uiso   1.00
H560   H     0.69318   0.77958   0.47670   0.00000  Uiso   1.00
H561   H     0.98424   0.84796   0.01530   0.00000  Uiso   1.00
H562   H     0.77506   0.77749   0.08002   0.00000  Uiso   1.00
N563   N     0.71426   0.83334   0.25001   0.00000  Uiso   1.00
N564   N     0.95241   0.83332   0.24999   0.00000  Uiso   1.00
N565   N     0.94049   0.72598   0.14782   0.00000  Uiso   1.00
N566   N     0.72598   0.94076   0.35200   0.00000  Uiso   1.00
O567   O     0.79512   0.89442   0.25001   0.00000  Uiso   1.00
O568   O     0.87154   0.77225   0.25000   0.00000  Uiso   1.00
O569   O     0.87157   0.89441   0.25000   0.00000  Uiso   1.00
O570   O     0.79510   0.77226   0.25000   0.00000  Uiso   1.00
O571   O     0.77328   0.83334   0.31613   0.00000  Uiso   1.00
O572   O     0.89339   0.83333   0.18388   0.00000  Uiso   1.00
O573   O     0.84972   0.83333   0.31612   0.00000  Uiso   1.00
O574   O     0.81695   0.83334   0.18388   0.00000  Uiso   1.00
Zn575  Zn    0.78229   0.83334   0.25000   0.00000  Uiso   1.00
Zn576  Zn    0.88438   0.83333   0.25000   0.00000  Uiso   1.00
C577   C     0.16651   0.24654   0.75043   0.00000  Uiso   1.00
C578   C     0.12836   0.31239   0.78506   0.00000  Uiso   1.00
C579   C     0.16699   0.04266   0.74914   0.00000  Uiso   1.00
C580   C     0.16635   0.29069   0.75084   0.00000  Uiso   1.00
C581   C     0.32054   0.14017   0.72163   0.00000  Uiso   1.00
C582   C     0.01277   0.19313   0.77840   0.00000  Uiso   1.00
C583   C     0.03509   0.14011   0.72166   0.00000  Uiso   1.00
C584   C     0.29821   0.19317   0.77840   0.00000  Uiso   1.00
C585   C     0.13621   0.16629   0.83799   0.00000  Uiso   1.00
C586   C     0.19716   0.16594   0.66203   0.00000  Uiso   1.00
C587   C     0.11794   0.15984   0.88814   0.00000  Uiso   1.00
C588   C     0.16682   0.08680   0.74956   0.00000  Uiso   1.00
C589   C     0.21641   0.16261   0.61145   0.00000  Uiso   1.00
C590   C     0.06152   0.12757   0.95814   0.00000  Uiso   1.00
C591   C     0.28048   0.17201   0.53593   0.00000  Uiso   1.00
C592   C     0.07279   0.14093   0.91245   0.00000  Uiso   1.00
C593   C     0.26502   0.17209   0.58425   0.00000  Uiso   1.00
C594   C     0.15071   0.16633   0.90993   0.00000  Uiso   1.00
C595   C     0.18440   0.15056   0.59034   0.00000  Uiso   1.00
C596   C     0.14236   0.14952   0.95367   0.00000  Uiso   1.00
C597   C     0.19904   0.14989   0.54201   0.00000  Uiso   1.00
C598   C     0.09608   0.13163   0.97891   0.00000  Uiso   1.00
C599   C     0.11904   0.12276   0.54508   0.00000  Uiso   1.00
C600   C     0.24751   0.16214   0.51467   0.00000  Uiso   1.00
C601   C     0.17869   0.15076   0.97300   0.00000  Uiso   1.00
C602   C     0.16546   0.14084   0.52058   0.00000  Uiso   1.00
C603   C     0.24327   0.04227   0.67763   0.00000  Uiso   1.00
C604   C     0.08995   0.29111   0.82225   0.00000  Uiso   1.00
C605   C     0.22797   0.16083   0.94610   0.00000  Uiso   1.00
C606   C     0.08527   0.11772   0.52419   0.00000  Uiso   1.00
C607   C     0.26193   0.16574   0.96667   0.00000  Uiso   1.00
C608   C     0.20449   0.31121   0.71605   0.00000  Uiso   1.00
C609   C     0.12886   0.02215   0.78394   0.00000  Uiso   1.00
C610   C     0.20495   0.02097   0.71489   0.00000  Uiso   1.00
F611   F     0.24020   0.28914   0.68279   0.00000  Uiso   1.00
F612   F     0.09318   0.04423   0.81722   0.00000  Uiso   1.00
F613   F     0.06876   0.11333   0.69329   0.00000  Uiso   1.00
F614   F     0.26450   0.21986   0.80688   0.00000  Uiso   1.00
H615   H     0.05027   0.10347   0.54384   0.00000  Uiso   1.00
H616   H     0.24161   0.16413   0.90875   0.00000  Uiso   1.00
H617   H     0.31136   0.11901   0.69893   0.00000  Uiso   1.00
H618   H     0.02195   0.21427   0.80113   0.00000  Uiso   1.00
H619   H     0.29911   0.17412   0.94513   0.00000  Uiso   1.00
H620   H     0.14710   0.14416   0.61241   0.00000  Uiso   1.00
H621   H     0.18337   0.18401   0.89148   0.00000  Uiso   1.00
H622   H     0.29039   0.18106   0.60026   0.00000  Uiso   1.00
H623   H     0.04717   0.13521   0.89575   0.00000  Uiso   1.00
H624   H     0.02651   0.11292   0.97670   0.00000  Uiso   1.00
H625   H     0.31757   0.18130   0.51530   0.00000  Uiso   1.00
H626   H     0.10840   0.11083   0.58002   0.00000  Uiso   1.00
N627   N     0.04759   0.16668   0.75001   0.00000  Uiso   1.00
N628   N     0.28574   0.16666   0.74999   0.00000  Uiso   1.00
N629   N     0.27383   0.05931   0.64782   0.00000  Uiso   1.00
N630   N     0.05931   0.27409   0.85200   0.00000  Uiso   1.00
O631   O     0.12846   0.22775   0.75001   0.00000  Uiso   1.00
O632   O     0.20488   0.10558   0.75000   0.00000  Uiso   1.00
O633   O     0.20490   0.22774   0.75000   0.00000  Uiso   1.00
O634   O     0.12843   0.10559   0.75000   0.00000  Uiso   1.00
O635   O     0.10661   0.16667   0.81613   0.00000  Uiso   1.00
O636   O     0.22672   0.16666   0.68388   0.00000  Uiso   1.00
O637   O     0.18305   0.16666   0.81612   0.00000  Uiso   1.00
O638   O     0.15028   0.16667   0.68388   0.00000  Uiso   1.00
Zn639  Zn    0.11562   0.16667   0.75000   0.00000  Uiso   1.00
Zn640  Zn    0.21771   0.16666   0.75000   0.00000  Uiso   1.00
C641   C     0.49985   0.24654   0.75043   0.00000  Uiso   1.00
C642   C     0.46169   0.31239   0.78506   0.00000  Uiso   1.00
C643   C     0.50032   0.04266   0.74914   0.00000  Uiso   1.00
C644   C     0.49968   0.29069   0.75084   0.00000  Uiso   1.00
C645   C     0.65388   0.14017   0.72163   0.00000  Uiso   1.00
C646   C     0.34611   0.19313   0.77840   0.00000  Uiso   1.00
C647   C     0.36843   0.14011   0.72166   0.00000  Uiso   1.00
C648   C     0.63155   0.19317   0.77840   0.00000  Uiso   1.00
C649   C     0.46954   0.16629   0.83799   0.00000  Uiso   1.00
C650   C     0.53050   0.16594   0.66203   0.00000  Uiso   1.00
C651   C     0.45127   0.15984   0.88814   0.00000  Uiso   1.00
C652   C     0.50015   0.08680   0.74956   0.00000  Uiso   1.00
C653   C     0.54974   0.16261   0.61145   0.00000  Uiso   1.00
C654   C     0.39485   0.12757   0.95814   0.00000  Uiso   1.00
C655   C     0.61381   0.17201   0.53593   0.00000  Uiso   1.00
C656   C     0.40612   0.14093   0.91245   0.00000  Uiso   1.00
C657   C     0.59835   0.17209   0.58425   0.00000  Uiso   1.00
C658   C     0.48405   0.16633   0.90993   0.00000  Uiso   1.00
C659   C     0.51773   0.15056   0.59034   0.00000  Uiso   1.00
C660   C     0.47569   0.14952   0.95367   0.00000  Uiso   1.00
C661   C     0.53237   0.14989   0.54201   0.00000  Uiso   1.00
C662   C     0.42942   0.13163   0.97891   0.00000  Uiso   1.00
C663   C     0.45237   0.12276   0.54508   0.00000  Uiso   1.00
C664   C     0.58084   0.16214   0.51467   0.00000  Uiso   1.00
C665   C     0.51202   0.15076   0.97300   0.00000  Uiso   1.00
C666   C     0.49880   0.14084   0.52058   0.00000  Uiso   1.00
C667   C     0.57660   0.04227   0.67763   0.00000  Uiso   1.00
C668   C     0.42329   0.29111   0.82225   0.00000  Uiso   1.00
C669   C     0.56130   0.16083   0.94610   0.00000  Uiso   1.00
C670   C     0.41860   0.11772   0.52419   0.00000  Uiso   1.00
C671   C     0.59526   0.16574   0.96667   0.00000  Uiso   1.00
C672   C     0.53782   0.31121   0.71605   0.00000  Uiso   1.00
C673   C     0.46219   0.02215   0.78394   0.00000  Uiso   1.00
C674   C     0.53829   0.02097   0.71489   0.00000  Uiso   1.00
F675   F     0.57353   0.28914   0.68279   0.00000  Uiso   1.00
F676   F     0.42651   0.04423   0.81722   0.00000  Uiso   1.00
F677   F     0.40209   0.11333   0.69329   0.00000  Uiso   1.00
F678   F     0.59783   0.21986   0.80688   0.00000  Uiso   1.00
H679   H     0.38360   0.10347   0.54384   0.00000  Uiso   1.00
H680   H     0.57494   0.16413   0.90875   0.00000  Uiso   1.00
H681   H     0.64469   0.11901   0.69893   0.00000  Uiso   1.00
H682   H     0.35528   0.21427   0.80113   0.00000  Uiso   1.00
H683   H     0.63245   0.17412   0.94513   0.00000  Uiso   1.00
H684   H     0.48043   0.14416   0.61241   0.00000  Uiso   1.00
H685   H     0.51671   0.18401   0.89148   0.00000  Uiso   1.00
H686   H     0.62373   0.18106   0.60026   0.00000  Uiso   1.00
H687   H     0.38051   0.13521   0.89575   0.00000  Uiso   1.00
H688   H     0.35985   0.11292   0.97670   0.00000  Uiso   1.00
H689   H     0.65091   0.18130   0.51530   0.00000  Uiso   1.00
H690   H     0.44173   0.11083   0.58002   0.00000  Uiso   1.00
N691   N     0.38093   0.16668   0.75001   0.00000  Uiso   1.00
N692   N     0.61907   0.16666   0.74999   0.00000  Uiso   1.00
N693   N     0.60716   0.05931   0.64782   0.00000  Uiso   1.00
N694   N     0.39265   0.27409   0.85200   0.00000  Uiso   1.00
O695   O     0.46179   0.22775   0.75001   0.00000  Uiso   1.00
O696   O     0.53821   0.10558   0.75000   0.00000  Uiso   1.00
O697   O     0.53823   0.22774   0.75000   0.00000  Uiso   1.00
O698   O     0.46177   0.10559   0.75000   0.00000  Uiso   1.00
O699   O     0.43994   0.16667   0.81613   0.00000  Uiso   1.00
O700   O     0.56006   0.16666   0.68388   0.00000  Uiso   1.00
O701   O     0.51639   0.16666   0.81612   0.00000  Uiso   1.00
O702   O     0.48361   0.16667   0.68388   0.00000  Uiso   1.00
Zn703  Zn    0.44896   0.16667   0.75000   0.00000  Uiso   1.00
Zn704  Zn    0.55104   0.16666   0.75000   0.00000  Uiso   1.00
C705   C     0.83318   0.24654   0.75043   0.00000  Uiso   1.00
C706   C     0.79503   0.31239   0.78506   0.00000  Uiso   1.00
C707   C     0.83365   0.04266   0.74914   0.00000  Uiso   1.00
C708   C     0.83301   0.29069   0.75084   0.00000  Uiso   1.00
C709   C     0.98721   0.14017   0.72163   0.00000  Uiso   1.00
C710   C     0.67944   0.19313   0.77840   0.00000  Uiso   1.00
C711   C     0.70176   0.14011   0.72166   0.00000  Uiso   1.00
C712   C     0.96488   0.19317   0.77840   0.00000  Uiso   1.00
C713   C     0.80287   0.16629   0.83799   0.00000  Uiso   1.00
C714   C     0.86383   0.16594   0.66203   0.00000  Uiso   1.00
C715   C     0.78461   0.15984   0.88814   0.00000  Uiso   1.00
C716   C     0.83349   0.08680   0.74956   0.00000  Uiso   1.00
C717   C     0.88308   0.16261   0.61145   0.00000  Uiso   1.00
C718   C     0.72819   0.12757   0.95814   0.00000  Uiso   1.00
C719   C     0.94714   0.17201   0.53593   0.00000  Uiso   1.00
C720   C     0.73946   0.14093   0.91245   0.00000  Uiso   1.00
C721   C     0.93169   0.17209   0.58425   0.00000  Uiso   1.00
C722   C     0.81738   0.16633   0.90993   0.00000  Uiso   1.00
C723   C     0.85106   0.15056   0.59034   0.00000  Uiso   1.00
C724   C     0.80902   0.14952   0.95367   0.00000  Uiso   1.00
C725   C     0.86570   0.14989   0.54201   0.00000  Uiso   1.00
C726   C     0.76275   0.13163   0.97891   0.00000  Uiso   1.00
C727   C     0.78570   0.12276   0.54508   0.00000  Uiso   1.00
C728   C     0.91417   0.16214   0.51467   0.00000  Uiso   1.00
C729   C     0.84536   0.15076   0.97300   0.00000  Uiso   1.00
C730   C     0.83213   0.14084   0.52058   0.00000  Uiso   1.00
C731   C     0.90994   0.04227   0.67763   0.00000  Uiso   1.00
C732   C     0.75662   0.29111   0.82225   0.00000  Uiso   1.00
C733   C     0.89463   0.16083   0.94610   0.00000  Uiso   1.00
C734   C     0.75193   0.11772   0.52419   0.00000  Uiso   1.00
C735   C     0.92860   0.16574   0.96667   0.00000  Uiso   1.00
C736   C     0.87115   0.31121   0.71605   0.00000  Uiso   1.00
C737   C     0.79553   0.02215   0.78394   0.00000  Uiso   1.00
C738   C     0.87162   0.02097   0.71489   0.00000  Uiso   1.00
F739   F     0.90686   0.28914   0.68279   0.00000  Uiso   1.00
F740   F     0.75984   0.04423   0.81722   0.00000  Uiso   1.00
F741   F     0.73543   0.11333   0.69329   0.00000  Uiso   1.00
F742   F     0.93117   0.21986   0.80688   0.00000  Uiso   1.00
H743   H     0.71694   0.10347   0.54384   0.00000  Uiso   1.00
H744   H     0.90828   0.16413   0.90875   0.00000  Uiso   1.00
H745   H     0.97802   0.11901   0.69893   0.00000  Uiso   1.00
H746   H     0.68862   0.21427   0.80113   0.00000  Uiso   1.00
H747   H     0.96578   0.17412   0.94513   0.00000  Uiso   1.00
H748   H     0.81377   0.14416   0.61241   0.00000  Uiso   1.00
H749   H     0.85004   0.18401   0.89148   0.00000  Uiso   1.00
H750   H     0.95706   0.18106   0.60026   0.00000  Uiso   1.00
H751   H     0.71384   0.13521   0.89575   0.00000  Uiso   1.00
H752   H     0.69318   0.11292   0.97670   0.00000  Uiso   1.00
H753   H     0.98424   0.18130   0.51530   0.00000  Uiso   1.00
H754   H     0.77506   0.11083   0.58002   0.00000  Uiso   1.00
N755   N     0.71426   0.16668   0.75001   0.00000  Uiso   1.00
N756   N     0.95241   0.16666   0.74999   0.00000  Uiso   1.00
N757   N     0.94049   0.05931   0.64782   0.00000  Uiso   1.00
N758   N     0.72598   0.27409   0.85200   0.00000  Uiso   1.00
O759   O     0.79512   0.22775   0.75001   0.00000  Uiso   1.00
O760   O     0.87154   0.10558   0.75000   0.00000  Uiso   1.00
O761   O     0.87157   0.22774   0.75000   0.00000  Uiso   1.00
O762   O     0.79510   0.10559   0.75000   0.00000  Uiso   1.00
O763   O     0.77328   0.16667   0.81613   0.00000  Uiso   1.00
O764   O     0.89339   0.16666   0.68388   0.00000  Uiso   1.00
O765   O     0.84972   0.16666   0.81612   0.00000  Uiso   1.00
O766   O     0.81695   0.16667   0.68388   0.00000  Uiso   1.00
Zn767  Zn    0.78229   0.16667   0.75000   0.00000  Uiso   1.00
Zn768  Zn    0.88438   0.16666   0.75000   0.00000  Uiso   1.00
C769   C     0.16651   0.57988   0.75043   0.00000  Uiso   1.00
C770   C     0.12836   0.64572   0.78506   0.00000  Uiso   1.00
C771   C     0.16699   0.37600   0.74914   0.00000  Uiso   1.00
C772   C     0.16635   0.62402   0.75084   0.00000  Uiso   1.00
C773   C     0.32054   0.47351   0.72163   0.00000  Uiso   1.00
C774   C     0.01277   0.52646   0.77840   0.00000  Uiso   1.00
C775   C     0.03509   0.47345   0.72166   0.00000  Uiso   1.00
C776   C     0.29821   0.52651   0.77840   0.00000  Uiso   1.00
C777   C     0.13621   0.49962   0.83799   0.00000  Uiso   1.00
C778   C     0.19716   0.49928   0.66203   0.00000  Uiso   1.00
C779   C     0.11794   0.49317   0.88814   0.00000  Uiso   1.00
C780   C     0.16682   0.42013   0.74956   0.00000  Uiso   1.00
C781   C     0.21641   0.49594   0.61145   0.00000  Uiso   1.00
C782   C     0.06152   0.46090   0.95814   0.00000  Uiso   1.00
C783   C     0.28048   0.50535   0.53593   0.00000  Uiso   1.00
C784   C     0.07279   0.47426   0.91245   0.00000  Uiso   1.00
C785   C     0.26502   0.50542   0.58425   0.00000  Uiso   1.00
C786   C     0.15071   0.49966   0.90993   0.00000  Uiso   1.00
C787   C     0.18440   0.48389   0.59034   0.00000  Uiso   1.00
C788   C     0.14236   0.48285   0.95367   0.00000  Uiso   1.00
C789   C     0.19904   0.48322   0.54201   0.00000  Uiso   1.00
C790   C     0.09608   0.46497   0.97891   0.00000  Uiso   1.00
C791   C     0.11904   0.45610   0.54508   0.00000  Uiso   1.00
C792   C     0.24751   0.49548   0.51467   0.00000  Uiso   1.00
C793   C     0.17869   0.48409   0.97300   0.00000  Uiso   1.00
C794   C     0.16546   0.47418   0.52058   0.00000  Uiso   1.00
C795   C     0.24327   0.37560   0.67763   0.00000  Uiso   1.00
C796   C     0.08995   0.62444   0.82225   0.00000  Uiso   1.00
C797   C     0.22797   0.49417   0.94610   0.00000  Uiso   1.00
C798   C     0.08527   0.45105   0.52419   0.00000  Uiso   1.00
C799   C     0.26193   0.49907   0.96667   0.00000  Uiso   1.00
C800   C     0.20449   0.64454   0.71605   0.00000  Uiso   1.00
C801   C     0.12886   0.35548   0.78394   0.00000  Uiso   1.00
C802   C     0.20495   0.35431   0.71489   0.00000  Uiso   1.00
F803   F     0.24020   0.62247   0.68279   0.00000  Uiso   1.00
F804   F     0.09318   0.37756   0.81722   0.00000  Uiso   1.00
F805   F     0.06876   0.44666   0.69329   0.00000  Uiso   1.00
F806   F     0.26450   0.55319   0.80688   0.00000  Uiso   1.00
H807   H     0.05027   0.43680   0.54384   0.00000  Uiso   1.00
H808   H     0.24161   0.49747   0.90875   0.00000  Uiso   1.00
H809   H     0.31136   0.45234   0.69893   0.00000  Uiso   1.00
H810   H     0.02195   0.54761   0.80113   0.00000  Uiso   1.00
H811   H     0.29911   0.50745   0.94513   0.00000  Uiso   1.00
H812   H     0.14710   0.47750   0.61241   0.00000  Uiso   1.00
H813   H     0.18337   0.51734   0.89148   0.00000  Uiso   1.00
H814   H     0.29039   0.51439   0.60026   0.00000  Uiso   1.00
H815   H     0.04717   0.46855   0.89575   0.00000  Uiso   1.00
H816   H     0.02651   0.44625   0.97670   0.00000  Uiso   1.00
H817   H     0.31757   0.51463   0.51530   0.00000  Uiso   1.00
H818   H     0.10840   0.44416   0.58002   0.00000  Uiso   1.00
N819   N     0.04759   0.50001   0.75001   0.00000  Uiso   1.00
N820   N     0.28574   0.49999   0.74999   0.00000  Uiso   1.00
N821   N     0.27383   0.39264   0.64782   0.00000  Uiso   1.00
N822   N     0.05931   0.60742   0.85200   0.00000  Uiso   1.00
O823   O     0.12846   0.56108   0.75001   0.00000  Uiso   1.00
O824   O     0.20488   0.43892   0.75000   0.00000  Uiso   1.00
O825   O     0.20490   0.56107   0.75000   0.00000  Uiso   1.00
O826   O     0.12843   0.43893   0.75000   0.00000  Uiso   1.00
O827   O     0.10661   0.50001   0.81613   0.00000  Uiso   1.00
O828   O     0.22672   0.49999   0.68388   0.00000  Uiso   1.00
O829   O     0.18305   0.50000   0.81612   0.00000  Uiso   1.00
O830   O     0.15028   0.50000   0.68388   0.00000  Uiso   1.00
Zn831  Zn    0.11562   0.50001   0.75000   0.00000  Uiso   1.00
Zn832  Zn    0.21771   0.49999   0.75000   0.00000  Uiso   1.00
C833   C     0.49985   0.57988   0.75043   0.00000  Uiso   1.00
C834   C     0.46169   0.64572   0.78506   0.00000  Uiso   1.00
C835   C     0.50032   0.37600   0.74914   0.00000  Uiso   1.00
C836   C     0.49968   0.62402   0.75084   0.00000  Uiso   1.00
C837   C     0.65388   0.47351   0.72163   0.00000  Uiso   1.00
C838   C     0.34611   0.52646   0.77840   0.00000  Uiso   1.00
C839   C     0.36843   0.47345   0.72166   0.00000  Uiso   1.00
C840   C     0.63155   0.52651   0.77840   0.00000  Uiso   1.00
C841   C     0.46954   0.49962   0.83799   0.00000  Uiso   1.00
C842   C     0.53050   0.49928   0.66203   0.00000  Uiso   1.00
C843   C     0.45127   0.49317   0.88814   0.00000  Uiso   1.00
C844   C     0.50015   0.42013   0.74956   0.00000  Uiso   1.00
C845   C     0.54974   0.49594   0.61145   0.00000  Uiso   1.00
C846   C     0.39485   0.46090   0.95814   0.00000  Uiso   1.00
C847   C     0.61381   0.50535   0.53593   0.00000  Uiso   1.00
C848   C     0.40612   0.47426   0.91245   0.00000  Uiso   1.00
C849   C     0.59835   0.50542   0.58425   0.00000  Uiso   1.00
C850   C     0.48405   0.49966   0.90993   0.00000  Uiso   1.00
C851   C     0.51773   0.48389   0.59034   0.00000  Uiso   1.00
C852   C     0.47569   0.48285   0.95367   0.00000  Uiso   1.00
C853   C     0.53237   0.48322   0.54201   0.00000  Uiso   1.00
C854   C     0.42942   0.46497   0.97891   0.00000  Uiso   1.00
C855   C     0.45237   0.45610   0.54508   0.00000  Uiso   1.00
C856   C     0.58084   0.49548   0.51467   0.00000  Uiso   1.00
C857   C     0.51202   0.48409   0.97300   0.00000  Uiso   1.00
C858   C     0.49880   0.47418   0.52058   0.00000  Uiso   1.00
C859   C     0.57660   0.37560   0.67763   0.00000  Uiso   1.00
C860   C     0.42329   0.62444   0.82225   0.00000  Uiso   1.00
C861   C     0.56130   0.49417   0.94610   0.00000  Uiso   1.00
C862   C     0.41860   0.45105   0.52419   0.00000  Uiso   1.00
C863   C     0.59526   0.49907   0.96667   0.00000  Uiso   1.00
C864   C     0.53782   0.64454   0.71605   0.00000  Uiso   1.00
C865   C     0.46219   0.35548   0.78394   0.00000  Uiso   1.00
C866   C     0.53829   0.35431   0.71489   0.00000  Uiso   1.00
F867   F     0.57353   0.62247   0.68279   0.00000  Uiso   1.00
F868   F     0.42651   0.37756   0.81722   0.00000  Uiso   1.00
F869   F     0.40209   0.44666   0.69329   0.00000  Uiso   1.00
F870   F     0.59783   0.55319   0.80688   0.00000  Uiso   1.00
H871   H     0.38360   0.43680   0.54384   0.00000  Uiso   1.00
H872   H     0.57494   0.49747   0.90875   0.00000  Uiso   1.00
H873   H     0.64469   0.45234   0.69893   0.00000  Uiso   1.00
H874   H     0.35528   0.54761   0.80113   0.00000  Uiso   1.00
H875   H     0.63245   0.50745   0.94513   0.00000  Uiso   1.00
H876   H     0.48043   0.47750   0.61241   0.00000  Uiso   1.00
H877   H     0.51671   0.51734   0.89148   0.00000  Uiso   1.00
H878   H     0.62373   0.51439   0.60026   0.00000  Uiso   1.00
H879   H     0.38051   0.46855   0.89575   0.00000  Uiso   1.00
H880   H     0.35985   0.44625   0.97670   0.00000  Uiso   1.00
H881   H     0.65091   0.51463   0.51530   0.00000  Uiso   1.00
H882   H     0.44173   0.44416   0.58002   0.00000  Uiso   1.00
N883   N     0.38093   0.50001   0.75001   0.00000  Uiso   1.00
N884   N     0.61907   0.49999   0.74999   0.00000  Uiso   1.00
N885   N     0.60716   0.39264   0.64782   0.00000  Uiso   1.00
N886   N     0.39265   0.60742   0.85200   0.00000  Uiso   1.00
O887   O     0.46179   0.56108   0.75001   0.00000  Uiso   1.00
O888   O     0.53821   0.43892   0.75000   0.00000  Uiso   1.00
O889   O     0.53823   0.56107   0.75000   0.00000  Uiso   1.00
O890   O     0.46177   0.43893   0.75000   0.00000  Uiso   1.00
O891   O     0.43994   0.50001   0.81613   0.00000  Uiso   1.00
O892   O     0.56006   0.49999   0.68388   0.00000  Uiso   1.00
O893   O     0.51639   0.50000   0.81612   0.00000  Uiso   1.00
O894   O     0.48361   0.50000   0.68388   0.00000  Uiso   1.00
Zn895  Zn    0.44896   0.50001   0.75000   0.00000  Uiso   1.00
Zn896  Zn    0.55104   0.49999   0.75000   0.00000  Uiso   1.00
C897   C     0.83318   0.57988   0.75043   0.00000  Uiso   1.00
C898   C     0.79503   0.64572   0.78506   0.00000  Uiso   1.00
C899   C     0.83365   0.37600   0.74914   0.00000  Uiso   1.00
C900   C     0.83301   0.62402   0.75084   0.00000  Uiso   1.00
C901   C     0.98721   0.47351   0.72163   0.00000  Uiso   1.00
C902   C     0.67944   0.52646   0.77840   0.00000  Uiso   1.00
C903   C     0.70176   0.47345   0.72166   0.00000  Uiso   1.00
C904   C     0.96488   0.52651   0.77840   0.00000  Uiso   1.00
C905   C     0.80287   0.49962   0.83799   0.00000  Uiso   1.00
C906   C     0.86383   0.49928   0.66203   0.00000  Uiso   1.00
C907   C     0.78461   0.49317   0.88814   0.00000  Uiso   1.00
C908   C     0.83349   0.42013   0.74956   0.00000  Uiso   1.00
C909   C     0.88308   0.49594   0.61145   0.00000  Uiso   1.00
C910   C     0.72819   0.46090   0.95814   0.00000  Uiso   1.00
C911   C     0.94714   0.50535   0.53593   0.00000  Uiso   1.00
C912   C     0.73946   0.47426   0.91245   0.00000  Uiso   1.00
C913   C     0.93169   0.50542   0.58425   0.00000  Uiso   1.00
C914   C     0.81738   0.49966   0.90993   0.00000  Uiso   1.00
C915   C     0.85106   0.48389   0.59034   0.00000  Uiso   1.00
C916   C     0.80902   0.48285   0.95367   0.00000  Uiso   1.00
C917   C     0.86570   0.48322   0.54201   0.00000  Uiso   1.00
C918   C     0.76275   0.46497   0.97891   0.00000  Uiso   1.00
C919   C     0.78570   0.45610   0.54508   0.00000  Uiso   1.00
C920   C     0.91417   0.49548   0.51467   0.00000  Uiso   1.00
C921   C     0.84536   0.48409   0.97300   0.00000  Uiso   1.00
C922   C     0.83213   0.47418   0.52058   0.00000  Uiso   1.00
C923   C     0.90994   0.37560   0.67763   0.00000  Uiso   1.00
C924   C     0.75662   0.62444   0.82225   0.00000  Uiso   1.00
C925   C     0.89463   0.49417   0.94610   0.00000  Uiso   1.00
C926   C     0.75193   0.45105   0.52419   0.00000  Uiso   1.00
C927   C     0.92860   0.49907   0.96667   0.00000  Uiso   1.00
C928   C     0.87115   0.64454   0.71605   0.00000  Uiso   1.00
C929   C     0.79553   0.35548   0.78394   0.00000  Uiso   1.00
C930   C     0.87162   0.35431   0.71489   0.00000  Uiso   1.00
F931   F     0.90686   0.62247   0.68279   0.00000  Uiso   1.00
F932   F     0.75984   0.37756   0.81722   0.00000  Uiso   1.00
F933   F     0.73543   0.44666   0.69329   0.00000  Uiso   1.00
F934   F     0.93117   0.55319   0.80688   0.00000  Uiso   1.00
H935   H     0.71694   0.43680   0.54384   0.00000  Uiso   1.00
H936   H     0.90828   0.49747   0.90875   0.00000  Uiso   1.00
H937   H     0.97802   0.45234   0.69893   0.00000  Uiso   1.00
H938   H     0.68862   0.54761   0.80113   0.00000  Uiso   1.00
H939   H     0.96578   0.50745   0.94513   0.00000  Uiso   1.00
H940   H     0.81377   0.47750   0.61241   0.00000  Uiso   1.00
H941   H     0.85004   0.51734   0.89148   0.00000  Uiso   1.00
H942   H     0.95706   0.51439   0.60026   0.00000  Uiso   1.00
H943   H     0.71384   0.46855   0.89575   0.00000  Uiso   1.00
H944   H     0.69318   0.44625   0.97670   0.00000  Uiso   1.00
H945   H     0.98424   0.51463   0.51530   0.00000  Uiso   1.00
H946   H     0.77506   0.44416   0.58002   0.00000  Uiso   1.00
N947   N     0.71426   0.50001   0.75001   0.00000  Uiso   1.00
N948   N     0.95241   0.49999   0.74999   0.00000  Uiso   1.00
N949   N     0.94049   0.39264   0.64782   0.00000  Uiso   1.00
N950   N     0.72598   0.60742   0.85200   0.00000  Uiso   1.00
O951   O     0.79512   0.56108   0.75001   0.00000  Uiso   1.00
O952   O     0.87154   0.43892   0.75000   0.00000  Uiso   1.00
O953   O     0.87157   0.56107   0.75000   0.00000  Uiso   1.00
O954   O     0.79510   0.43893   0.75000   0.00000  Uiso   1.00
O955   O     0.77328   0.50001   0.81613   0.00000  Uiso   1.00
O956   O     0.89339   0.49999   0.68388   0.00000  Uiso   1.00
O957   O     0.84972   0.50000   0.81612   0.00000  Uiso   1.00
O958   O     0.81695   0.50000   0.68388   0.00000  Uiso   1.00
Zn959  Zn    0.78229   0.50001   0.75000   0.00000  Uiso   1.00
Zn960  Zn    0.88438   0.49999   0.75000   0.00000  Uiso   1.00
C961   C     0.16651   0.91321   0.75043   0.00000  Uiso   1.00
C962   C     0.12836   0.97906   0.78506   0.00000  Uiso   1.00
C963   C     0.16699   0.70933   0.74914   0.00000  Uiso   1.00
C964   C     0.16635   0.95736   0.75084   0.00000  Uiso   1.00
C965   C     0.32054   0.80684   0.72163   0.00000  Uiso   1.00
C966   C     0.01277   0.85980   0.77840   0.00000  Uiso   1.00
C967   C     0.03509   0.80678   0.72166   0.00000  Uiso   1.00
C968   C     0.29821   0.85984   0.77840   0.00000  Uiso   1.00
C969   C     0.13621   0.83296   0.83799   0.00000  Uiso   1.00
C970   C     0.19716   0.83261   0.66203   0.00000  Uiso   1.00
C971   C     0.11794   0.82650   0.88814   0.00000  Uiso   1.00
C972   C     0.16682   0.75346   0.74956   0.00000  Uiso   1.00
C973   C     0.21641   0.82928   0.61145   0.00000  Uiso   1.00
C974   C     0.06152   0.79423   0.95814   0.00000  Uiso   1.00
C975   C     0.28048   0.83868   0.53593   0.00000  Uiso   1.00
C976   C     0.07279   0.80759   0.91245   0.00000  Uiso   1.00
C977   C     0.26502   0.83875   0.58425   0.00000  Uiso   1.00
C978   C     0.15071   0.83299   0.90993   0.00000  Uiso   1.00
C979   C     0.18440   0.81722   0.59034   0.00000  Uiso   1.00
C980   C     0.14236   0.81618   0.95367   0.00000  Uiso   1.00
C981   C     0.19904   0.81655   0.54201   0.00000  Uiso   1.00
C982   C     0.09608   0.79830   0.97891   0.00000  Uiso   1.00
C983   C     0.11904   0.78943   0.54508   0.00000  Uiso   1.00
C984   C     0.24751   0.82881   0.51467   0.00000  Uiso   1.00
C985   C     0.17869   0.81742   0.97300   0.00000  Uiso   1.00
C986   C     0.16546   0.80751   0.52058   0.00000  Uiso   1.00
C987   C     0.24327   0.70894   0.67763   0.00000  Uiso   1.00
C988   C     0.08995   0.95778   0.82225   0.00000  Uiso   1.00
C989   C     0.22797   0.82750   0.94610   0.00000  Uiso   1.00
C990   C     0.08527   0.78438   0.52419   0.00000  Uiso   1.00
C991   C     0.26193   0.83240   0.96667   0.00000  Uiso   1.00
C992   C     0.20449   0.97788   0.71605   0.00000  Uiso   1.00
C993   C     0.12886   0.68882   0.78394   0.00000  Uiso   1.00
C994   C     0.20495   0.68764   0.71489   0.00000  Uiso   1.00
F995   F     0.24020   0.95581   0.68279   0.00000  Uiso   1.00
F996   F     0.09318   0.71089   0.81722   0.00000  Uiso   1.00
F997   F     0.06876   0.77999   0.69329   0.00000  Uiso   1.00
F998   F     0.26450   0.88652   0.80688   0.00000  Uiso   1.00
H999   H     0.05027   0.77014   0.54384   0.00000  Uiso   1.00
H1000  H     0.24161   0.83080   0.90875   0.00000  Uiso   1.00
H1001  H     0.31136   0.78567   0.69893   0.00000  Uiso   1.00
H1002  H     0.02195   0.88094   0.80113   0.00000  Uiso   1.00
H1003  H     0.29911   0.84079   0.94513   0.00000  Uiso   1.00
H1004  H     0.14710   0.81083   0.61241   0.00000  Uiso   1.00
H1005  H     0.18337   0.85068   0.89148   0.00000  Uiso   1.00
H1006  H     0.29039   0.84772   0.60026   0.00000  Uiso   1.00
H1007  H     0.04717   0.80188   0.89575   0.00000  Uiso   1.00
H1008  H     0.02651   0.77958   0.97670   0.00000  Uiso   1.00
H1009  H     0.31757   0.84796   0.51530   0.00000  Uiso   1.00
H1010  H     0.10840   0.77749   0.58002   0.00000  Uiso   1.00
N1011  N     0.04759   0.83334   0.75001   0.00000  Uiso   1.00
N1012  N     0.28574   0.83332   0.74999   0.00000  Uiso   1.00
N1013  N     0.27383   0.72598   0.64782   0.00000  Uiso   1.00
N1014  N     0.05931   0.94076   0.85200   0.00000  Uiso   1.00
O1015  O     0.12846   0.89442   0.75001   0.00000  Uiso   1.00
O1016  O     0.20488   0.77225   0.75000   0.00000  Uiso   1.00
O1017  O     0.20490   0.89441   0.75000   0.00000  Uiso   1.00
O1018  O     0.12843   0.77226   0.75000   0.00000  Uiso   1.00
O1019  O     0.10661   0.83334   0.81613   0.00000  Uiso   1.00
O1020  O     0.22672   0.83333   0.68388   0.00000  Uiso   1.00
O1021  O     0.18305   0.83333   0.81612   0.00000  Uiso   1.00
O1022  O     0.15028   0.83334   0.68388   0.00000  Uiso   1.00
Zn1023 Zn    0.11562   0.83334   0.75000   0.00000  Uiso   1.00
Zn1024 Zn    0.21771   0.83333   0.75000   0.00000  Uiso   1.00
C1025  C     0.49985   0.91321   0.75043   0.00000  Uiso   1.00
C1026  C     0.46169   0.97906   0.78506   0.00000  Uiso   1.00
C1027  C     0.50032   0.70933   0.74914   0.00000  Uiso   1.00
C1028  C     0.49968   0.95736   0.75084   0.00000  Uiso   1.00
C1029  C     0.65388   0.80684   0.72163   0.00000  Uiso   1.00
C1030  C     0.34611   0.85980   0.77840   0.00000  Uiso   1.00
C1031  C     0.36843   0.80678   0.72166   0.00000  Uiso   1.00
C1032  C     0.63155   0.85984   0.77840   0.00000  Uiso   1.00
C1033  C     0.46954   0.83296   0.83799   0.00000  Uiso   1.00
C1034  C     0.53050   0.83261   0.66203   0.00000  Uiso   1.00
C1035  C     0.45127   0.82650   0.88814   0.00000  Uiso   1.00
C1036  C     0.50015   0.75346   0.74956   0.00000  Uiso   1.00
C1037  C     0.54974   0.82928   0.61145   0.00000  Uiso   1.00
C1038  C     0.39485   0.79423   0.95814   0.00000  Uiso   1.00
C1039  C     0.61381   0.83868   0.53593   0.00000  Uiso   1.00
C1040  C     0.40612   0.80759   0.91245   0.00000  Uiso   1.00
C1041  C     0.59835   0.83875   0.58425   0.00000  Uiso   1.00
C1042  C     0.48405   0.83299   0.90993   0.00000  Uiso   1.00
C1043  C     0.51773   0.81722   0.59034   0.00000  Uiso   1.00
C1044  C     0.47569   0.81618   0.95367   0.00000  Uiso   1.00
C1045  C     0.53237   0.81655   0.54201   0.00000  Uiso   1.00
C1046  C     0.42942   0.79830   0.97891   0.00000  Uiso   1.00
C1047  C     0.45237   0.78943   0.54508   0.00000  Uiso   1.00
C1048  C     0.58084   0.82881   0.51467   0.00000  Uiso   1.00
C1049  C     0.51202   0.81742   0.97300   0.00000  Uiso   1.00
C1050  C     0.49880   0.80751   0.52058   0.00000  Uiso   1.00
C1051  C     0.57660   0.70894   0.67763   0.00000  Uiso   1.00
C1052  C     0.42329   0.95778   0.82225   0.00000  Uiso   1.00
C1053  C     0.56130   0.82750   0.94610   0.00000  Uiso   1.00
C1054  C     0.41860   0.78438   0.52419   0.00000  Uiso   1.00
C1055  C     0.59526   0.83240   0.96667   0.00000  Uiso   1.00
C1056  C     0.53782   0.97788   0.71605   0.00000  Uiso   1.00
C1057  C     0.46219   0.68882   0.78394   0.00000  Uiso   1.00
C1058  C     0.53829   0.68764   0.71489   0.00000  Uiso   1.00
F1059  F     0.57353   0.95581   0.68279   0.00000  Uiso   1.00
F1060  F     0.42651   0.71089   0.81722   0.00000  Uiso   1.00
F1061  F     0.40209   0.77999   0.69329   0.00000  Uiso   1.00
F1062  F     0.59783   0.88652   0.80688   0.00000  Uiso   1.00
H1063  H     0.38360   0.77014   0.54384   0.00000  Uiso   1.00
H1064  H     0.57494   0.83080   0.90875   0.00000  Uiso   1.00
H1065  H     0.64469   0.78567   0.69893   0.00000  Uiso   1.00
H1066  H     0.35528   0.88094   0.80113   0.00000  Uiso   1.00
H1067  H     0.63245   0.84079   0.94513   0.00000  Uiso   1.00
H1068  H     0.48043   0.81083   0.61241   0.00000  Uiso   1.00
H1069  H     0.51671   0.85068   0.89148   0.00000  Uiso   1.00
H1070  H     0.62373   0.84772   0.60026   0.00000  Uiso   1.00
H1071  H     0.38051   0.80188   0.89575   0.00000  Uiso   1.00
H1072  H     0.35985   0.77958   0.97670   0.00000  Uiso   1.00
H1073  H     0.65091   0.84796   0.51530   0.00000  Uiso   1.00
H1074  H     0.44173   0.77749   0.58002   0.00000  Uiso   1.00
N1075  N     0.38093   0.83334   0.75001   0.00000  Uiso   1.00
N1076  N     0.61907   0.83332   0.74999   0.00000  Uiso   1.00
N1077  N     0.60716   0.72598   0.64782   0.00000  Uiso   1.00
N1078  N     0.39265   0.94076   0.85200   0.00000  Uiso   1.00
O1079  O     0.46179   0.89442   0.75001   0.00000  Uiso   1.00
O1080  O     0.53821   0.77225   0.75000   0.00000  Uiso   1.00
O1081  O     0.53823   0.89441   0.75000   0.00000  Uiso   1.00
O1082  O     0.46177   0.77226   0.75000   0.00000  Uiso   1.00
O1083  O     0.43994   0.83334   0.81613   0.00000  Uiso   1.00
O1084  O     0.56006   0.83333   0.68388   0.00000  Uiso   1.00
O1085  O     0.51639   0.83333   0.81612   0.00000  Uiso   1.00
O1086  O     0.48361   0.83334   0.68388   0.00000  Uiso   1.00
Zn1087 Zn    0.44896   0.83334   0.75000   0.00000  Uiso   1.00
Zn1088 Zn    0.55104   0.83333   0.75000   0.00000  Uiso   1.00
C1089  C     0.83318   0.91321   0.75043   0.00000  Uiso   1.00
C1090  C     0.79503   0.97906   0.78506   0.00000  Uiso   1.00
C1091  C     0.83365   0.70933   0.74914   0.00000  Uiso   1.00
C1092  C     0.83301   0.95736   0.75084   0.00000  Uiso   1.00
C1093  C     0.98721   0.80684   0.72163   0.00000  Uiso   1.00
C1094  C     0.67944   0.85980   0.77840   0.00000  Uiso   1.00
C1095  C     0.70176   0.80678   0.72166   0.00000  Uiso   1.00
C1096  C     0.96488   0.85984   0.77840   0.00000  Uiso   1.00
C1097  C     0.80287   0.83296   0.83799   0.00000  Uiso   1.00
C1098  C     0.86383   0.83261   0.66203   0.00000  Uiso   1.00
C1099  C     0.78461   0.82650   0.88814   0.00000  Uiso   1.00
C1100  C     0.83349   0.75346   0.74956   0.00000  Uiso   1.00
C1101  C     0.88308   0.82928   0.61145   0.00000  Uiso   1.00
C1102  C     0.72819   0.79423   0.95814   0.00000  Uiso   1.00
C1103  C     0.94714   0.83868   0.53593   0.00000  Uiso   1.00
C1104  C     0.73946   0.80759   0.91245   0.00000  Uiso   1.00
C1105  C     0.93169   0.83875   0.58425   0.00000  Uiso   1.00
C1106  C     0.81738   0.83299   0.90993   0.00000  Uiso   1.00
C1107  C     0.85106   0.81722   0.59034   0.00000  Uiso   1.00
C1108  C     0.80902   0.81618   0.95367   0.00000  Uiso   1.00
C1109  C     0.86570   0.81655   0.54201   0.00000  Uiso   1.00
C1110  C     0.76275   0.79830   0.97891   0.00000  Uiso   1.00
C1111  C     0.78570   0.78943   0.54508   0.00000  Uiso   1.00
C1112  C     0.91417   0.82881   0.51467   0.00000  Uiso   1.00
C1113  C     0.84536   0.81742   0.97300   0.00000  Uiso   1.00
C1114  C     0.83213   0.80751   0.52058   0.00000  Uiso   1.00
C1115  C     0.90994   0.70894   0.67763   0.00000  Uiso   1.00
C1116  C     0.75662   0.95778   0.82225   0.00000  Uiso   1.00
C1117  C     0.89463   0.82750   0.94610   0.00000  Uiso   1.00
C1118  C     0.75193   0.78438   0.52419   0.00000  Uiso   1.00
C1119  C     0.92860   0.83240   0.96667   0.00000  Uiso   1.00
C1120  C     0.87115   0.97788   0.71605   0.00000  Uiso   1.00
C1121  C     0.79553   0.68882   0.78394   0.00000  Uiso   1.00
C1122  C     0.87162   0.68764   0.71489   0.00000  Uiso   1.00
F1123  F     0.90686   0.95581   0.68279   0.00000  Uiso   1.00
F1124  F     0.75984   0.71089   0.81722   0.00000  Uiso   1.00
F1125  F     0.73543   0.77999   0.69329   0.00000  Uiso   1.00
F1126  F     0.93117   0.88652   0.80688   0.00000  Uiso   1.00
H1127  H     0.71694   0.77014   0.54384   0.00000  Uiso   1.00
H1128  H     0.90828   0.83080   0.90875   0.00000  Uiso   1.00
H1129  H     0.97802   0.78567   0.69893   0.00000  Uiso   1.00
H1130  H     0.68862   0.88094   0.80113   0.00000  Uiso   1.00
H1131  H     0.96578   0.84079   0.94513   0.00000  Uiso   1.00
H1132  H     0.81377   0.81083   0.61241   0.00000  Uiso   1.00
H1133  H     0.85004   0.85068   0.89148   0.00000  Uiso   1.00
H1134  H     0.95706   0.84772   0.60026   0.00000  Uiso   1.00
H1135  H     0.71384   0.80188   0.89575   0.00000  Uiso   1.00
H1136  H     0.69318   0.77958   0.97670   0.00000  Uiso   1.00
H1137  H     0.98424   0.84796   0.51530   0.00000  Uiso   1.00
H1138  H     0.77506   0.77749   0.58002   0.00000  Uiso   1.00
N1139  N     0.71426   0.83334   0.75001   0.00000  Uiso   1.00
N1140  N     0.95241   0.83332   0.74999   0.00000  Uiso   1.00
N1141  N     0.94049   0.72598   0.64782   0.00000  Uiso   1.00
N1142  N     0.72598   0.94076   0.85200   0.00000  Uiso   1.00
O1143  O     0.79512   0.89442   0.75001   0.00000  Uiso   1.00
O1144  O     0.87154   0.77225   0.75000   0.00000  Uiso   1.00
O1145  O     0.87157   0.89441   0.75000   0.00000  Uiso   1.00
O1146  O     0.79510   0.77226   0.75000   0.00000  Uiso   1.00
O1147  O     0.77328   0.83334   0.81613   0.00000  Uiso   1.00
O1148  O     0.89339   0.83333   0.68388   0.00000  Uiso   1.00
O1149  O     0.84972   0.83333   0.81612   0.00000  Uiso   1.00
O1150  O     0.81695   0.83334   0.68388   0.00000  Uiso   1.00
Zn1151 Zn    0.78229   0.83334   0.75000   0.00000  Uiso   1.00
Zn1152 Zn    0.88438   0.83333   0.75000   0.00000  Uiso   1.00
loop_
_geom_bond_atom_site_label_1
_geom_bond_atom_site_label_2
_geom_bond_distance
_geom_bond_site_symmetry_2
_ccdc_geom_bond_type
C1     O57     1.281   .     A
C1     C4      1.410   .     S
C1     O55     1.281   .     A
C2     C4      1.403   .     A
C2     C28     1.448   .     S
C2     C225    1.377   .     S
C3     C34     1.403   .     A
C3     C33     1.397   .     A
C3     C12     1.410   .     S
C4     C32     1.397   .     A
C5     H41     1.082   .     S
C5     N52     1.366   .     A
C5     C71     1.417   .     S
C6     N51     1.366   .     A
C6     H42     1.081   .     S
C6     C136    1.417   1_455 S
C7     F37     1.355   .     S
C7     N51     1.369   .     A
C7     C133    1.417   1_455 S
C8     N52     1.369   .     A
C8     F38     1.355   .     S
C8     C70     1.417   .     S
C9     O61     1.293   .     A
C9     C11     1.457   .     S
C9     O59     1.294   .     A
C10    O60     1.293   .     A
C10    O62     1.294   .     A
C10    C13     1.457   .     S
C11    C18     1.391   .     A
C11    C16     1.400   .     A
C12    O58     1.281   .     A
C12    O56     1.280   .     A
C13    C17     1.399   .     A
C13    C19     1.394   .     A
C14    C22     1.405   .     A
C14    C16     1.396   .     A
C14    H48     1.084   .     S
C15    H49     1.083   .     S
C15    C24     1.404   .     A
C15    C17     1.393   .     A
C16    H47     1.083   .     S
C17    H46     1.083   .     S
C18    H45     1.079   .     S
C18    C20     1.393   .     A
C19    C21     1.395   .     A
C19    H44     1.077   .     S
C20    C22     1.416   .     A
C20    C25     1.416   .     A
C21    C26     1.418   .     A
C21    C24     1.419   .     A
C22    C606    1.392   .     S
C23    C30     1.390   .     A
C23    C26     1.418   .     A
C23    H50     1.079   .     S
C24    C607    1.391   1_554 S
C25    C29     1.417   .     A
C25    C602    1.413   .     S
C26    C601    1.413   1_554 S
C27    N53     1.157   .     T
C27    C34     1.448   .     S
C28    N54     1.157   .     T
C29    C31     1.388   .     A
C29    H40     1.079   .     S
C30    H39     1.084   .     S
C30    C598    1.392   1_554 S
C31    H43     1.084   .     S
C31    C600    1.391   .     S
C32    F35     1.362   .     S
C32    C226    1.377   .     S
C33    F36     1.362   .     S
C33    C386    1.377   1_545 S
C34    C416    1.377   1_545 S
N51    Zn63    2.013   .     S
N52    Zn64    2.013   .     S
O55    Zn63    1.988   .     S
O56    Zn64    1.988   .     S
O57    Zn64    1.988   .     S
O58    Zn63    1.988   .     S
O59    Zn63    1.966   .     S
O60    Zn64    1.966   .     S
O61    Zn64    1.916   .     S
O62    Zn63    1.916   .     S
C65    O121    1.281   .     A
C65    C68     1.410   .     S
C65    O119    1.281   .     A
C66    C68     1.403   .     A
C66    C92     1.448   .     S
C66    C289    1.377   .     S
C67    C98     1.403   .     A
C67    C97     1.397   .     A
C67    C76     1.410   .     S
C68    C96     1.397   .     A
C69    H105    1.082   .     S
C69    N116    1.366   .     A
C69    C135    1.417   .     S
C70    N115    1.366   .     A
C70    H106    1.081   .     S
C71    F101    1.355   .     S
C71    N115    1.369   .     A
C72    N116    1.369   .     A
C72    F102    1.355   .     S
C72    C134    1.417   .     S
C73    O125    1.293   .     A
C73    C75     1.457   .     S
C73    O123    1.294   .     A
C74    O124    1.293   .     A
C74    O126    1.294   .     A
C74    C77     1.457   .     S
C75    C82     1.391   .     A
C75    C80     1.400   .     A
C76    O122    1.281   .     A
C76    O120    1.280   .     A
C77    C81     1.399   .     A
C77    C83     1.394   .     A
C78    C86     1.405   .     A
C78    C80     1.396   .     A
C78    H112    1.084   .     S
C79    H113    1.083   .     S
C79    C88     1.404   .     A
C79    C81     1.393   .     A
C80    H111    1.083   .     S
C81    H110    1.083   .     S
C82    H109    1.079   .     S
C82    C84     1.393   .     A
C83    C85     1.395   .     A
C83    H108    1.077   .     S
C84    C86     1.416   .     A
C84    C89     1.416   .     A
C85    C90     1.418   .     A
C85    C88     1.419   .     A
C86    C670    1.392   .     S
C87    C94     1.390   .     A
C87    C90     1.418   .     A
C87    H114    1.079   .     S
C88    C671    1.391   1_554 S
C89    C93     1.417   .     A
C89    C666    1.413   .     S
C90    C665    1.413   1_554 S
C91    N117    1.157   .     T
C91    C98     1.448   .     S
C92    N118    1.157   .     T
C93    C95     1.388   .     A
C93    H104    1.079   .     S
C94    H103    1.084   .     S
C94    C662    1.392   1_554 S
C95    H107    1.084   .     S
C95    C664    1.391   .     S
C96    F99     1.362   .     S
C96    C290    1.377   .     S
C97    F100    1.362   .     S
C97    C450    1.377   1_545 S
C98    C480    1.377   1_545 S
N115   Zn127   2.013   .     S
N116   Zn128   2.013   .     S
O119   Zn127   1.988   .     S
O120   Zn128   1.988   .     S
O121   Zn128   1.988   .     S
O122   Zn127   1.988   .     S
O123   Zn127   1.966   .     S
O124   Zn128   1.966   .     S
O125   Zn128   1.916   .     S
O126   Zn127   1.916   .     S
C129   O185    1.281   .     A
C129   C132    1.410   .     S
C129   O183    1.281   .     A
C130   C132    1.403   .     A
C130   C156    1.448   .     S
C130   C353    1.377   .     S
C131   C162    1.403   .     A
C131   C161    1.397   .     A
C131   C140    1.410   .     S
C132   C160    1.397   .     A
C133   H169    1.082   .     S
C133   N180    1.366   .     A
C133   C7      1.417   1_655 S
C134   N179    1.366   .     A
C134   H170    1.081   .     S
C135   F165    1.355   .     S
C135   N179    1.369   .     A
C136   N180    1.369   .     A
C136   F166    1.355   .     S
C136   C6      1.417   1_655 S
C137   O189    1.293   .     A
C137   C139    1.457   .     S
C137   O187    1.294   .     A
C138   O188    1.293   .     A
C138   O190    1.294   .     A
C138   C141    1.457   .     S
C139   C146    1.391   .     A
C139   C144    1.400   .     A
C140   O186    1.281   .     A
C140   O184    1.280   .     A
C141   C145    1.399   .     A
C141   C147    1.394   .     A
C142   C150    1.405   .     A
C142   C144    1.396   .     A
C142   H176    1.084   .     S
C143   H177    1.083   .     S
C143   C152    1.404   .     A
C143   C145    1.393   .     A
C144   H175    1.083   .     S
C145   H174    1.083   .     S
C146   H173    1.079   .     S
C146   C148    1.393   .     A
C147   C149    1.395   .     A
C147   H172    1.077   .     S
C148   C150    1.416   .     A
C148   C153    1.416   .     A
C149   C154    1.418   .     A
C149   C152    1.419   .     A
C150   C734    1.392   .     S
C151   C158    1.390   .     A
C151   C154    1.418   .     A
C151   H178    1.079   .     S
C152   C735    1.391   1_554 S
C153   C157    1.417   .     A
C153   C730    1.413   .     S
C154   C729    1.413   1_554 S
C155   N181    1.157   .     T
C155   C162    1.448   .     S
C156   N182    1.157   .     T
C157   C159    1.388   .     A
C157   H168    1.079   .     S
C158   H167    1.084   .     S
C158   C726    1.392   1_554 S
C159   H171    1.084   .     S
C159   C728    1.391   .     S
C160   F163    1.362   .     S
C160   C354    1.377   .     S
C161   F164    1.362   .     S
C161   C514    1.377   1_545 S
C162   C544    1.377   1_545 S
N179   Zn191   2.013   .     S
N180   Zn192   2.013   .     S
O183   Zn191   1.988   .     S
O184   Zn192   1.988   .     S
O185   Zn192   1.988   .     S
O186   Zn191   1.988   .     S
O187   Zn191   1.966   .     S
O188   Zn192   1.966   .     S
O189   Zn192   1.916   .     S
O190   Zn191   1.916   .     S
C193   O249    1.281   .     A
C193   C196    1.410   .     S
C193   O247    1.281   .     A
C194   C196    1.403   .     A
C194   C220    1.448   .     S
C194   C417    1.377   .     S
C195   C226    1.403   .     A
C195   C225    1.397   .     A
C195   C204    1.410   .     S
C196   C224    1.397   .     A
C197   H233    1.082   .     S
C197   N244    1.366   .     A
C197   C263    1.417   .     S
C198   N243    1.366   .     A
C198   H234    1.081   .     S
C198   C328    1.417   1_455 S
C199   F229    1.355   .     S
C199   N243    1.369   .     A
C199   C325    1.417   1_455 S
C200   N244    1.369   .     A
C200   F230    1.355   .     S
C200   C262    1.417   .     S
C201   O253    1.293   .     A
C201   C203    1.457   .     S
C201   O251    1.294   .     A
C202   O252    1.293   .     A
C202   O254    1.294   .     A
C202   C205    1.457   .     S
C203   C210    1.391   .     A
C203   C208    1.400   .     A
C204   O250    1.281   .     A
C204   O248    1.280   .     A
C205   C209    1.399   .     A
C205   C211    1.394   .     A
C206   C214    1.405   .     A
C206   C208    1.396   .     A
C206   H240    1.084   .     S
C207   H241    1.083   .     S
C207   C216    1.404   .     A
C207   C209    1.393   .     A
C208   H239    1.083   .     S
C209   H238    1.083   .     S
C210   H237    1.079   .     S
C210   C212    1.393   .     A
C211   C213    1.395   .     A
C211   H236    1.077   .     S
C212   C214    1.416   .     A
C212   C217    1.416   .     A
C213   C218    1.418   .     A
C213   C216    1.419   .     A
C214   C798    1.392   .     S
C215   C222    1.390   .     A
C215   C218    1.418   .     A
C215   H242    1.079   .     S
C216   C799    1.391   1_554 S
C217   C221    1.417   .     A
C217   C794    1.413   .     S
C218   C793    1.413   1_554 S
C219   N245    1.157   .     T
C219   C226    1.448   .     S
C220   N246    1.157   .     T
C221   C223    1.388   .     A
C221   H232    1.079   .     S
C222   H231    1.084   .     S
C222   C790    1.392   1_554 S
C223   H235    1.084   .     S
C223   C792    1.391   .     S
C224   F227    1.362   .     S
C224   C418    1.377   .     S
C225   F228    1.362   .     S
N243   Zn255   2.013   .     S
N244   Zn256   2.013   .     S
O247   Zn255   1.988   .     S
O248   Zn256   1.988   .     S
O249   Zn256   1.988   .     S
O250   Zn255   1.988   .     S
O251   Zn255   1.966   .     S
O252   Zn256   1.966   .     S
O253   Zn256   1.916   .     S
O254   Zn255   1.916   .     S
C257   O313    1.281   .     A
C257   C260    1.410   .     S
C257   O311    1.281   .     A
C258   C260    1.403   .     A
C258   C284    1.448   .     S
C258   C481    1.377   .     S
C259   C290    1.403   .     A
C259   C289    1.397   .     A
C259   C268    1.410   .     S
C260   C288    1.397   .     A
C261   H297    1.082   .     S
C261   N308    1.366   .     A
C261   C327    1.417   .     S
C262   N307    1.366   .     A
C262   H298    1.081   .     S
C263   F293    1.355   .     S
C263   N307    1.369   .     A
C264   N308    1.369   .     A
C264   F294    1.355   .     S
C264   C326    1.417   .     S
C265   O317    1.293   .     A
C265   C267    1.457   .     S
C265   O315    1.294   .     A
C266   O316    1.293   .     A
C266   O318    1.294   .     A
C266   C269    1.457   .     S
C267   C274    1.391   .     A
C267   C272    1.400   .     A
C268   O314    1.281   .     A
C268   O312    1.280   .     A
C269   C273    1.399   .     A
C269   C275    1.394   .     A
C270   C278    1.405   .     A
C270   C272    1.396   .     A
C270   H304    1.084   .     S
C271   H305    1.083   .     S
C271   C280    1.404   .     A
C271   C273    1.393   .     A
C272   H303    1.083   .     S
C273   H302    1.083   .     S
C274   H301    1.079   .     S
C274   C276    1.393   .     A
C275   C277    1.395   .     A
C275   H300    1.077   .     S
C276   C278    1.416   .     A
C276   C281    1.416   .     A
C277   C282    1.418   .     A
C277   C280    1.419   .     A
C278   C862    1.392   .     S
C279   C286    1.390   .     A
C279   C282    1.418   .     A
C279   H306    1.079   .     S
C280   C863    1.391   1_554 S
C281   C285    1.417   .     A
C281   C858    1.413   .     S
C282   C857    1.413   1_554 S
C283   N309    1.157   .     T
C283   C290    1.448   .     S
C284   N310    1.157   .     T
C285   C287    1.388   .     A
C285   H296    1.079   .     S
C286   H295    1.084   .     S
C286   C854    1.392   1_554 S
C287   H299    1.084   .     S
C287   C856    1.391   .     S
C288   F291    1.362   .     S
C288   C482    1.377   .     S
C289   F292    1.362   .     S
N307   Zn319   2.013   .     S
N308   Zn320   2.013   .     S
O311   Zn319   1.988   .     S
O312   Zn320   1.988   .     S
O313   Zn320   1.988   .     S
O314   Zn319   1.988   .     S
O315   Zn319   1.966   .     S
O316   Zn320   1.966   .     S
O317   Zn320   1.916   .     S
O318   Zn319   1.916   .     S
C321   O377    1.281   .     A
C321   C324    1.410   .     S
C321   O375    1.281   .     A
C322   C324    1.403   .     A
C322   C348    1.448   .     S
C322   C545    1.377   .     S
C323   C354    1.403   .     A
C323   C353    1.397   .     A
C323   C332    1.410   .     S
C324   C352    1.397   .     A
C325   H361    1.082   .     S
C325   N372    1.366   .     A
C325   C199    1.417   1_655 S
C326   N371    1.366   .     A
C326   H362    1.081   .     S
C327   F357    1.355   .     S
C327   N371    1.369   .     A
C328   N372    1.369   .     A
C328   F358    1.355   .     S
C328   C198    1.417   1_655 S
C329   O381    1.293   .     A
C329   C331    1.457   .     S
C329   O379    1.294   .     A
C330   O380    1.293   .     A
C330   O382    1.294   .     A
C330   C333    1.457   .     S
C331   C338    1.391   .     A
C331   C336    1.400   .     A
C332   O378    1.281   .     A
C332   O376    1.280   .     A
C333   C337    1.399   .     A
C333   C339    1.394   .     A
C334   C342    1.405   .     A
C334   C336    1.396   .     A
C334   H368    1.084   .     S
C335   H369    1.083   .     S
C335   C344    1.404   .     A
C335   C337    1.393   .     A
C336   H367    1.083   .     S
C337   H366    1.083   .     S
C338   H365    1.079   .     S
C338   C340    1.393   .     A
C339   C341    1.395   .     A
C339   H364    1.077   .     S
C340   C342    1.416   .     A
C340   C345    1.416   .     A
C341   C346    1.418   .     A
C341   C344    1.419   .     A
C342   C926    1.392   .     S
C343   C350    1.390   .     A
C343   C346    1.418   .     A
C343   H370    1.079   .     S
C344   C927    1.391   1_554 S
C345   C349    1.417   .     A
C345   C922    1.413   .     S
C346   C921    1.413   1_554 S
C347   N373    1.157   .     T
C347   C354    1.448   .     S
C348   N374    1.157   .     T
C349   C351    1.388   .     A
C349   H360    1.079   .     S
C350   H359    1.084   .     S
C350   C918    1.392   1_554 S
C351   H363    1.084   .     S
C351   C920    1.391   .     S
C352   F355    1.362   .     S
C352   C546    1.377   .     S
C353   F356    1.362   .     S
N371   Zn383   2.013   .     S
N372   Zn384   2.013   .     S
O375   Zn383   1.988   .     S
O376   Zn384   1.988   .     S
O377   Zn384   1.988   .     S
O378   Zn383   1.988   .     S
O379   Zn383   1.966   .     S
O380   Zn384   1.966   .     S
O381   Zn384   1.916   .     S
O382   Zn383   1.916   .     S
C385   O441    1.281   .     A
C385   C388    1.410   .     S
C385   O439    1.281   .     A
C386   C388    1.403   .     A
C386   C412    1.448   .     S
C386   C33     1.377   1_565 S
C387   C418    1.403   .     A
C387   C417    1.397   .     A
C387   C396    1.410   .     S
C388   C416    1.397   .     A
C389   H425    1.082   .     S
C389   N436    1.366   .     A
C389   C455    1.417   .     S
C390   N435    1.366   .     A
C390   H426    1.081   .     S
C390   C520    1.417   1_455 S
C391   F421    1.355   .     S
C391   N435    1.369   .     A
C391   C517    1.417   1_455 S
C392   N436    1.369   .     A
C392   F422    1.355   .     S
C392   C454    1.417   .     S
C393   O445    1.293   .     A
C393   C395    1.457   .     S
C393   O443    1.294   .     A
C394   O444    1.293   .     A
C394   O446    1.294   .     A
C394   C397    1.457   .     S
C395   C402    1.391   .     A
C395   C400    1.400   .     A
C396   O442    1.281   .     A
C396   O440    1.280   .     A
C397   C401    1.399   .     A
C397   C403    1.394   .     A
C398   C406    1.405   .     A
C398   C400    1.396   .     A
C398   H432    1.084   .     S
C399   H433    1.083   .     S
C399   C408    1.404   .     A
C399   C401    1.393   .     A
C400   H431    1.083   .     S
C401   H430    1.083   .     S
C402   H429    1.079   .     S
C402   C404    1.393   .     A
C403   C405    1.395   .     A
C403   H428    1.077   .     S
C404   C406    1.416   .     A
C404   C409    1.416   .     A
C405   C410    1.418   .     A
C405   C408    1.419   .     A
C406   C990    1.392   .     S
C407   C414    1.390   .     A
C407   C410    1.418   .     A
C407   H434    1.079   .     S
C408   C991    1.391   1_554 S
C409   C413    1.417   .     A
C409   C986    1.413   .     S
C410   C985    1.413   1_554 S
C411   N437    1.157   .     T
C411   C418    1.448   .     S
C412   N438    1.157   .     T
C413   C415    1.388   .     A
C413   H424    1.079   .     S
C414   H423    1.084   .     S
C414   C982    1.392   1_554 S
C415   H427    1.084   .     S
C415   C984    1.391   .     S
C416   F419    1.362   .     S
C416   C34     1.377   1_565 S
C417   F420    1.362   .     S
N435   Zn447   2.013   .     S
N436   Zn448   2.013   .     S
O439   Zn447   1.988   .     S
O440   Zn448   1.988   .     S
O441   Zn448   1.988   .     S
O442   Zn447   1.988   .     S
O443   Zn447   1.966   .     S
O444   Zn448   1.966   .     S
O445   Zn448   1.916   .     S
O446   Zn447   1.916   .     S
C449   O505    1.281   .     A
C449   C452    1.410   .     S
C449   O503    1.281   .     A
C450   C452    1.403   .     A
C450   C476    1.448   .     S
C450   C97     1.377   1_565 S
C451   C482    1.403   .     A
C451   C481    1.397   .     A
C451   C460    1.410   .     S
C452   C480    1.397   .     A
C453   H489    1.082   .     S
C453   N500    1.366   .     A
C453   C519    1.417   .     S
C454   N499    1.366   .     A
C454   H490    1.081   .     S
C455   F485    1.355   .     S
C455   N499    1.369   .     A
C456   N500    1.369   .     A
C456   F486    1.355   .     S
C456   C518    1.417   .     S
C457   O509    1.293   .     A
C457   C459    1.457   .     S
C457   O507    1.294   .     A
C458   O508    1.293   .     A
C458   O510    1.294   .     A
C458   C461    1.457   .     S
C459   C466    1.391   .     A
C459   C464    1.400   .     A
C460   O506    1.281   .     A
C460   O504    1.280   .     A
C461   C465    1.399   .     A
C461   C467    1.394   .     A
C462   C470    1.405   .     A
C462   C464    1.396   .     A
C462   H496    1.084   .     S
C463   H497    1.083   .     S
C463   C472    1.404   .     A
C463   C465    1.393   .     A
C464   H495    1.083   .     S
C465   H494    1.083   .     S
C466   H493    1.079   .     S
C466   C468    1.393   .     A
C467   C469    1.395   .     A
C467   H492    1.077   .     S
C468   C470    1.416   .     A
C468   C473    1.416   .     A
C469   C474    1.418   .     A
C469   C472    1.419   .     A
C470   C1054   1.392   .     S
C471   C478    1.390   .     A
C471   C474    1.418   .     A
C471   H498    1.079   .     S
C472   C1055   1.391   1_554 S
C473   C477    1.417   .     A
C473   C1050   1.413   .     S
C474   C1049   1.413   1_554 S
C475   N501    1.157   .     T
C475   C482    1.448   .     S
C476   N502    1.157   .     T
C477   C479    1.388   .     A
C477   H488    1.079   .     S
C478   H487    1.084   .     S
C478   C1046   1.392   1_554 S
C479   H491    1.084   .     S
C479   C1048   1.391   .     S
C480   F483    1.362   .     S
C480   C98     1.377   1_565 S
C481   F484    1.362   .     S
N499   Zn511   2.013   .     S
N500   Zn512   2.013   .     S
O503   Zn511   1.988   .     S
O504   Zn512   1.988   .     S
O505   Zn512   1.988   .     S
O506   Zn511   1.988   .     S
O507   Zn511   1.966   .     S
O508   Zn512   1.966   .     S
O509   Zn512   1.916   .     S
O510   Zn511   1.916   .     S
C513   O569    1.281   .     A
C513   C516    1.410   .     S
C513   O567    1.281   .     A
C514   C516    1.403   .     A
C514   C540    1.448   .     S
C514   C161    1.377   1_565 S
C515   C546    1.403   .     A
C515   C545    1.397   .     A
C515   C524    1.410   .     S
C516   C544    1.397   .     A
C517   H553    1.082   .     S
C517   N564    1.366   .     A
C517   C391    1.417   1_655 S
C518   N563    1.366   .     A
C518   H554    1.081   .     S
C519   F549    1.355   .     S
C519   N563    1.369   .     A
C520   N564    1.369   .     A
C520   F550    1.355   .     S
C520   C390    1.417   1_655 S
C521   O573    1.293   .     A
C521   C523    1.457   .     S
C521   O571    1.294   .     A
C522   O572    1.293   .     A
C522   O574    1.294   .     A
C522   C525    1.457   .     S
C523   C530    1.391   .     A
C523   C528    1.400   .     A
C524   O570    1.281   .     A
C524   O568    1.280   .     A
C525   C529    1.399   .     A
C525   C531    1.394   .     A
C526   C534    1.405   .     A
C526   C528    1.396   .     A
C526   H560    1.084   .     S
C527   H561    1.083   .     S
C527   C536    1.404   .     A
C527   C529    1.393   .     A
C528   H559    1.083   .     S
C529   H558    1.083   .     S
C530   H557    1.079   .     S
C530   C532    1.393   .     A
C531   C533    1.395   .     A
C531   H556    1.077   .     S
C532   C534    1.416   .     A
C532   C537    1.416   .     A
C533   C538    1.418   .     A
C533   C536    1.419   .     A
C534   C1118   1.392   .     S
C535   C542    1.390   .     A
C535   C538    1.418   .     A
C535   H562    1.079   .     S
C536   C1119   1.391   1_554 S
C537   C541    1.417   .     A
C537   C1114   1.413   .     S
C538   C1113   1.413   1_554 S
C539   N565    1.157   .     T
C539   C546    1.448   .     S
C540   N566    1.157   .     T
C541   C543    1.388   .     A
C541   H552    1.079   .     S
C542   H551    1.084   .     S
C542   C1110   1.392   1_554 S
C543   H555    1.084   .     S
C543   C1112   1.391   .     S
C544   F547    1.362   .     S
C544   C162    1.377   1_565 S
C545   F548    1.362   .     S
N563   Zn575   2.013   .     S
N564   Zn576   2.013   .     S
O567   Zn575   1.988   .     S
O568   Zn576   1.988   .     S
O569   Zn576   1.988   .     S
O570   Zn575   1.988   .     S
O571   Zn575   1.966   .     S
O572   Zn576   1.966   .     S
O573   Zn576   1.916   .     S
O574   Zn575   1.916   .     S
C577   O633    1.281   .     A
C577   C580    1.410   .     S
C577   O631    1.281   .     A
C578   C580    1.403   .     A
C578   C604    1.448   .     S
C578   C801    1.377   .     S
C579   C610    1.403   .     A
C579   C609    1.397   .     A
C579   C588    1.410   .     S
C580   C608    1.397   .     A
C581   H617    1.082   .     S
C581   N628    1.366   .     A
C581   C647    1.417   .     S
C582   N627    1.366   .     A
C582   H618    1.081   .     S
C582   C712    1.417   1_455 S
C583   F613    1.355   .     S
C583   N627    1.369   .     A
C583   C709    1.417   1_455 S
C584   N628    1.369   .     A
C584   F614    1.355   .     S
C584   C646    1.417   .     S
C585   O637    1.293   .     A
C585   C587    1.457   .     S
C585   O635    1.294   .     A
C586   O636    1.293   .     A
C586   O638    1.294   .     A
C586   C589    1.457   .     S
C587   C594    1.391   .     A
C587   C592    1.400   .     A
C588   O634    1.281   .     A
C588   O632    1.280   .     A
C589   C593    1.399   .     A
C589   C595    1.394   .     A
C590   C598    1.405   .     A
C590   C592    1.396   .     A
C590   H624    1.084   .     S
C591   H625    1.083   .     S
C591   C600    1.404   .     A
C591   C593    1.393   .     A
C592   H623    1.083   .     S
C593   H622    1.083   .     S
C594   H621    1.079   .     S
C594   C596    1.393   .     A
C595   C597    1.395   .     A
C595   H620    1.077   .     S
C596   C598    1.416   .     A
C596   C601    1.416   .     A
C597   C602    1.418   .     A
C597   C600    1.419   .     A
C598   C30     1.392   1_556 S
C599   C606    1.390   .     A
C599   C602    1.418   .     A
C599   H626    1.079   .     S
C601   C605    1.417   .     A
C601   C26     1.413   1_556 S
C603   N629    1.157   .     T
C603   C610    1.448   .     S
C604   N630    1.157   .     T
C605   C607    1.388   .     A
C605   H616    1.079   .     S
C606   H615    1.084   .     S
C607   H619    1.084   .     S
C607   C24     1.391   1_556 S
C608   F611    1.362   .     S
C608   C802    1.377   .     S
C609   F612    1.362   .     S
C609   C962    1.377   1_545 S
C610   C992    1.377   1_545 S
N627   Zn639   2.013   .     S
N628   Zn640   2.013   .     S
O631   Zn639   1.988   .     S
O632   Zn640   1.988   .     S
O633   Zn640   1.988   .     S
O634   Zn639   1.988   .     S
O635   Zn639   1.966   .     S
O636   Zn640   1.966   .     S
O637   Zn640   1.916   .     S
O638   Zn639   1.916   .     S
C641   O697    1.281   .     A
C641   C644    1.410   .     S
C641   O695    1.281   .     A
C642   C644    1.403   .     A
C642   C668    1.448   .     S
C642   C865    1.377   .     S
C643   C674    1.403   .     A
C643   C673    1.397   .     A
C643   C652    1.410   .     S
C644   C672    1.397   .     A
C645   H681    1.082   .     S
C645   N692    1.366   .     A
C645   C711    1.417   .     S
C646   N691    1.366   .     A
C646   H682    1.081   .     S
C647   F677    1.355   .     S
C647   N691    1.369   .     A
C648   N692    1.369   .     A
C648   F678    1.355   .     S
C648   C710    1.417   .     S
C649   O701    1.293   .     A
C649   C651    1.457   .     S
C649   O699    1.294   .     A
C650   O700    1.293   .     A
C650   O702    1.294   .     A
C650   C653    1.457   .     S
C651   C658    1.391   .     A
C651   C656    1.400   .     A
C652   O698    1.281   .     A
C652   O696    1.280   .     A
C653   C657    1.399   .     A
C653   C659    1.394   .     A
C654   C662    1.405   .     A
C654   C656    1.396   .     A
C654   H688    1.084   .     S
C655   H689    1.083   .     S
C655   C664    1.404   .     A
C655   C657    1.393   .     A
C656   H687    1.083   .     S
C657   H686    1.083   .     S
C658   H685    1.079   .     S
C658   C660    1.393   .     A
C659   C661    1.395   .     A
C659   H684    1.077   .     S
C660   C662    1.416   .     A
C660   C665    1.416   .     A
C661   C666    1.418   .     A
C661   C664    1.419   .     A
C662   C94     1.392   1_556 S
C663   C670    1.390   .     A
C663   C666    1.418   .     A
C663   H690    1.079   .     S
C665   C669    1.417   .     A
C665   C90     1.413   1_556 S
C667   N693    1.157   .     T
C667   C674    1.448   .     S
C668   N694    1.157   .     T
C669   C671    1.388   .     A
C669   H680    1.079   .     S
C670   H679    1.084   .     S
C671   H683    1.084   .     S
C671   C88     1.391   1_556 S
C672   F675    1.362   .     S
C672   C866    1.377   .     S
C673   F676    1.362   .     S
C673   C1026   1.377   1_545 S
C674   C1056   1.377   1_545 S
N691   Zn703   2.013   .     S
N692   Zn704   2.013   .     S
O695   Zn703   1.988   .     S
O696   Zn704   1.988   .     S
O697   Zn704   1.988   .     S
O698   Zn703   1.988   .     S
O699   Zn703   1.966   .     S
O700   Zn704   1.966   .     S
O701   Zn704   1.916   .     S
O702   Zn703   1.916   .     S
C705   O761    1.281   .     A
C705   C708    1.410   .     S
C705   O759    1.281   .     A
C706   C708    1.403   .     A
C706   C732    1.448   .     S
C706   C929    1.377   .     S
C707   C738    1.403   .     A
C707   C737    1.397   .     A
C707   C716    1.410   .     S
C708   C736    1.397   .     A
C709   H745    1.082   .     S
C709   N756    1.366   .     A
C709   C583    1.417   1_655 S
C710   N755    1.366   .     A
C710   H746    1.081   .     S
C711   F741    1.355   .     S
C711   N755    1.369   .     A
C712   N756    1.369   .     A
C712   F742    1.355   .     S
C712   C582    1.417   1_655 S
C713   O765    1.293   .     A
C713   C715    1.457   .     S
C713   O763    1.294   .     A
C714   O764    1.293   .     A
C714   O766    1.294   .     A
C714   C717    1.457   .     S
C715   C722    1.391   .     A
C715   C720    1.400   .     A
C716   O762    1.281   .     A
C716   O760    1.280   .     A
C717   C721    1.399   .     A
C717   C723    1.394   .     A
C718   C726    1.405   .     A
C718   C720    1.396   .     A
C718   H752    1.084   .     S
C719   H753    1.083   .     S
C719   C728    1.404   .     A
C719   C721    1.393   .     A
C720   H751    1.083   .     S
C721   H750    1.083   .     S
C722   H749    1.079   .     S
C722   C724    1.393   .     A
C723   C725    1.395   .     A
C723   H748    1.077   .     S
C724   C726    1.416   .     A
C724   C729    1.416   .     A
C725   C730    1.418   .     A
C725   C728    1.419   .     A
C726   C158    1.392   1_556 S
C727   C734    1.390   .     A
C727   C730    1.418   .     A
C727   H754    1.079   .     S
C729   C733    1.417   .     A
C729   C154    1.413   1_556 S
C731   N757    1.157   .     T
C731   C738    1.448   .     S
C732   N758    1.157   .     T
C733   C735    1.388   .     A
C733   H744    1.079   .     S
C734   H743    1.084   .     S
C735   H747    1.084   .     S
C735   C152    1.391   1_556 S
C736   F739    1.362   .     S
C736   C930    1.377   .     S
C737   F740    1.362   .     S
C737   C1090   1.377   1_545 S
C738   C1120   1.377   1_545 S
N755   Zn767   2.013   .     S
N756   Zn768   2.013   .     S
O759   Zn767   1.988   .     S
O760   Zn768   1.988   .     S
O761   Zn768   1.988   .     S
O762   Zn767   1.988   .     S
O763   Zn767   1.966   .     S
O764   Zn768   1.966   .     S
O765   Zn768   1.916   .     S
O766   Zn767   1.916   .     S
C769   O825    1.281   .     A
C769   C772    1.410   .     S
C769   O823    1.281   .     A
C770   C772    1.403   .     A
C770   C796    1.448   .     S
C770   C993    1.377   .     S
C771   C802    1.403   .     A
C771   C801    1.397   .     A
C771   C780    1.410   .     S
C772   C800    1.397   .     A
C773   H809    1.082   .     S
C773   N820    1.366   .     A
C773   C839    1.417   .     S
C774   N819    1.366   .     A
C774   H810    1.081   .     S
C774   C904    1.417   1_455 S
C775   F805    1.355   .     S
C775   N819    1.369   .     A
C775   C901    1.417   1_455 S
C776   N820    1.369   .     A
C776   F806    1.355   .     S
C776   C838    1.417   .     S
C777   O829    1.293   .     A
C777   C779    1.457   .     S
C777   O827    1.294   .     A
C778   O828    1.293   .     A
C778   O830    1.294   .     A
C778   C781    1.457   .     S
C779   C786    1.391   .     A
C779   C784    1.400   .     A
C780   O826    1.281   .     A
C780   O824    1.280   .     A
C781   C785    1.399   .     A
C781   C787    1.394   .     A
C782   C790    1.405   .     A
C782   C784    1.396   .     A
C782   H816    1.084   .     S
C783   H817    1.083   .     S
C783   C792    1.404   .     A
C783   C785    1.393   .     A
C784   H815    1.083   .     S
C785   H814    1.083   .     S
C786   H813    1.079   .     S
C786   C788    1.393   .     A
C787   C789    1.395   .     A
C787   H812    1.077   .     S
C788   C790    1.416   .     A
C788   C793    1.416   .     A
C789   C794    1.418   .     A
C789   C792    1.419   .     A
C790   C222    1.392   1_556 S
C791   C798    1.390   .     A
C791   C794    1.418   .     A
C791   H818    1.079   .     S
C793   C797    1.417   .     A
C793   C218    1.413   1_556 S
C795   N821    1.157   .     T
C795   C802    1.448   .     S
C796   N822    1.157   .     T
C797   C799    1.388   .     A
C797   H808    1.079   .     S
C798   H807    1.084   .     S
C799   H811    1.084   .     S
C799   C216    1.391   1_556 S
C800   F803    1.362   .     S
C800   C994    1.377   .     S
C801   F804    1.362   .     S
N819   Zn831   2.013   .     S
N820   Zn832   2.013   .     S
O823   Zn831   1.988   .     S
O824   Zn832   1.988   .     S
O825   Zn832   1.988   .     S
O826   Zn831   1.988   .     S
O827   Zn831   1.966   .     S
O828   Zn832   1.966   .     S
O829   Zn832   1.916   .     S
O830   Zn831   1.916   .     S
C833   O889    1.281   .     A
C833   C836    1.410   .     S
C833   O887    1.281   .     A
C834   C836    1.403   .     A
C834   C860    1.448   .     S
C834   C1057   1.377   .     S
C835   C866    1.403   .     A
C835   C865    1.397   .     A
C835   C844    1.410   .     S
C836   C864    1.397   .     A
C837   H873    1.082   .     S
C837   N884    1.366   .     A
C837   C903    1.417   .     S
C838   N883    1.366   .     A
C838   H874    1.081   .     S
C839   F869    1.355   .     S
C839   N883    1.369   .     A
C840   N884    1.369   .     A
C840   F870    1.355   .     S
C840   C902    1.417   .     S
C841   O893    1.293   .     A
C841   C843    1.457   .     S
C841   O891    1.294   .     A
C842   O892    1.293   .     A
C842   O894    1.294   .     A
C842   C845    1.457   .     S
C843   C850    1.391   .     A
C843   C848    1.400   .     A
C844   O890    1.281   .     A
C844   O888    1.280   .     A
C845   C849    1.399   .     A
C845   C851    1.394   .     A
C846   C854    1.405   .     A
C846   C848    1.396   .     A
C846   H880    1.084   .     S
C847   H881    1.083   .     S
C847   C856    1.404   .     A
C847   C849    1.393   .     A
C848   H879    1.083   .     S
C849   H878    1.083   .     S
C850   H877    1.079   .     S
C850   C852    1.393   .     A
C851   C853    1.395   .     A
C851   H876    1.077   .     S
C852   C854    1.416   .     A
C852   C857    1.416   .     A
C853   C858    1.418   .     A
C853   C856    1.419   .     A
C854   C286    1.392   1_556 S
C855   C862    1.390   .     A
C855   C858    1.418   .     A
C855   H882    1.079   .     S
C857   C861    1.417   .     A
C857   C282    1.413   1_556 S
C859   N885    1.157   .     T
C859   C866    1.448   .     S
C860   N886    1.157   .     T
C861   C863    1.388   .     A
C861   H872    1.079   .     S
C862   H871    1.084   .     S
C863   H875    1.084   .     S
C863   C280    1.391   1_556 S
C864   F867    1.362   .     S
C864   C1058   1.377   .     S
C865   F868    1.362   .     S
N883   Zn895   2.013   .     S
N884   Zn896   2.013   .     S
O887   Zn895   1.988   .     S
O888   Zn896   1.988   .     S
O889   Zn896   1.988   .     S
O890   Zn895   1.988   .     S
O891   Zn895   1.966   .     S
O892   Zn896   1.966   .     S
O893   Zn896   1.916   .     S
O894   Zn895   1.916   .     S
C897   O953    1.281   .     A
C897   C900    1.410   .     S
C897   O951    1.281   .     A
C898   C900    1.403   .     A
C898   C924    1.448   .     S
C898   C1121   1.377   .     S
C899   C930    1.403   .     A
C899   C929    1.397   .     A
C899   C908    1.410   .     S
C900   C928    1.397   .     A
C901   H937    1.082   .     S
C901   N948    1.366   .     A
C901   C775    1.417   1_655 S
C902   N947    1.366   .     A
C902   H938    1.081   .     S
C903   F933    1.355   .     S
C903   N947    1.369   .     A
C904   N948    1.369   .     A
C904   F934    1.355   .     S
C904   C774    1.417   1_655 S
C905   O957    1.293   .     A
C905   C907    1.457   .     S
C905   O955    1.294   .     A
C906   O956    1.293   .     A
C906   O958    1.294   .     A
C906   C909    1.457   .     S
C907   C914    1.391   .     A
C907   C912    1.400   .     A
C908   O954    1.281   .     A
C908   O952    1.280   .     A
C909   C913    1.399   .     A
C909   C915    1.394   .     A
C910   C918    1.405   .     A
C910   C912    1.396   .     A
C910   H944    1.084   .     S
C911   H945    1.083   .     S
C911   C920    1.404   .     A
C911   C913    1.393   .     A
C912   H943    1.083   .     S
C913   H942    1.083   .     S
C914   H941    1.079   .     S
C914   C916    1.393   .     A
C915   C917    1.395   .     A
C915   H940    1.077   .     S
C916   C918    1.416   .     A
C916   C921    1.416   .     A
C917   C922    1.418   .     A
C917   C920    1.419   .     A
C918   C350    1.392   1_556 S
C919   C926    1.390   .     A
C919   C922    1.418   .     A
C919   H946    1.079   .     S
C921   C925    1.417   .     A
C921   C346    1.413   1_556 S
C923   N949    1.157   .     T
C923   C930    1.448   .     S
C924   N950    1.157   .     T
C925   C927    1.388   .     A
C925   H936    1.079   .     S
C926   H935    1.084   .     S
C927   H939    1.084   .     S
C927   C344    1.391   1_556 S
C928   F931    1.362   .     S
C928   C1122   1.377   .     S
C929   F932    1.362   .     S
N947   Zn959   2.013   .     S
N948   Zn960   2.013   .     S
O951   Zn959   1.988   .     S
O952   Zn960   1.988   .     S
O953   Zn960   1.988   .     S
O954   Zn959   1.988   .     S
O955   Zn959   1.966   .     S
O956   Zn960   1.966   .     S
O957   Zn960   1.916   .     S
O958   Zn959   1.916   .     S
C961   O1017   1.281   .     A
C961   C964    1.410   .     S
C961   O1015   1.281   .     A
C962   C964    1.403   .     A
C962   C988    1.448   .     S
C962   C609    1.377   1_565 S
C963   C994    1.403   .     A
C963   C993    1.397   .     A
C963   C972    1.410   .     S
C964   C992    1.397   .     A
C965   H1001   1.082   .     S
C965   N1012   1.366   .     A
C965   C1031   1.417   .     S
C966   N1011   1.366   .     A
C966   H1002   1.081   .     S
C966   C1096   1.417   1_455 S
C967   F997    1.355   .     S
C967   N1011   1.369   .     A
C967   C1093   1.417   1_455 S
C968   N1012   1.369   .     A
C968   F998    1.355   .     S
C968   C1030   1.417   .     S
C969   O1021   1.293   .     A
C969   C971    1.457   .     S
C969   O1019   1.294   .     A
C970   O1020   1.293   .     A
C970   O1022   1.294   .     A
C970   C973    1.457   .     S
C971   C978    1.391   .     A
C971   C976    1.400   .     A
C972   O1018   1.281   .     A
C972   O1016   1.280   .     A
C973   C977    1.399   .     A
C973   C979    1.394   .     A
C974   C982    1.405   .     A
C974   C976    1.396   .     A
C974   H1008   1.084   .     S
C975   H1009   1.083   .     S
C975   C984    1.404   .     A
C975   C977    1.393   .     A
C976   H1007   1.083   .     S
C977   H1006   1.083   .     S
C978   H1005   1.079   .     S
C978   C980    1.393   .     A
C979   C981    1.395   .     A
C979   H1004   1.077   .     S
C980   C982    1.416   .     A
C980   C985    1.416   .     A
C981   C986    1.418   .     A
C981   C984    1.419   .     A
C982   C414    1.392   1_556 S
C983   C990    1.390   .     A
C983   C986    1.418   .     A
C983   H1010   1.079   .     S
C985   C989    1.417   .     A
C985   C410    1.413   1_556 S
C987   N1013   1.157   .     T
C987   C994    1.448   .     S
C988   N1014   1.157   .     T
C989   C991    1.388   .     A
C989   H1000   1.079   .     S
C990   H999    1.084   .     S
C991   H1003   1.084   .     S
C991   C408    1.391   1_556 S
C992   F995    1.362   .     S
C992   C610    1.377   1_565 S
C993   F996    1.362   .     S
N1011  Zn1023  2.013   .     S
N1012  Zn1024  2.013   .     S
O1015  Zn1023  1.988   .     S
O1016  Zn1024  1.988   .     S
O1017  Zn1024  1.988   .     S
O1018  Zn1023  1.988   .     S
O1019  Zn1023  1.966   .     S
O1020  Zn1024  1.966   .     S
O1021  Zn1024  1.916   .     S
O1022  Zn1023  1.916   .     S
C1025  O1081   1.281   .     A
C1025  C1028   1.410   .     S
C1025  O1079   1.281   .     A
C1026  C1028   1.403   .     A
C1026  C1052   1.448   .     S
C1026  C673    1.377   1_565 S
C1027  C1058   1.403   .     A
C1027  C1057   1.397   .     A
C1027  C1036   1.410   .     S
C1028  C1056   1.397   .     A
C1029  H1065   1.082   .     S
C1029  N1076   1.366   .     A
C1029  C1095   1.417   .     S
C1030  N1075   1.366   .     A
C1030  H1066   1.081   .     S
C1031  F1061   1.355   .     S
C1031  N1075   1.369   .     A
C1032  N1076   1.369   .     A
C1032  F1062   1.355   .     S
C1032  C1094   1.417   .     S
C1033  O1085   1.293   .     A
C1033  C1035   1.457   .     S
C1033  O1083   1.294   .     A
C1034  O1084   1.293   .     A
C1034  O1086   1.294   .     A
C1034  C1037   1.457   .     S
C1035  C1042   1.391   .     A
C1035  C1040   1.400   .     A
C1036  O1082   1.281   .     A
C1036  O1080   1.280   .     A
C1037  C1041   1.399   .     A
C1037  C1043   1.394   .     A
C1038  C1046   1.405   .     A
C1038  C1040   1.396   .     A
C1038  H1072   1.084   .     S
C1039  H1073   1.083   .     S
C1039  C1048   1.404   .     A
C1039  C1041   1.393   .     A
C1040  H1071   1.083   .     S
C1041  H1070   1.083   .     S
C1042  H1069   1.079   .     S
C1042  C1044   1.393   .     A
C1043  C1045   1.395   .     A
C1043  H1068   1.077   .     S
C1044  C1046   1.416   .     A
C1044  C1049   1.416   .     A
C1045  C1050   1.418   .     A
C1045  C1048   1.419   .     A
C1046  C478    1.392   1_556 S
C1047  C1054   1.390   .     A
C1047  C1050   1.418   .     A
C1047  H1074   1.079   .     S
C1049  C1053   1.417   .     A
C1049  C474    1.413   1_556 S
C1051  N1077   1.157   .     T
C1051  C1058   1.448   .     S
C1052  N1078   1.157   .     T
C1053  C1055   1.388   .     A
C1053  H1064   1.079   .     S
C1054  H1063   1.084   .     S
C1055  H1067   1.084   .     S
C1055  C472    1.391   1_556 S
C1056  F1059   1.362   .     S
C1056  C674    1.377   1_565 S
C1057  F1060   1.362   .     S
N1075  Zn1087  2.013   .     S
N1076  Zn1088  2.013   .     S
O1079  Zn1087  1.988   .     S
O1080  Zn1088  1.988   .     S
O1081  Zn1088  1.988   .     S
O1082  Zn1087  1.988   .     S
O1083  Zn1087  1.966   .     S
O1084  Zn1088  1.966   .     S
O1085  Zn1088  1.916   .     S
O1086  Zn1087  1.916   .     S
C1089  O1145   1.281   .     A
C1089  C1092   1.410   .     S
C1089  O1143   1.281   .     A
C1090  C1092   1.403   .     A
C1090  C1116   1.448   .     S
C1090  C737    1.377   1_565 S
C1091  C1122   1.403   .     A
C1091  C1121   1.397   .     A
C1091  C1100   1.410   .     S
C1092  C1120   1.397   .     A
C1093  H1129   1.082   .     S
C1093  N1140   1.366   .     A
C1093  C967    1.417   1_655 S
C1094  N1139   1.366   .     A
C1094  H1130   1.081   .     S
C1095  F1125   1.355   .     S
C1095  N1139   1.369   .     A
C1096  N1140   1.369   .     A
C1096  F1126   1.355   .     S
C1096  C966    1.417   1_655 S
C1097  O1149   1.293   .     A
C1097  C1099   1.457   .     S
C1097  O1147   1.294   .     A
C1098  O1148   1.293   .     A
C1098  O1150   1.294   .     A
C1098  C1101   1.457   .     S
C1099  C1106   1.391   .     A
C1099  C1104   1.400   .     A
C1100  O1146   1.281   .     A
C1100  O1144   1.280   .     A
C1101  C1105   1.399   .     A
C1101  C1107   1.394   .     A
C1102  C1110   1.405   .     A
C1102  C1104   1.396   .     A
C1102  H1136   1.084   .     S
C1103  H1137   1.083   .     S
C1103  C1112   1.404   .     A
C1103  C1105   1.393   .     A
C1104  H1135   1.083   .     S
C1105  H1134   1.083   .     S
C1106  H1133   1.079   .     S
C1106  C1108   1.393   .     A
C1107  C1109   1.395   .     A
C1107  H1132   1.077   .     S
C1108  C1110   1.416   .     A
C1108  C1113   1.416   .     A
C1109  C1114   1.418   .     A
C1109  C1112   1.419   .     A
C1110  C542    1.392   1_556 S
C1111  C1118   1.390   .     A
C1111  C1114   1.418   .     A
C1111  H1138   1.079   .     S
C1113  C1117   1.417   .     A
C1113  C538    1.413   1_556 S
C1115  N1141   1.157   .     T
C1115  C1122   1.448   .     S
C1116  N1142   1.157   .     T
C1117  C1119   1.388   .     A
C1117  H1128   1.079   .     S
C1118  H1127   1.084   .     S
C1119  H1131   1.084   .     S
C1119  C536    1.391   1_556 S
C1120  F1123   1.362   .     S
C1120  C738    1.377   1_565 S
C1121  F1124   1.362   .     S
N1139  Zn1151  2.013   .     S
N1140  Zn1152  2.013   .     S
O1143  Zn1151  1.988   .     S
O1144  Zn1152  1.988   .     S
O1145  Zn1152  1.988   .     S
O1146  Zn1151  1.988   .     S
O1147  Zn1151  1.966   .     S
O1148  Zn1152  1.966   .     S
O1149  Zn1152  1.916   .     S
O1150  Zn1151  1.916   .     S
