data_str_m3_o1_o18_pcu_sym.3
_audit_creation_date              2020-01-03
_audit_creation_method            'Materials Studio'
_symmetry_space_group_name_H-M    'P1'
_symmetry_Int_Tables_number       1
_symmetry_cell_setting            triclinic
loop_
_symmetry_equiv_pos_as_xyz
  x,y,z
_cell_length_a                    29.5693
_cell_length_b                    31.9881
_cell_length_c                    30.9816
_cell_angle_alpha                 90.4002
_cell_angle_beta                  67.5852
_cell_angle_gamma                 90.1145
loop_
_atom_site_label
_atom_site_type_symbol
_atom_site_fract_x
_atom_site_fract_y
_atom_site_fract_z
_atom_site_U_iso_or_equiv
_atom_site_adp_type
_atom_site_occupancy
C1     C     0.16671   0.24662   0.24997   0.00000  Uiso   1.00
C2     C     0.16367   0.31148   0.21134   0.00000  Uiso   1.00
C3     C     0.16657   0.04267   0.24998   0.00000  Uiso   1.00
C4     C     0.16666   0.29078   0.24996   0.00000  Uiso   1.00
C5     C     0.32189   0.14296   0.21850   0.00000  Uiso   1.00
C6     C     0.01146   0.19041   0.28147   0.00000  Uiso   1.00
C7     C     0.03647   0.14295   0.21852   0.00000  Uiso   1.00
C8     C     0.29688   0.19042   0.28144   0.00000  Uiso   1.00
C9     C     0.13603   0.16658   0.33805   0.00000  Uiso   1.00
C10    C     0.19727   0.16699   0.16196   0.00000  Uiso   1.00
C11    C     0.11639   0.16616   0.38889   0.00000  Uiso   1.00
C12    C     0.16664   0.08676   0.24994   0.00000  Uiso   1.00
C13    C     0.21578   0.17381   0.11179   0.00000  Uiso   1.00
C14    C     0.05535   0.14464   0.46289   0.00000  Uiso   1.00
C15    C     0.26661   0.21365   0.04463   0.00000  Uiso   1.00
C16    C     0.07025   0.14971   0.41476   0.00000  Uiso   1.00
C17    C     0.25755   0.19785   0.08909   0.00000  Uiso   1.00
C18    C     0.14660   0.17965   0.41121   0.00000  Uiso   1.00
C19    C     0.18456   0.16378   0.08937   0.00000  Uiso   1.00
C20    C     0.13219   0.17683   0.45948   0.00000  Uiso   1.00
C21    C     0.18984   0.18214   0.04710   0.00000  Uiso   1.00
C22    C     0.08644   0.15779   0.48559   0.00000  Uiso   1.00
C23    C     0.10672   0.16022   0.05404   0.00000  Uiso   1.00
C24    C     0.23256   0.20613   0.02338   0.00000  Uiso   1.00
C25    C     0.16422   0.18931   0.48155   0.00000  Uiso   1.00
C26    C     0.15362   0.17678   0.02794   0.00000  Uiso   1.00
C27    C     0.20655   0.21372   0.45874   0.00000  Uiso   1.00
C28    C     0.07358   0.15153   0.03332   0.00000  Uiso   1.00
C29    C     0.23968   0.22231   0.47955   0.00000  Uiso   1.00
C30    C     0.16918   0.31205   0.28874   0.00000  Uiso   1.00
C31    C     0.16415   0.02147   0.21115   0.00000  Uiso   1.00
C32    C     0.16889   0.02205   0.28886   0.00000  Uiso   1.00
H33    H     0.03839   0.13878   0.05499   0.00000  Uiso   1.00
H34    H     0.21422   0.22801   0.42525   0.00000  Uiso   1.00
H35    H     0.06458   0.12395   0.19332   0.00000  Uiso   1.00
H36    H     0.26879   0.20946   0.30661   0.00000  Uiso   1.00
H37    H     0.27114   0.24133   0.46050   0.00000  Uiso   1.00
H38    H     0.15489   0.14260   0.10684   0.00000  Uiso   1.00
H39    H     0.18278   0.19016   0.38968   0.00000  Uiso   1.00
H40    H     0.28165   0.20614   0.10676   0.00000  Uiso   1.00
H41    H     0.04701   0.13858   0.39726   0.00000  Uiso   1.00
H42    H     0.31379   0.12400   0.19329   0.00000  Uiso   1.00
H43    H     0.01958   0.20939   0.30665   0.00000  Uiso   1.00
H44    H     0.09395   0.15472   0.09110   0.00000  Uiso   1.00
I45    I     0.32132   0.11275   0.49697   0.00000  Uiso   1.00
I46    I     0.33052   0.25084   0.01411   0.00000  Uiso   1.00
I47    I     0.17087   0.27875   0.34788   0.00000  Uiso   1.00
I48    I     0.16369   0.05507   0.15160   0.00000  Uiso   1.00
I49    I     0.16979   0.05654   0.34828   0.00000  Uiso   1.00
I50    I     0.15977   0.27735   0.15298   0.00000  Uiso   1.00
N51    N     0.04759   0.16668   0.25001   0.00000  Uiso   1.00
N52    N     0.28574   0.16666   0.24999   0.00000  Uiso   1.00
O53    O     0.12846   0.22775   0.25000   0.00000  Uiso   1.00
O54    O     0.20488   0.10558   0.24999   0.00000  Uiso   1.00
O55    O     0.20490   0.22774   0.25000   0.00000  Uiso   1.00
O56    O     0.12843   0.10559   0.25000   0.00000  Uiso   1.00
O57    O     0.10661   0.16667   0.31612   0.00000  Uiso   1.00
O58    O     0.22672   0.16666   0.18387   0.00000  Uiso   1.00
O59    O     0.18305   0.16666   0.31612   0.00000  Uiso   1.00
O60    O     0.15028   0.16667   0.18388   0.00000  Uiso   1.00
Zn61   Zn    0.11562   0.16667   0.25000   0.00000  Uiso   1.00
Zn62   Zn    0.21771   0.16666   0.25000   0.00000  Uiso   1.00
C63    C     0.50004   0.24662   0.24997   0.00000  Uiso   1.00
C64    C     0.49700   0.31148   0.21134   0.00000  Uiso   1.00
C65    C     0.49991   0.04267   0.24998   0.00000  Uiso   1.00
C66    C     0.49999   0.29078   0.24996   0.00000  Uiso   1.00
C67    C     0.65523   0.14296   0.21850   0.00000  Uiso   1.00
C68    C     0.34479   0.19041   0.28147   0.00000  Uiso   1.00
C69    C     0.36980   0.14295   0.21852   0.00000  Uiso   1.00
C70    C     0.63021   0.19042   0.28144   0.00000  Uiso   1.00
C71    C     0.46936   0.16658   0.33805   0.00000  Uiso   1.00
C72    C     0.53061   0.16699   0.16196   0.00000  Uiso   1.00
C73    C     0.44973   0.16616   0.38889   0.00000  Uiso   1.00
C74    C     0.49998   0.08676   0.24994   0.00000  Uiso   1.00
C75    C     0.54911   0.17381   0.11179   0.00000  Uiso   1.00
C76    C     0.38868   0.14464   0.46289   0.00000  Uiso   1.00
C77    C     0.59994   0.21365   0.04463   0.00000  Uiso   1.00
C78    C     0.40358   0.14971   0.41476   0.00000  Uiso   1.00
C79    C     0.59088   0.19785   0.08909   0.00000  Uiso   1.00
C80    C     0.47993   0.17965   0.41121   0.00000  Uiso   1.00
C81    C     0.51789   0.16378   0.08937   0.00000  Uiso   1.00
C82    C     0.46552   0.17683   0.45948   0.00000  Uiso   1.00
C83    C     0.52317   0.18214   0.04710   0.00000  Uiso   1.00
C84    C     0.41977   0.15779   0.48559   0.00000  Uiso   1.00
C85    C     0.44005   0.16022   0.05404   0.00000  Uiso   1.00
C86    C     0.56589   0.20613   0.02338   0.00000  Uiso   1.00
C87    C     0.49756   0.18931   0.48155   0.00000  Uiso   1.00
C88    C     0.48695   0.17678   0.02794   0.00000  Uiso   1.00
C89    C     0.53989   0.21372   0.45874   0.00000  Uiso   1.00
C90    C     0.40691   0.15153   0.03332   0.00000  Uiso   1.00
C91    C     0.57301   0.22231   0.47955   0.00000  Uiso   1.00
C92    C     0.50251   0.31205   0.28874   0.00000  Uiso   1.00
C93    C     0.49748   0.02147   0.21115   0.00000  Uiso   1.00
C94    C     0.50223   0.02205   0.28886   0.00000  Uiso   1.00
H95    H     0.37173   0.13878   0.05499   0.00000  Uiso   1.00
H96    H     0.54755   0.22801   0.42525   0.00000  Uiso   1.00
H97    H     0.39791   0.12395   0.19332   0.00000  Uiso   1.00
H98    H     0.60212   0.20946   0.30661   0.00000  Uiso   1.00
H99    H     0.60448   0.24133   0.46050   0.00000  Uiso   1.00
H100   H     0.48823   0.14260   0.10684   0.00000  Uiso   1.00
H101   H     0.51611   0.19016   0.38968   0.00000  Uiso   1.00
H102   H     0.61499   0.20614   0.10676   0.00000  Uiso   1.00
H103   H     0.38035   0.13858   0.39726   0.00000  Uiso   1.00
H104   H     0.64712   0.12400   0.19329   0.00000  Uiso   1.00
H105   H     0.35291   0.20939   0.30665   0.00000  Uiso   1.00
H106   H     0.42729   0.15472   0.09110   0.00000  Uiso   1.00
I107   I     0.65465   0.11275   0.49697   0.00000  Uiso   1.00
I108   I     0.66386   0.25084   0.01411   0.00000  Uiso   1.00
I109   I     0.50421   0.27875   0.34788   0.00000  Uiso   1.00
I110   I     0.49703   0.05507   0.15160   0.00000  Uiso   1.00
I111   I     0.50312   0.05654   0.34828   0.00000  Uiso   1.00
I112   I     0.49310   0.27735   0.15298   0.00000  Uiso   1.00
N113   N     0.38093   0.16668   0.25001   0.00000  Uiso   1.00
N114   N     0.61907   0.16666   0.24999   0.00000  Uiso   1.00
O115   O     0.46179   0.22775   0.25000   0.00000  Uiso   1.00
O116   O     0.53821   0.10558   0.24999   0.00000  Uiso   1.00
O117   O     0.53823   0.22774   0.25000   0.00000  Uiso   1.00
O118   O     0.46177   0.10559   0.25000   0.00000  Uiso   1.00
O119   O     0.43994   0.16667   0.31612   0.00000  Uiso   1.00
O120   O     0.56006   0.16666   0.18387   0.00000  Uiso   1.00
O121   O     0.51639   0.16666   0.31612   0.00000  Uiso   1.00
O122   O     0.48361   0.16667   0.18388   0.00000  Uiso   1.00
Zn123  Zn    0.44896   0.16667   0.25000   0.00000  Uiso   1.00
Zn124  Zn    0.55104   0.16666   0.25000   0.00000  Uiso   1.00
C125   C     0.83337   0.24662   0.24997   0.00000  Uiso   1.00
C126   C     0.83034   0.31148   0.21134   0.00000  Uiso   1.00
C127   C     0.83324   0.04267   0.24998   0.00000  Uiso   1.00
C128   C     0.83332   0.29078   0.24996   0.00000  Uiso   1.00
C129   C     0.98856   0.14296   0.21850   0.00000  Uiso   1.00
C130   C     0.67812   0.19041   0.28147   0.00000  Uiso   1.00
C131   C     0.70314   0.14295   0.21852   0.00000  Uiso   1.00
C132   C     0.96355   0.19042   0.28144   0.00000  Uiso   1.00
C133   C     0.80269   0.16658   0.33805   0.00000  Uiso   1.00
C134   C     0.86394   0.16699   0.16196   0.00000  Uiso   1.00
C135   C     0.78306   0.16616   0.38889   0.00000  Uiso   1.00
C136   C     0.83331   0.08676   0.24994   0.00000  Uiso   1.00
C137   C     0.88244   0.17381   0.11179   0.00000  Uiso   1.00
C138   C     0.72201   0.14464   0.46289   0.00000  Uiso   1.00
C139   C     0.93328   0.21365   0.04463   0.00000  Uiso   1.00
C140   C     0.73692   0.14971   0.41476   0.00000  Uiso   1.00
C141   C     0.92421   0.19785   0.08909   0.00000  Uiso   1.00
C142   C     0.81327   0.17965   0.41121   0.00000  Uiso   1.00
C143   C     0.85123   0.16378   0.08937   0.00000  Uiso   1.00
C144   C     0.79885   0.17683   0.45948   0.00000  Uiso   1.00
C145   C     0.85651   0.18214   0.04710   0.00000  Uiso   1.00
C146   C     0.75310   0.15779   0.48559   0.00000  Uiso   1.00
C147   C     0.77339   0.16022   0.05404   0.00000  Uiso   1.00
C148   C     0.89922   0.20613   0.02338   0.00000  Uiso   1.00
C149   C     0.83089   0.18931   0.48155   0.00000  Uiso   1.00
C150   C     0.82029   0.17678   0.02794   0.00000  Uiso   1.00
C151   C     0.87322   0.21372   0.45874   0.00000  Uiso   1.00
C152   C     0.74024   0.15153   0.03332   0.00000  Uiso   1.00
C153   C     0.90634   0.22231   0.47955   0.00000  Uiso   1.00
C154   C     0.83585   0.31205   0.28874   0.00000  Uiso   1.00
C155   C     0.83081   0.02147   0.21115   0.00000  Uiso   1.00
C156   C     0.83556   0.02205   0.28886   0.00000  Uiso   1.00
H157   H     0.70506   0.13878   0.05499   0.00000  Uiso   1.00
H158   H     0.88088   0.22801   0.42525   0.00000  Uiso   1.00
H159   H     0.73124   0.12395   0.19332   0.00000  Uiso   1.00
H160   H     0.93545   0.20946   0.30661   0.00000  Uiso   1.00
H161   H     0.93781   0.24133   0.46050   0.00000  Uiso   1.00
H162   H     0.82156   0.14260   0.10684   0.00000  Uiso   1.00
H163   H     0.84944   0.19016   0.38968   0.00000  Uiso   1.00
H164   H     0.94832   0.20614   0.10676   0.00000  Uiso   1.00
H165   H     0.71368   0.13858   0.39726   0.00000  Uiso   1.00
H166   H     0.98045   0.12400   0.19329   0.00000  Uiso   1.00
H167   H     0.68624   0.20939   0.30665   0.00000  Uiso   1.00
H168   H     0.76062   0.15472   0.09110   0.00000  Uiso   1.00
I169   I     0.98798   0.11275   0.49697   0.00000  Uiso   1.00
I170   I     0.99719   0.25084   0.01411   0.00000  Uiso   1.00
I171   I     0.83754   0.27875   0.34788   0.00000  Uiso   1.00
I172   I     0.83036   0.05507   0.15160   0.00000  Uiso   1.00
I173   I     0.83646   0.05654   0.34828   0.00000  Uiso   1.00
I174   I     0.82644   0.27735   0.15298   0.00000  Uiso   1.00
N175   N     0.71426   0.16668   0.25001   0.00000  Uiso   1.00
N176   N     0.95241   0.16666   0.24999   0.00000  Uiso   1.00
O177   O     0.79512   0.22775   0.25000   0.00000  Uiso   1.00
O178   O     0.87154   0.10558   0.24999   0.00000  Uiso   1.00
O179   O     0.87157   0.22774   0.25000   0.00000  Uiso   1.00
O180   O     0.79510   0.10559   0.25000   0.00000  Uiso   1.00
O181   O     0.77328   0.16667   0.31612   0.00000  Uiso   1.00
O182   O     0.89339   0.16666   0.18387   0.00000  Uiso   1.00
O183   O     0.84972   0.16666   0.31612   0.00000  Uiso   1.00
O184   O     0.81695   0.16667   0.18388   0.00000  Uiso   1.00
Zn185  Zn    0.78229   0.16667   0.25000   0.00000  Uiso   1.00
Zn186  Zn    0.88438   0.16666   0.25000   0.00000  Uiso   1.00
C187   C     0.16671   0.57995   0.24997   0.00000  Uiso   1.00
C188   C     0.16367   0.64481   0.21134   0.00000  Uiso   1.00
C189   C     0.16657   0.37601   0.24998   0.00000  Uiso   1.00
C190   C     0.16666   0.62412   0.24996   0.00000  Uiso   1.00
C191   C     0.32189   0.47629   0.21850   0.00000  Uiso   1.00
C192   C     0.01146   0.52374   0.28147   0.00000  Uiso   1.00
C193   C     0.03647   0.47628   0.21852   0.00000  Uiso   1.00
C194   C     0.29688   0.52376   0.28144   0.00000  Uiso   1.00
C195   C     0.13603   0.49991   0.33805   0.00000  Uiso   1.00
C196   C     0.19727   0.50032   0.16196   0.00000  Uiso   1.00
C197   C     0.11639   0.49949   0.38889   0.00000  Uiso   1.00
C198   C     0.16664   0.42009   0.24994   0.00000  Uiso   1.00
C199   C     0.21578   0.50714   0.11179   0.00000  Uiso   1.00
C200   C     0.05535   0.47797   0.46289   0.00000  Uiso   1.00
C201   C     0.26661   0.54698   0.04463   0.00000  Uiso   1.00
C202   C     0.07025   0.48304   0.41476   0.00000  Uiso   1.00
C203   C     0.25755   0.53118   0.08909   0.00000  Uiso   1.00
C204   C     0.14660   0.51299   0.41121   0.00000  Uiso   1.00
C205   C     0.18456   0.49712   0.08937   0.00000  Uiso   1.00
C206   C     0.13219   0.51016   0.45948   0.00000  Uiso   1.00
C207   C     0.18984   0.51547   0.04710   0.00000  Uiso   1.00
C208   C     0.08644   0.49113   0.48559   0.00000  Uiso   1.00
C209   C     0.10672   0.49355   0.05404   0.00000  Uiso   1.00
C210   C     0.23256   0.53946   0.02338   0.00000  Uiso   1.00
C211   C     0.16422   0.52264   0.48155   0.00000  Uiso   1.00
C212   C     0.15362   0.51012   0.02794   0.00000  Uiso   1.00
C213   C     0.20655   0.54706   0.45874   0.00000  Uiso   1.00
C214   C     0.07358   0.48486   0.03332   0.00000  Uiso   1.00
C215   C     0.23968   0.55565   0.47955   0.00000  Uiso   1.00
C216   C     0.16918   0.64539   0.28874   0.00000  Uiso   1.00
C217   C     0.16415   0.35481   0.21115   0.00000  Uiso   1.00
C218   C     0.16889   0.35538   0.28886   0.00000  Uiso   1.00
H219   H     0.03839   0.47211   0.05499   0.00000  Uiso   1.00
H220   H     0.21422   0.56134   0.42525   0.00000  Uiso   1.00
H221   H     0.06458   0.45728   0.19332   0.00000  Uiso   1.00
H222   H     0.26879   0.54279   0.30661   0.00000  Uiso   1.00
H223   H     0.27114   0.57466   0.46050   0.00000  Uiso   1.00
H224   H     0.15489   0.47594   0.10684   0.00000  Uiso   1.00
H225   H     0.18278   0.52349   0.38968   0.00000  Uiso   1.00
H226   H     0.28165   0.53947   0.10676   0.00000  Uiso   1.00
H227   H     0.04701   0.47191   0.39726   0.00000  Uiso   1.00
H228   H     0.31379   0.45733   0.19329   0.00000  Uiso   1.00
H229   H     0.01958   0.54273   0.30665   0.00000  Uiso   1.00
H230   H     0.09395   0.48806   0.09110   0.00000  Uiso   1.00
I231   I     0.32132   0.44608   0.49697   0.00000  Uiso   1.00
I232   I     0.33052   0.58417   0.01411   0.00000  Uiso   1.00
I233   I     0.17087   0.61208   0.34788   0.00000  Uiso   1.00
I234   I     0.16369   0.38840   0.15160   0.00000  Uiso   1.00
I235   I     0.16979   0.38987   0.34828   0.00000  Uiso   1.00
I236   I     0.15977   0.61068   0.15298   0.00000  Uiso   1.00
N237   N     0.04759   0.50001   0.25001   0.00000  Uiso   1.00
N238   N     0.28574   0.49999   0.24999   0.00000  Uiso   1.00
O239   O     0.12846   0.56108   0.25000   0.00000  Uiso   1.00
O240   O     0.20488   0.43892   0.24999   0.00000  Uiso   1.00
O241   O     0.20490   0.56107   0.25000   0.00000  Uiso   1.00
O242   O     0.12843   0.43893   0.25000   0.00000  Uiso   1.00
O243   O     0.10661   0.50001   0.31612   0.00000  Uiso   1.00
O244   O     0.22672   0.49999   0.18387   0.00000  Uiso   1.00
O245   O     0.18305   0.50000   0.31612   0.00000  Uiso   1.00
O246   O     0.15028   0.50000   0.18388   0.00000  Uiso   1.00
Zn247  Zn    0.11562   0.50001   0.25000   0.00000  Uiso   1.00
Zn248  Zn    0.21771   0.49999   0.25000   0.00000  Uiso   1.00
C249   C     0.50004   0.57995   0.24997   0.00000  Uiso   1.00
C250   C     0.49700   0.64481   0.21134   0.00000  Uiso   1.00
C251   C     0.49991   0.37601   0.24998   0.00000  Uiso   1.00
C252   C     0.49999   0.62412   0.24996   0.00000  Uiso   1.00
C253   C     0.65523   0.47629   0.21850   0.00000  Uiso   1.00
C254   C     0.34479   0.52374   0.28147   0.00000  Uiso   1.00
C255   C     0.36980   0.47628   0.21852   0.00000  Uiso   1.00
C256   C     0.63021   0.52376   0.28144   0.00000  Uiso   1.00
C257   C     0.46936   0.49991   0.33805   0.00000  Uiso   1.00
C258   C     0.53061   0.50032   0.16196   0.00000  Uiso   1.00
C259   C     0.44973   0.49949   0.38889   0.00000  Uiso   1.00
C260   C     0.49998   0.42009   0.24994   0.00000  Uiso   1.00
C261   C     0.54911   0.50714   0.11179   0.00000  Uiso   1.00
C262   C     0.38868   0.47797   0.46289   0.00000  Uiso   1.00
C263   C     0.59994   0.54698   0.04463   0.00000  Uiso   1.00
C264   C     0.40358   0.48304   0.41476   0.00000  Uiso   1.00
C265   C     0.59088   0.53118   0.08909   0.00000  Uiso   1.00
C266   C     0.47993   0.51299   0.41121   0.00000  Uiso   1.00
C267   C     0.51789   0.49712   0.08937   0.00000  Uiso   1.00
C268   C     0.46552   0.51016   0.45948   0.00000  Uiso   1.00
C269   C     0.52317   0.51547   0.04710   0.00000  Uiso   1.00
C270   C     0.41977   0.49113   0.48559   0.00000  Uiso   1.00
C271   C     0.44005   0.49355   0.05404   0.00000  Uiso   1.00
C272   C     0.56589   0.53946   0.02338   0.00000  Uiso   1.00
C273   C     0.49756   0.52264   0.48155   0.00000  Uiso   1.00
C274   C     0.48695   0.51012   0.02794   0.00000  Uiso   1.00
C275   C     0.53989   0.54706   0.45874   0.00000  Uiso   1.00
C276   C     0.40691   0.48486   0.03332   0.00000  Uiso   1.00
C277   C     0.57301   0.55565   0.47955   0.00000  Uiso   1.00
C278   C     0.50251   0.64539   0.28874   0.00000  Uiso   1.00
C279   C     0.49748   0.35481   0.21115   0.00000  Uiso   1.00
C280   C     0.50223   0.35538   0.28886   0.00000  Uiso   1.00
H281   H     0.37173   0.47211   0.05499   0.00000  Uiso   1.00
H282   H     0.54755   0.56134   0.42525   0.00000  Uiso   1.00
H283   H     0.39791   0.45728   0.19332   0.00000  Uiso   1.00
H284   H     0.60212   0.54279   0.30661   0.00000  Uiso   1.00
H285   H     0.60448   0.57466   0.46050   0.00000  Uiso   1.00
H286   H     0.48823   0.47594   0.10684   0.00000  Uiso   1.00
H287   H     0.51611   0.52349   0.38968   0.00000  Uiso   1.00
H288   H     0.61499   0.53947   0.10676   0.00000  Uiso   1.00
H289   H     0.38035   0.47191   0.39726   0.00000  Uiso   1.00
H290   H     0.64712   0.45733   0.19329   0.00000  Uiso   1.00
H291   H     0.35291   0.54273   0.30665   0.00000  Uiso   1.00
H292   H     0.42729   0.48806   0.09110   0.00000  Uiso   1.00
I293   I     0.65465   0.44608   0.49697   0.00000  Uiso   1.00
I294   I     0.66386   0.58417   0.01411   0.00000  Uiso   1.00
I295   I     0.50421   0.61208   0.34788   0.00000  Uiso   1.00
I296   I     0.49703   0.38840   0.15160   0.00000  Uiso   1.00
I297   I     0.50312   0.38987   0.34828   0.00000  Uiso   1.00
I298   I     0.49310   0.61068   0.15298   0.00000  Uiso   1.00
N299   N     0.38093   0.50001   0.25001   0.00000  Uiso   1.00
N300   N     0.61907   0.49999   0.24999   0.00000  Uiso   1.00
O301   O     0.46179   0.56108   0.25000   0.00000  Uiso   1.00
O302   O     0.53821   0.43892   0.24999   0.00000  Uiso   1.00
O303   O     0.53823   0.56107   0.25000   0.00000  Uiso   1.00
O304   O     0.46177   0.43893   0.25000   0.00000  Uiso   1.00
O305   O     0.43994   0.50001   0.31612   0.00000  Uiso   1.00
O306   O     0.56006   0.49999   0.18387   0.00000  Uiso   1.00
O307   O     0.51639   0.50000   0.31612   0.00000  Uiso   1.00
O308   O     0.48361   0.50000   0.18388   0.00000  Uiso   1.00
Zn309  Zn    0.44896   0.50001   0.25000   0.00000  Uiso   1.00
Zn310  Zn    0.55104   0.49999   0.25000   0.00000  Uiso   1.00
C311   C     0.83337   0.57995   0.24997   0.00000  Uiso   1.00
C312   C     0.83034   0.64481   0.21134   0.00000  Uiso   1.00
C313   C     0.83324   0.37601   0.24998   0.00000  Uiso   1.00
C314   C     0.83332   0.62412   0.24996   0.00000  Uiso   1.00
C315   C     0.98856   0.47629   0.21850   0.00000  Uiso   1.00
C316   C     0.67812   0.52374   0.28147   0.00000  Uiso   1.00
C317   C     0.70314   0.47628   0.21852   0.00000  Uiso   1.00
C318   C     0.96355   0.52376   0.28144   0.00000  Uiso   1.00
C319   C     0.80269   0.49991   0.33805   0.00000  Uiso   1.00
C320   C     0.86394   0.50032   0.16196   0.00000  Uiso   1.00
C321   C     0.78306   0.49949   0.38889   0.00000  Uiso   1.00
C322   C     0.83331   0.42009   0.24994   0.00000  Uiso   1.00
C323   C     0.88244   0.50714   0.11179   0.00000  Uiso   1.00
C324   C     0.72201   0.47797   0.46289   0.00000  Uiso   1.00
C325   C     0.93328   0.54698   0.04463   0.00000  Uiso   1.00
C326   C     0.73692   0.48304   0.41476   0.00000  Uiso   1.00
C327   C     0.92421   0.53118   0.08909   0.00000  Uiso   1.00
C328   C     0.81327   0.51299   0.41121   0.00000  Uiso   1.00
C329   C     0.85123   0.49712   0.08937   0.00000  Uiso   1.00
C330   C     0.79885   0.51016   0.45948   0.00000  Uiso   1.00
C331   C     0.85651   0.51547   0.04710   0.00000  Uiso   1.00
C332   C     0.75310   0.49113   0.48559   0.00000  Uiso   1.00
C333   C     0.77339   0.49355   0.05404   0.00000  Uiso   1.00
C334   C     0.89922   0.53946   0.02338   0.00000  Uiso   1.00
C335   C     0.83089   0.52264   0.48155   0.00000  Uiso   1.00
C336   C     0.82029   0.51012   0.02794   0.00000  Uiso   1.00
C337   C     0.87322   0.54706   0.45874   0.00000  Uiso   1.00
C338   C     0.74024   0.48486   0.03332   0.00000  Uiso   1.00
C339   C     0.90634   0.55565   0.47955   0.00000  Uiso   1.00
C340   C     0.83585   0.64539   0.28874   0.00000  Uiso   1.00
C341   C     0.83081   0.35481   0.21115   0.00000  Uiso   1.00
C342   C     0.83556   0.35538   0.28886   0.00000  Uiso   1.00
H343   H     0.70506   0.47211   0.05499   0.00000  Uiso   1.00
H344   H     0.88088   0.56134   0.42525   0.00000  Uiso   1.00
H345   H     0.73124   0.45728   0.19332   0.00000  Uiso   1.00
H346   H     0.93545   0.54279   0.30661   0.00000  Uiso   1.00
H347   H     0.93781   0.57466   0.46050   0.00000  Uiso   1.00
H348   H     0.82156   0.47594   0.10684   0.00000  Uiso   1.00
H349   H     0.84944   0.52349   0.38968   0.00000  Uiso   1.00
H350   H     0.94832   0.53947   0.10676   0.00000  Uiso   1.00
H351   H     0.71368   0.47191   0.39726   0.00000  Uiso   1.00
H352   H     0.98045   0.45733   0.19329   0.00000  Uiso   1.00
H353   H     0.68624   0.54273   0.30665   0.00000  Uiso   1.00
H354   H     0.76062   0.48806   0.09110   0.00000  Uiso   1.00
I355   I     0.98798   0.44608   0.49697   0.00000  Uiso   1.00
I356   I     0.99719   0.58417   0.01411   0.00000  Uiso   1.00
I357   I     0.83754   0.61208   0.34788   0.00000  Uiso   1.00
I358   I     0.83036   0.38840   0.15160   0.00000  Uiso   1.00
I359   I     0.83646   0.38987   0.34828   0.00000  Uiso   1.00
I360   I     0.82644   0.61068   0.15298   0.00000  Uiso   1.00
N361   N     0.71426   0.50001   0.25001   0.00000  Uiso   1.00
N362   N     0.95241   0.49999   0.24999   0.00000  Uiso   1.00
O363   O     0.79512   0.56108   0.25000   0.00000  Uiso   1.00
O364   O     0.87154   0.43892   0.24999   0.00000  Uiso   1.00
O365   O     0.87157   0.56107   0.25000   0.00000  Uiso   1.00
O366   O     0.79510   0.43893   0.25000   0.00000  Uiso   1.00
O367   O     0.77328   0.50001   0.31612   0.00000  Uiso   1.00
O368   O     0.89339   0.49999   0.18387   0.00000  Uiso   1.00
O369   O     0.84972   0.50000   0.31612   0.00000  Uiso   1.00
O370   O     0.81695   0.50000   0.18388   0.00000  Uiso   1.00
Zn371  Zn    0.78229   0.50001   0.25000   0.00000  Uiso   1.00
Zn372  Zn    0.88438   0.49999   0.25000   0.00000  Uiso   1.00
C373   C     0.16671   0.91329   0.24997   0.00000  Uiso   1.00
C374   C     0.16367   0.97815   0.21134   0.00000  Uiso   1.00
C375   C     0.16657   0.70934   0.24998   0.00000  Uiso   1.00
C376   C     0.16666   0.95745   0.24996   0.00000  Uiso   1.00
C377   C     0.32189   0.80962   0.21850   0.00000  Uiso   1.00
C378   C     0.01146   0.85708   0.28147   0.00000  Uiso   1.00
C379   C     0.03647   0.80961   0.21852   0.00000  Uiso   1.00
C380   C     0.29688   0.85709   0.28144   0.00000  Uiso   1.00
C381   C     0.13603   0.83325   0.33805   0.00000  Uiso   1.00
C382   C     0.19727   0.83365   0.16196   0.00000  Uiso   1.00
C383   C     0.11639   0.83283   0.38889   0.00000  Uiso   1.00
C384   C     0.16664   0.75342   0.24994   0.00000  Uiso   1.00
C385   C     0.21578   0.84048   0.11179   0.00000  Uiso   1.00
C386   C     0.05535   0.81131   0.46289   0.00000  Uiso   1.00
C387   C     0.26661   0.88031   0.04463   0.00000  Uiso   1.00
C388   C     0.07025   0.81638   0.41476   0.00000  Uiso   1.00
C389   C     0.25755   0.86451   0.08909   0.00000  Uiso   1.00
C390   C     0.14660   0.84632   0.41121   0.00000  Uiso   1.00
C391   C     0.18456   0.83045   0.08937   0.00000  Uiso   1.00
C392   C     0.13219   0.84349   0.45948   0.00000  Uiso   1.00
C393   C     0.18984   0.84881   0.04710   0.00000  Uiso   1.00
C394   C     0.08644   0.82446   0.48559   0.00000  Uiso   1.00
C395   C     0.10672   0.82689   0.05404   0.00000  Uiso   1.00
C396   C     0.23256   0.87279   0.02338   0.00000  Uiso   1.00
C397   C     0.16422   0.85597   0.48155   0.00000  Uiso   1.00
C398   C     0.15362   0.84345   0.02794   0.00000  Uiso   1.00
C399   C     0.20655   0.88039   0.45874   0.00000  Uiso   1.00
C400   C     0.07358   0.81820   0.03332   0.00000  Uiso   1.00
C401   C     0.23968   0.88898   0.47955   0.00000  Uiso   1.00
C402   C     0.16918   0.97872   0.28874   0.00000  Uiso   1.00
C403   C     0.16415   0.68814   0.21115   0.00000  Uiso   1.00
C404   C     0.16889   0.68872   0.28886   0.00000  Uiso   1.00
H405   H     0.03839   0.80545   0.05499   0.00000  Uiso   1.00
H406   H     0.21422   0.89467   0.42525   0.00000  Uiso   1.00
H407   H     0.06458   0.79061   0.19332   0.00000  Uiso   1.00
H408   H     0.26879   0.87612   0.30661   0.00000  Uiso   1.00
H409   H     0.27114   0.90800   0.46050   0.00000  Uiso   1.00
H410   H     0.15489   0.80927   0.10684   0.00000  Uiso   1.00
H411   H     0.18278   0.85682   0.38968   0.00000  Uiso   1.00
H412   H     0.28165   0.87281   0.10676   0.00000  Uiso   1.00
H413   H     0.04701   0.80525   0.39726   0.00000  Uiso   1.00
H414   H     0.31379   0.79067   0.19329   0.00000  Uiso   1.00
H415   H     0.01958   0.87606   0.30665   0.00000  Uiso   1.00
H416   H     0.09395   0.82139   0.09110   0.00000  Uiso   1.00
I417   I     0.32132   0.77941   0.49697   0.00000  Uiso   1.00
I418   I     0.33052   0.91750   0.01411   0.00000  Uiso   1.00
I419   I     0.17087   0.94542   0.34788   0.00000  Uiso   1.00
I420   I     0.16369   0.72174   0.15160   0.00000  Uiso   1.00
I421   I     0.16979   0.72320   0.34828   0.00000  Uiso   1.00
I422   I     0.15977   0.94401   0.15298   0.00000  Uiso   1.00
N423   N     0.04759   0.83334   0.25001   0.00000  Uiso   1.00
N424   N     0.28574   0.83332   0.24999   0.00000  Uiso   1.00
O425   O     0.12846   0.89442   0.25000   0.00000  Uiso   1.00
O426   O     0.20488   0.77225   0.24999   0.00000  Uiso   1.00
O427   O     0.20490   0.89441   0.25000   0.00000  Uiso   1.00
O428   O     0.12843   0.77226   0.25000   0.00000  Uiso   1.00
O429   O     0.10661   0.83334   0.31612   0.00000  Uiso   1.00
O430   O     0.22672   0.83333   0.18387   0.00000  Uiso   1.00
O431   O     0.18305   0.83333   0.31612   0.00000  Uiso   1.00
O432   O     0.15028   0.83334   0.18388   0.00000  Uiso   1.00
Zn433  Zn    0.11562   0.83334   0.25000   0.00000  Uiso   1.00
Zn434  Zn    0.21771   0.83333   0.25000   0.00000  Uiso   1.00
C435   C     0.50004   0.91329   0.24997   0.00000  Uiso   1.00
C436   C     0.49700   0.97815   0.21134   0.00000  Uiso   1.00
C437   C     0.49991   0.70934   0.24998   0.00000  Uiso   1.00
C438   C     0.49999   0.95745   0.24996   0.00000  Uiso   1.00
C439   C     0.65523   0.80962   0.21850   0.00000  Uiso   1.00
C440   C     0.34479   0.85708   0.28147   0.00000  Uiso   1.00
C441   C     0.36980   0.80961   0.21852   0.00000  Uiso   1.00
C442   C     0.63021   0.85709   0.28144   0.00000  Uiso   1.00
C443   C     0.46936   0.83325   0.33805   0.00000  Uiso   1.00
C444   C     0.53061   0.83365   0.16196   0.00000  Uiso   1.00
C445   C     0.44973   0.83283   0.38889   0.00000  Uiso   1.00
C446   C     0.49998   0.75342   0.24994   0.00000  Uiso   1.00
C447   C     0.54911   0.84048   0.11179   0.00000  Uiso   1.00
C448   C     0.38868   0.81131   0.46289   0.00000  Uiso   1.00
C449   C     0.59994   0.88031   0.04463   0.00000  Uiso   1.00
C450   C     0.40358   0.81638   0.41476   0.00000  Uiso   1.00
C451   C     0.59088   0.86451   0.08909   0.00000  Uiso   1.00
C452   C     0.47993   0.84632   0.41121   0.00000  Uiso   1.00
C453   C     0.51789   0.83045   0.08937   0.00000  Uiso   1.00
C454   C     0.46552   0.84349   0.45948   0.00000  Uiso   1.00
C455   C     0.52317   0.84881   0.04710   0.00000  Uiso   1.00
C456   C     0.41977   0.82446   0.48559   0.00000  Uiso   1.00
C457   C     0.44005   0.82689   0.05404   0.00000  Uiso   1.00
C458   C     0.56589   0.87279   0.02338   0.00000  Uiso   1.00
C459   C     0.49756   0.85597   0.48155   0.00000  Uiso   1.00
C460   C     0.48695   0.84345   0.02794   0.00000  Uiso   1.00
C461   C     0.53989   0.88039   0.45874   0.00000  Uiso   1.00
C462   C     0.40691   0.81820   0.03332   0.00000  Uiso   1.00
C463   C     0.57301   0.88898   0.47955   0.00000  Uiso   1.00
C464   C     0.50251   0.97872   0.28874   0.00000  Uiso   1.00
C465   C     0.49748   0.68814   0.21115   0.00000  Uiso   1.00
C466   C     0.50223   0.68872   0.28886   0.00000  Uiso   1.00
H467   H     0.37173   0.80545   0.05499   0.00000  Uiso   1.00
H468   H     0.54755   0.89467   0.42525   0.00000  Uiso   1.00
H469   H     0.39791   0.79061   0.19332   0.00000  Uiso   1.00
H470   H     0.60212   0.87612   0.30661   0.00000  Uiso   1.00
H471   H     0.60448   0.90800   0.46050   0.00000  Uiso   1.00
H472   H     0.48823   0.80927   0.10684   0.00000  Uiso   1.00
H473   H     0.51611   0.85682   0.38968   0.00000  Uiso   1.00
H474   H     0.61499   0.87281   0.10676   0.00000  Uiso   1.00
H475   H     0.38035   0.80525   0.39726   0.00000  Uiso   1.00
H476   H     0.64712   0.79067   0.19329   0.00000  Uiso   1.00
H477   H     0.35291   0.87606   0.30665   0.00000  Uiso   1.00
H478   H     0.42729   0.82139   0.09110   0.00000  Uiso   1.00
I479   I     0.65465   0.77941   0.49697   0.00000  Uiso   1.00
I480   I     0.66386   0.91750   0.01411   0.00000  Uiso   1.00
I481   I     0.50421   0.94542   0.34788   0.00000  Uiso   1.00
I482   I     0.49703   0.72174   0.15160   0.00000  Uiso   1.00
I483   I     0.50312   0.72320   0.34828   0.00000  Uiso   1.00
I484   I     0.49310   0.94401   0.15298   0.00000  Uiso   1.00
N485   N     0.38093   0.83334   0.25001   0.00000  Uiso   1.00
N486   N     0.61907   0.83332   0.24999   0.00000  Uiso   1.00
O487   O     0.46179   0.89442   0.25000   0.00000  Uiso   1.00
O488   O     0.53821   0.77225   0.24999   0.00000  Uiso   1.00
O489   O     0.53823   0.89441   0.25000   0.00000  Uiso   1.00
O490   O     0.46177   0.77226   0.25000   0.00000  Uiso   1.00
O491   O     0.43994   0.83334   0.31612   0.00000  Uiso   1.00
O492   O     0.56006   0.83333   0.18387   0.00000  Uiso   1.00
O493   O     0.51639   0.83333   0.31612   0.00000  Uiso   1.00
O494   O     0.48361   0.83334   0.18388   0.00000  Uiso   1.00
Zn495  Zn    0.44896   0.83334   0.25000   0.00000  Uiso   1.00
Zn496  Zn    0.55104   0.83333   0.25000   0.00000  Uiso   1.00
C497   C     0.83337   0.91329   0.24997   0.00000  Uiso   1.00
C498   C     0.83034   0.97815   0.21134   0.00000  Uiso   1.00
C499   C     0.83324   0.70934   0.24998   0.00000  Uiso   1.00
C500   C     0.83332   0.95745   0.24996   0.00000  Uiso   1.00
C501   C     0.98856   0.80962   0.21850   0.00000  Uiso   1.00
C502   C     0.67812   0.85708   0.28147   0.00000  Uiso   1.00
C503   C     0.70314   0.80961   0.21852   0.00000  Uiso   1.00
C504   C     0.96355   0.85709   0.28144   0.00000  Uiso   1.00
C505   C     0.80269   0.83325   0.33805   0.00000  Uiso   1.00
C506   C     0.86394   0.83365   0.16196   0.00000  Uiso   1.00
C507   C     0.78306   0.83283   0.38889   0.00000  Uiso   1.00
C508   C     0.83331   0.75342   0.24994   0.00000  Uiso   1.00
C509   C     0.88244   0.84048   0.11179   0.00000  Uiso   1.00
C510   C     0.72201   0.81131   0.46289   0.00000  Uiso   1.00
C511   C     0.93328   0.88031   0.04463   0.00000  Uiso   1.00
C512   C     0.73692   0.81638   0.41476   0.00000  Uiso   1.00
C513   C     0.92421   0.86451   0.08909   0.00000  Uiso   1.00
C514   C     0.81327   0.84632   0.41121   0.00000  Uiso   1.00
C515   C     0.85123   0.83045   0.08937   0.00000  Uiso   1.00
C516   C     0.79885   0.84349   0.45948   0.00000  Uiso   1.00
C517   C     0.85651   0.84881   0.04710   0.00000  Uiso   1.00
C518   C     0.75310   0.82446   0.48559   0.00000  Uiso   1.00
C519   C     0.77339   0.82689   0.05404   0.00000  Uiso   1.00
C520   C     0.89922   0.87279   0.02338   0.00000  Uiso   1.00
C521   C     0.83089   0.85597   0.48155   0.00000  Uiso   1.00
C522   C     0.82029   0.84345   0.02794   0.00000  Uiso   1.00
C523   C     0.87322   0.88039   0.45874   0.00000  Uiso   1.00
C524   C     0.74024   0.81820   0.03332   0.00000  Uiso   1.00
C525   C     0.90634   0.88898   0.47955   0.00000  Uiso   1.00
C526   C     0.83585   0.97872   0.28874   0.00000  Uiso   1.00
C527   C     0.83081   0.68814   0.21115   0.00000  Uiso   1.00
C528   C     0.83556   0.68872   0.28886   0.00000  Uiso   1.00
H529   H     0.70506   0.80545   0.05499   0.00000  Uiso   1.00
H530   H     0.88088   0.89467   0.42525   0.00000  Uiso   1.00
H531   H     0.73124   0.79061   0.19332   0.00000  Uiso   1.00
H532   H     0.93545   0.87612   0.30661   0.00000  Uiso   1.00
H533   H     0.93781   0.90800   0.46050   0.00000  Uiso   1.00
H534   H     0.82156   0.80927   0.10684   0.00000  Uiso   1.00
H535   H     0.84944   0.85682   0.38968   0.00000  Uiso   1.00
H536   H     0.94832   0.87281   0.10676   0.00000  Uiso   1.00
H537   H     0.71368   0.80525   0.39726   0.00000  Uiso   1.00
H538   H     0.98045   0.79067   0.19329   0.00000  Uiso   1.00
H539   H     0.68624   0.87606   0.30665   0.00000  Uiso   1.00
H540   H     0.76062   0.82139   0.09110   0.00000  Uiso   1.00
I541   I     0.98798   0.77941   0.49697   0.00000  Uiso   1.00
I542   I     0.99719   0.91750   0.01411   0.00000  Uiso   1.00
I543   I     0.83754   0.94542   0.34788   0.00000  Uiso   1.00
I544   I     0.83036   0.72174   0.15160   0.00000  Uiso   1.00
I545   I     0.83646   0.72320   0.34828   0.00000  Uiso   1.00
I546   I     0.82644   0.94401   0.15298   0.00000  Uiso   1.00
N547   N     0.71426   0.83334   0.25001   0.00000  Uiso   1.00
N548   N     0.95241   0.83332   0.24999   0.00000  Uiso   1.00
O549   O     0.79512   0.89442   0.25000   0.00000  Uiso   1.00
O550   O     0.87154   0.77225   0.24999   0.00000  Uiso   1.00
O551   O     0.87157   0.89441   0.25000   0.00000  Uiso   1.00
O552   O     0.79510   0.77226   0.25000   0.00000  Uiso   1.00
O553   O     0.77328   0.83334   0.31612   0.00000  Uiso   1.00
O554   O     0.89339   0.83333   0.18387   0.00000  Uiso   1.00
O555   O     0.84972   0.83333   0.31612   0.00000  Uiso   1.00
O556   O     0.81695   0.83334   0.18388   0.00000  Uiso   1.00
Zn557  Zn    0.78229   0.83334   0.25000   0.00000  Uiso   1.00
Zn558  Zn    0.88438   0.83333   0.25000   0.00000  Uiso   1.00
C559   C     0.16671   0.24662   0.74997   0.00000  Uiso   1.00
C560   C     0.16367   0.31148   0.71134   0.00000  Uiso   1.00
C561   C     0.16657   0.04267   0.74998   0.00000  Uiso   1.00
C562   C     0.16666   0.29078   0.74996   0.00000  Uiso   1.00
C563   C     0.32189   0.14296   0.71850   0.00000  Uiso   1.00
C564   C     0.01146   0.19041   0.78147   0.00000  Uiso   1.00
C565   C     0.03647   0.14295   0.71852   0.00000  Uiso   1.00
C566   C     0.29688   0.19042   0.78144   0.00000  Uiso   1.00
C567   C     0.13603   0.16658   0.83805   0.00000  Uiso   1.00
C568   C     0.19727   0.16699   0.66196   0.00000  Uiso   1.00
C569   C     0.11639   0.16616   0.88889   0.00000  Uiso   1.00
C570   C     0.16664   0.08676   0.74994   0.00000  Uiso   1.00
C571   C     0.21578   0.17381   0.61179   0.00000  Uiso   1.00
C572   C     0.05535   0.14464   0.96289   0.00000  Uiso   1.00
C573   C     0.26661   0.21365   0.54463   0.00000  Uiso   1.00
C574   C     0.07025   0.14971   0.91476   0.00000  Uiso   1.00
C575   C     0.25755   0.19785   0.58909   0.00000  Uiso   1.00
C576   C     0.14660   0.17965   0.91121   0.00000  Uiso   1.00
C577   C     0.18456   0.16378   0.58937   0.00000  Uiso   1.00
C578   C     0.13219   0.17683   0.95948   0.00000  Uiso   1.00
C579   C     0.18984   0.18214   0.54710   0.00000  Uiso   1.00
C580   C     0.08644   0.15779   0.98559   0.00000  Uiso   1.00
C581   C     0.10672   0.16022   0.55404   0.00000  Uiso   1.00
C582   C     0.23256   0.20613   0.52338   0.00000  Uiso   1.00
C583   C     0.16422   0.18931   0.98155   0.00000  Uiso   1.00
C584   C     0.15362   0.17678   0.52794   0.00000  Uiso   1.00
C585   C     0.20655   0.21372   0.95874   0.00000  Uiso   1.00
C586   C     0.07358   0.15153   0.53332   0.00000  Uiso   1.00
C587   C     0.23968   0.22231   0.97955   0.00000  Uiso   1.00
C588   C     0.16918   0.31205   0.78874   0.00000  Uiso   1.00
C589   C     0.16415   0.02147   0.71115   0.00000  Uiso   1.00
C590   C     0.16889   0.02205   0.78886   0.00000  Uiso   1.00
H591   H     0.03839   0.13878   0.55499   0.00000  Uiso   1.00
H592   H     0.21422   0.22801   0.92525   0.00000  Uiso   1.00
H593   H     0.06458   0.12395   0.69332   0.00000  Uiso   1.00
H594   H     0.26879   0.20946   0.80661   0.00000  Uiso   1.00
H595   H     0.27114   0.24133   0.96050   0.00000  Uiso   1.00
H596   H     0.15489   0.14260   0.60684   0.00000  Uiso   1.00
H597   H     0.18278   0.19016   0.88968   0.00000  Uiso   1.00
H598   H     0.28165   0.20614   0.60676   0.00000  Uiso   1.00
H599   H     0.04701   0.13858   0.89726   0.00000  Uiso   1.00
H600   H     0.31379   0.12400   0.69329   0.00000  Uiso   1.00
H601   H     0.01958   0.20939   0.80665   0.00000  Uiso   1.00
H602   H     0.09395   0.15472   0.59110   0.00000  Uiso   1.00
I603   I     0.32132   0.11275   0.99697   0.00000  Uiso   1.00
I604   I     0.33052   0.25084   0.51411   0.00000  Uiso   1.00
I605   I     0.17087   0.27875   0.84788   0.00000  Uiso   1.00
I606   I     0.16369   0.05507   0.65160   0.00000  Uiso   1.00
I607   I     0.16979   0.05654   0.84828   0.00000  Uiso   1.00
I608   I     0.15977   0.27735   0.65298   0.00000  Uiso   1.00
N609   N     0.04759   0.16668   0.75001   0.00000  Uiso   1.00
N610   N     0.28574   0.16666   0.74999   0.00000  Uiso   1.00
O611   O     0.12846   0.22775   0.75000   0.00000  Uiso   1.00
O612   O     0.20488   0.10558   0.74999   0.00000  Uiso   1.00
O613   O     0.20490   0.22774   0.75000   0.00000  Uiso   1.00
O614   O     0.12843   0.10559   0.75000   0.00000  Uiso   1.00
O615   O     0.10661   0.16667   0.81612   0.00000  Uiso   1.00
O616   O     0.22672   0.16666   0.68387   0.00000  Uiso   1.00
O617   O     0.18305   0.16666   0.81612   0.00000  Uiso   1.00
O618   O     0.15028   0.16667   0.68388   0.00000  Uiso   1.00
Zn619  Zn    0.11562   0.16667   0.75000   0.00000  Uiso   1.00
Zn620  Zn    0.21771   0.16666   0.75000   0.00000  Uiso   1.00
C621   C     0.50004   0.24662   0.74997   0.00000  Uiso   1.00
C622   C     0.49700   0.31148   0.71134   0.00000  Uiso   1.00
C623   C     0.49991   0.04267   0.74998   0.00000  Uiso   1.00
C624   C     0.49999   0.29078   0.74996   0.00000  Uiso   1.00
C625   C     0.65523   0.14296   0.71850   0.00000  Uiso   1.00
C626   C     0.34479   0.19041   0.78147   0.00000  Uiso   1.00
C627   C     0.36980   0.14295   0.71852   0.00000  Uiso   1.00
C628   C     0.63021   0.19042   0.78144   0.00000  Uiso   1.00
C629   C     0.46936   0.16658   0.83805   0.00000  Uiso   1.00
C630   C     0.53061   0.16699   0.66196   0.00000  Uiso   1.00
C631   C     0.44973   0.16616   0.88889   0.00000  Uiso   1.00
C632   C     0.49998   0.08676   0.74994   0.00000  Uiso   1.00
C633   C     0.54911   0.17381   0.61179   0.00000  Uiso   1.00
C634   C     0.38868   0.14464   0.96289   0.00000  Uiso   1.00
C635   C     0.59994   0.21365   0.54463   0.00000  Uiso   1.00
C636   C     0.40358   0.14971   0.91476   0.00000  Uiso   1.00
C637   C     0.59088   0.19785   0.58909   0.00000  Uiso   1.00
C638   C     0.47993   0.17965   0.91121   0.00000  Uiso   1.00
C639   C     0.51789   0.16378   0.58937   0.00000  Uiso   1.00
C640   C     0.46552   0.17683   0.95948   0.00000  Uiso   1.00
C641   C     0.52317   0.18214   0.54710   0.00000  Uiso   1.00
C642   C     0.41977   0.15779   0.98559   0.00000  Uiso   1.00
C643   C     0.44005   0.16022   0.55404   0.00000  Uiso   1.00
C644   C     0.56589   0.20613   0.52338   0.00000  Uiso   1.00
C645   C     0.49756   0.18931   0.98155   0.00000  Uiso   1.00
C646   C     0.48695   0.17678   0.52794   0.00000  Uiso   1.00
C647   C     0.53989   0.21372   0.95874   0.00000  Uiso   1.00
C648   C     0.40691   0.15153   0.53332   0.00000  Uiso   1.00
C649   C     0.57301   0.22231   0.97955   0.00000  Uiso   1.00
C650   C     0.50251   0.31205   0.78874   0.00000  Uiso   1.00
C651   C     0.49748   0.02147   0.71115   0.00000  Uiso   1.00
C652   C     0.50223   0.02205   0.78886   0.00000  Uiso   1.00
H653   H     0.37173   0.13878   0.55499   0.00000  Uiso   1.00
H654   H     0.54755   0.22801   0.92525   0.00000  Uiso   1.00
H655   H     0.39791   0.12395   0.69332   0.00000  Uiso   1.00
H656   H     0.60212   0.20946   0.80661   0.00000  Uiso   1.00
H657   H     0.60448   0.24133   0.96050   0.00000  Uiso   1.00
H658   H     0.48823   0.14260   0.60684   0.00000  Uiso   1.00
H659   H     0.51611   0.19016   0.88968   0.00000  Uiso   1.00
H660   H     0.61499   0.20614   0.60676   0.00000  Uiso   1.00
H661   H     0.38035   0.13858   0.89726   0.00000  Uiso   1.00
H662   H     0.64712   0.12400   0.69329   0.00000  Uiso   1.00
H663   H     0.35291   0.20939   0.80665   0.00000  Uiso   1.00
H664   H     0.42729   0.15472   0.59110   0.00000  Uiso   1.00
I665   I     0.65465   0.11275   0.99697   0.00000  Uiso   1.00
I666   I     0.66386   0.25084   0.51411   0.00000  Uiso   1.00
I667   I     0.50421   0.27875   0.84788   0.00000  Uiso   1.00
I668   I     0.49703   0.05507   0.65160   0.00000  Uiso   1.00
I669   I     0.50312   0.05654   0.84828   0.00000  Uiso   1.00
I670   I     0.49310   0.27735   0.65298   0.00000  Uiso   1.00
N671   N     0.38093   0.16668   0.75001   0.00000  Uiso   1.00
N672   N     0.61907   0.16666   0.74999   0.00000  Uiso   1.00
O673   O     0.46179   0.22775   0.75000   0.00000  Uiso   1.00
O674   O     0.53821   0.10558   0.74999   0.00000  Uiso   1.00
O675   O     0.53823   0.22774   0.75000   0.00000  Uiso   1.00
O676   O     0.46177   0.10559   0.75000   0.00000  Uiso   1.00
O677   O     0.43994   0.16667   0.81612   0.00000  Uiso   1.00
O678   O     0.56006   0.16666   0.68387   0.00000  Uiso   1.00
O679   O     0.51639   0.16666   0.81612   0.00000  Uiso   1.00
O680   O     0.48361   0.16667   0.68388   0.00000  Uiso   1.00
Zn681  Zn    0.44896   0.16667   0.75000   0.00000  Uiso   1.00
Zn682  Zn    0.55104   0.16666   0.75000   0.00000  Uiso   1.00
C683   C     0.83337   0.24662   0.74997   0.00000  Uiso   1.00
C684   C     0.83034   0.31148   0.71134   0.00000  Uiso   1.00
C685   C     0.83324   0.04267   0.74998   0.00000  Uiso   1.00
C686   C     0.83332   0.29078   0.74996   0.00000  Uiso   1.00
C687   C     0.98856   0.14296   0.71850   0.00000  Uiso   1.00
C688   C     0.67812   0.19041   0.78147   0.00000  Uiso   1.00
C689   C     0.70314   0.14295   0.71852   0.00000  Uiso   1.00
C690   C     0.96355   0.19042   0.78144   0.00000  Uiso   1.00
C691   C     0.80269   0.16658   0.83805   0.00000  Uiso   1.00
C692   C     0.86394   0.16699   0.66196   0.00000  Uiso   1.00
C693   C     0.78306   0.16616   0.88889   0.00000  Uiso   1.00
C694   C     0.83331   0.08676   0.74994   0.00000  Uiso   1.00
C695   C     0.88244   0.17381   0.61179   0.00000  Uiso   1.00
C696   C     0.72201   0.14464   0.96289   0.00000  Uiso   1.00
C697   C     0.93328   0.21365   0.54463   0.00000  Uiso   1.00
C698   C     0.73692   0.14971   0.91476   0.00000  Uiso   1.00
C699   C     0.92421   0.19785   0.58909   0.00000  Uiso   1.00
C700   C     0.81327   0.17965   0.91121   0.00000  Uiso   1.00
C701   C     0.85123   0.16378   0.58937   0.00000  Uiso   1.00
C702   C     0.79885   0.17683   0.95948   0.00000  Uiso   1.00
C703   C     0.85651   0.18214   0.54710   0.00000  Uiso   1.00
C704   C     0.75310   0.15779   0.98559   0.00000  Uiso   1.00
C705   C     0.77339   0.16022   0.55404   0.00000  Uiso   1.00
C706   C     0.89922   0.20613   0.52338   0.00000  Uiso   1.00
C707   C     0.83089   0.18931   0.98155   0.00000  Uiso   1.00
C708   C     0.82029   0.17678   0.52794   0.00000  Uiso   1.00
C709   C     0.87322   0.21372   0.95874   0.00000  Uiso   1.00
C710   C     0.74024   0.15153   0.53332   0.00000  Uiso   1.00
C711   C     0.90634   0.22231   0.97955   0.00000  Uiso   1.00
C712   C     0.83585   0.31205   0.78874   0.00000  Uiso   1.00
C713   C     0.83081   0.02147   0.71115   0.00000  Uiso   1.00
C714   C     0.83556   0.02205   0.78886   0.00000  Uiso   1.00
H715   H     0.70506   0.13878   0.55499   0.00000  Uiso   1.00
H716   H     0.88088   0.22801   0.92525   0.00000  Uiso   1.00
H717   H     0.73124   0.12395   0.69332   0.00000  Uiso   1.00
H718   H     0.93545   0.20946   0.80661   0.00000  Uiso   1.00
H719   H     0.93781   0.24133   0.96050   0.00000  Uiso   1.00
H720   H     0.82156   0.14260   0.60684   0.00000  Uiso   1.00
H721   H     0.84944   0.19016   0.88968   0.00000  Uiso   1.00
H722   H     0.94832   0.20614   0.60676   0.00000  Uiso   1.00
H723   H     0.71368   0.13858   0.89726   0.00000  Uiso   1.00
H724   H     0.98045   0.12400   0.69329   0.00000  Uiso   1.00
H725   H     0.68624   0.20939   0.80665   0.00000  Uiso   1.00
H726   H     0.76062   0.15472   0.59110   0.00000  Uiso   1.00
I727   I     0.98798   0.11275   0.99697   0.00000  Uiso   1.00
I728   I     0.99719   0.25084   0.51411   0.00000  Uiso   1.00
I729   I     0.83754   0.27875   0.84788   0.00000  Uiso   1.00
I730   I     0.83036   0.05507   0.65160   0.00000  Uiso   1.00
I731   I     0.83646   0.05654   0.84828   0.00000  Uiso   1.00
I732   I     0.82644   0.27735   0.65298   0.00000  Uiso   1.00
N733   N     0.71426   0.16668   0.75001   0.00000  Uiso   1.00
N734   N     0.95241   0.16666   0.74999   0.00000  Uiso   1.00
O735   O     0.79512   0.22775   0.75000   0.00000  Uiso   1.00
O736   O     0.87154   0.10558   0.74999   0.00000  Uiso   1.00
O737   O     0.87157   0.22774   0.75000   0.00000  Uiso   1.00
O738   O     0.79510   0.10559   0.75000   0.00000  Uiso   1.00
O739   O     0.77328   0.16667   0.81612   0.00000  Uiso   1.00
O740   O     0.89339   0.16666   0.68387   0.00000  Uiso   1.00
O741   O     0.84972   0.16666   0.81612   0.00000  Uiso   1.00
O742   O     0.81695   0.16667   0.68388   0.00000  Uiso   1.00
Zn743  Zn    0.78229   0.16667   0.75000   0.00000  Uiso   1.00
Zn744  Zn    0.88438   0.16666   0.75000   0.00000  Uiso   1.00
C745   C     0.16671   0.57995   0.74997   0.00000  Uiso   1.00
C746   C     0.16367   0.64481   0.71134   0.00000  Uiso   1.00
C747   C     0.16657   0.37601   0.74998   0.00000  Uiso   1.00
C748   C     0.16666   0.62412   0.74996   0.00000  Uiso   1.00
C749   C     0.32189   0.47629   0.71850   0.00000  Uiso   1.00
C750   C     0.01146   0.52374   0.78147   0.00000  Uiso   1.00
C751   C     0.03647   0.47628   0.71852   0.00000  Uiso   1.00
C752   C     0.29688   0.52376   0.78144   0.00000  Uiso   1.00
C753   C     0.13603   0.49991   0.83805   0.00000  Uiso   1.00
C754   C     0.19727   0.50032   0.66196   0.00000  Uiso   1.00
C755   C     0.11639   0.49949   0.88889   0.00000  Uiso   1.00
C756   C     0.16664   0.42009   0.74994   0.00000  Uiso   1.00
C757   C     0.21578   0.50714   0.61179   0.00000  Uiso   1.00
C758   C     0.05535   0.47797   0.96289   0.00000  Uiso   1.00
C759   C     0.26661   0.54698   0.54463   0.00000  Uiso   1.00
C760   C     0.07025   0.48304   0.91476   0.00000  Uiso   1.00
C761   C     0.25755   0.53118   0.58909   0.00000  Uiso   1.00
C762   C     0.14660   0.51299   0.91121   0.00000  Uiso   1.00
C763   C     0.18456   0.49712   0.58937   0.00000  Uiso   1.00
C764   C     0.13219   0.51016   0.95948   0.00000  Uiso   1.00
C765   C     0.18984   0.51547   0.54710   0.00000  Uiso   1.00
C766   C     0.08644   0.49113   0.98559   0.00000  Uiso   1.00
C767   C     0.10672   0.49355   0.55404   0.00000  Uiso   1.00
C768   C     0.23256   0.53946   0.52338   0.00000  Uiso   1.00
C769   C     0.16422   0.52264   0.98155   0.00000  Uiso   1.00
C770   C     0.15362   0.51012   0.52794   0.00000  Uiso   1.00
C771   C     0.20655   0.54706   0.95874   0.00000  Uiso   1.00
C772   C     0.07358   0.48486   0.53332   0.00000  Uiso   1.00
C773   C     0.23968   0.55565   0.97955   0.00000  Uiso   1.00
C774   C     0.16918   0.64539   0.78874   0.00000  Uiso   1.00
C775   C     0.16415   0.35481   0.71115   0.00000  Uiso   1.00
C776   C     0.16889   0.35538   0.78886   0.00000  Uiso   1.00
H777   H     0.03839   0.47211   0.55499   0.00000  Uiso   1.00
H778   H     0.21422   0.56134   0.92525   0.00000  Uiso   1.00
H779   H     0.06458   0.45728   0.69332   0.00000  Uiso   1.00
H780   H     0.26879   0.54279   0.80661   0.00000  Uiso   1.00
H781   H     0.27114   0.57466   0.96050   0.00000  Uiso   1.00
H782   H     0.15489   0.47594   0.60684   0.00000  Uiso   1.00
H783   H     0.18278   0.52349   0.88968   0.00000  Uiso   1.00
H784   H     0.28165   0.53947   0.60676   0.00000  Uiso   1.00
H785   H     0.04701   0.47191   0.89726   0.00000  Uiso   1.00
H786   H     0.31379   0.45733   0.69329   0.00000  Uiso   1.00
H787   H     0.01958   0.54273   0.80665   0.00000  Uiso   1.00
H788   H     0.09395   0.48806   0.59110   0.00000  Uiso   1.00
I789   I     0.32132   0.44608   0.99697   0.00000  Uiso   1.00
I790   I     0.33052   0.58417   0.51411   0.00000  Uiso   1.00
I791   I     0.17087   0.61208   0.84788   0.00000  Uiso   1.00
I792   I     0.16369   0.38840   0.65160   0.00000  Uiso   1.00
I793   I     0.16979   0.38987   0.84828   0.00000  Uiso   1.00
I794   I     0.15977   0.61068   0.65298   0.00000  Uiso   1.00
N795   N     0.04759   0.50001   0.75001   0.00000  Uiso   1.00
N796   N     0.28574   0.49999   0.74999   0.00000  Uiso   1.00
O797   O     0.12846   0.56108   0.75000   0.00000  Uiso   1.00
O798   O     0.20488   0.43892   0.74999   0.00000  Uiso   1.00
O799   O     0.20490   0.56107   0.75000   0.00000  Uiso   1.00
O800   O     0.12843   0.43893   0.75000   0.00000  Uiso   1.00
O801   O     0.10661   0.50001   0.81612   0.00000  Uiso   1.00
O802   O     0.22672   0.49999   0.68387   0.00000  Uiso   1.00
O803   O     0.18305   0.50000   0.81612   0.00000  Uiso   1.00
O804   O     0.15028   0.50000   0.68388   0.00000  Uiso   1.00
Zn805  Zn    0.11562   0.50001   0.75000   0.00000  Uiso   1.00
Zn806  Zn    0.21771   0.49999   0.75000   0.00000  Uiso   1.00
C807   C     0.50004   0.57995   0.74997   0.00000  Uiso   1.00
C808   C     0.49700   0.64481   0.71134   0.00000  Uiso   1.00
C809   C     0.49991   0.37601   0.74998   0.00000  Uiso   1.00
C810   C     0.49999   0.62412   0.74996   0.00000  Uiso   1.00
C811   C     0.65523   0.47629   0.71850   0.00000  Uiso   1.00
C812   C     0.34479   0.52374   0.78147   0.00000  Uiso   1.00
C813   C     0.36980   0.47628   0.71852   0.00000  Uiso   1.00
C814   C     0.63021   0.52376   0.78144   0.00000  Uiso   1.00
C815   C     0.46936   0.49991   0.83805   0.00000  Uiso   1.00
C816   C     0.53061   0.50032   0.66196   0.00000  Uiso   1.00
C817   C     0.44973   0.49949   0.88889   0.00000  Uiso   1.00
C818   C     0.49998   0.42009   0.74994   0.00000  Uiso   1.00
C819   C     0.54911   0.50714   0.61179   0.00000  Uiso   1.00
C820   C     0.38868   0.47797   0.96289   0.00000  Uiso   1.00
C821   C     0.59994   0.54698   0.54463   0.00000  Uiso   1.00
C822   C     0.40358   0.48304   0.91476   0.00000  Uiso   1.00
C823   C     0.59088   0.53118   0.58909   0.00000  Uiso   1.00
C824   C     0.47993   0.51299   0.91121   0.00000  Uiso   1.00
C825   C     0.51789   0.49712   0.58937   0.00000  Uiso   1.00
C826   C     0.46552   0.51016   0.95948   0.00000  Uiso   1.00
C827   C     0.52317   0.51547   0.54710   0.00000  Uiso   1.00
C828   C     0.41977   0.49113   0.98559   0.00000  Uiso   1.00
C829   C     0.44005   0.49355   0.55404   0.00000  Uiso   1.00
C830   C     0.56589   0.53946   0.52338   0.00000  Uiso   1.00
C831   C     0.49756   0.52264   0.98155   0.00000  Uiso   1.00
C832   C     0.48695   0.51012   0.52794   0.00000  Uiso   1.00
C833   C     0.53989   0.54706   0.95874   0.00000  Uiso   1.00
C834   C     0.40691   0.48486   0.53332   0.00000  Uiso   1.00
C835   C     0.57301   0.55565   0.97955   0.00000  Uiso   1.00
C836   C     0.50251   0.64539   0.78874   0.00000  Uiso   1.00
C837   C     0.49748   0.35481   0.71115   0.00000  Uiso   1.00
C838   C     0.50223   0.35538   0.78886   0.00000  Uiso   1.00
H839   H     0.37173   0.47211   0.55499   0.00000  Uiso   1.00
H840   H     0.54755   0.56134   0.92525   0.00000  Uiso   1.00
H841   H     0.39791   0.45728   0.69332   0.00000  Uiso   1.00
H842   H     0.60212   0.54279   0.80661   0.00000  Uiso   1.00
H843   H     0.60448   0.57466   0.96050   0.00000  Uiso   1.00
H844   H     0.48823   0.47594   0.60684   0.00000  Uiso   1.00
H845   H     0.51611   0.52349   0.88968   0.00000  Uiso   1.00
H846   H     0.61499   0.53947   0.60676   0.00000  Uiso   1.00
H847   H     0.38035   0.47191   0.89726   0.00000  Uiso   1.00
H848   H     0.64712   0.45733   0.69329   0.00000  Uiso   1.00
H849   H     0.35291   0.54273   0.80665   0.00000  Uiso   1.00
H850   H     0.42729   0.48806   0.59110   0.00000  Uiso   1.00
I851   I     0.65465   0.44608   0.99697   0.00000  Uiso   1.00
I852   I     0.66386   0.58417   0.51411   0.00000  Uiso   1.00
I853   I     0.50421   0.61208   0.84788   0.00000  Uiso   1.00
I854   I     0.49703   0.38840   0.65160   0.00000  Uiso   1.00
I855   I     0.50312   0.38987   0.84828   0.00000  Uiso   1.00
I856   I     0.49310   0.61068   0.65298   0.00000  Uiso   1.00
N857   N     0.38093   0.50001   0.75001   0.00000  Uiso   1.00
N858   N     0.61907   0.49999   0.74999   0.00000  Uiso   1.00
O859   O     0.46179   0.56108   0.75000   0.00000  Uiso   1.00
O860   O     0.53821   0.43892   0.74999   0.00000  Uiso   1.00
O861   O     0.53823   0.56107   0.75000   0.00000  Uiso   1.00
O862   O     0.46177   0.43893   0.75000   0.00000  Uiso   1.00
O863   O     0.43994   0.50001   0.81612   0.00000  Uiso   1.00
O864   O     0.56006   0.49999   0.68387   0.00000  Uiso   1.00
O865   O     0.51639   0.50000   0.81612   0.00000  Uiso   1.00
O866   O     0.48361   0.50000   0.68388   0.00000  Uiso   1.00
Zn867  Zn    0.44896   0.50001   0.75000   0.00000  Uiso   1.00
Zn868  Zn    0.55104   0.49999   0.75000   0.00000  Uiso   1.00
C869   C     0.83337   0.57995   0.74997   0.00000  Uiso   1.00
C870   C     0.83034   0.64481   0.71134   0.00000  Uiso   1.00
C871   C     0.83324   0.37601   0.74998   0.00000  Uiso   1.00
C872   C     0.83332   0.62412   0.74996   0.00000  Uiso   1.00
C873   C     0.98856   0.47629   0.71850   0.00000  Uiso   1.00
C874   C     0.67812   0.52374   0.78147   0.00000  Uiso   1.00
C875   C     0.70314   0.47628   0.71852   0.00000  Uiso   1.00
C876   C     0.96355   0.52376   0.78144   0.00000  Uiso   1.00
C877   C     0.80269   0.49991   0.83805   0.00000  Uiso   1.00
C878   C     0.86394   0.50032   0.66196   0.00000  Uiso   1.00
C879   C     0.78306   0.49949   0.88889   0.00000  Uiso   1.00
C880   C     0.83331   0.42009   0.74994   0.00000  Uiso   1.00
C881   C     0.88244   0.50714   0.61179   0.00000  Uiso   1.00
C882   C     0.72201   0.47797   0.96289   0.00000  Uiso   1.00
C883   C     0.93328   0.54698   0.54463   0.00000  Uiso   1.00
C884   C     0.73692   0.48304   0.91476   0.00000  Uiso   1.00
C885   C     0.92421   0.53118   0.58909   0.00000  Uiso   1.00
C886   C     0.81327   0.51299   0.91121   0.00000  Uiso   1.00
C887   C     0.85123   0.49712   0.58937   0.00000  Uiso   1.00
C888   C     0.79885   0.51016   0.95948   0.00000  Uiso   1.00
C889   C     0.85651   0.51547   0.54710   0.00000  Uiso   1.00
C890   C     0.75310   0.49113   0.98559   0.00000  Uiso   1.00
C891   C     0.77339   0.49355   0.55404   0.00000  Uiso   1.00
C892   C     0.89922   0.53946   0.52338   0.00000  Uiso   1.00
C893   C     0.83089   0.52264   0.98155   0.00000  Uiso   1.00
C894   C     0.82029   0.51012   0.52794   0.00000  Uiso   1.00
C895   C     0.87322   0.54706   0.95874   0.00000  Uiso   1.00
C896   C     0.74024   0.48486   0.53332   0.00000  Uiso   1.00
C897   C     0.90634   0.55565   0.97955   0.00000  Uiso   1.00
C898   C     0.83585   0.64539   0.78874   0.00000  Uiso   1.00
C899   C     0.83081   0.35481   0.71115   0.00000  Uiso   1.00
C900   C     0.83556   0.35538   0.78886   0.00000  Uiso   1.00
H901   H     0.70506   0.47211   0.55499   0.00000  Uiso   1.00
H902   H     0.88088   0.56134   0.92525   0.00000  Uiso   1.00
H903   H     0.73124   0.45728   0.69332   0.00000  Uiso   1.00
H904   H     0.93545   0.54279   0.80661   0.00000  Uiso   1.00
H905   H     0.93781   0.57466   0.96050   0.00000  Uiso   1.00
H906   H     0.82156   0.47594   0.60684   0.00000  Uiso   1.00
H907   H     0.84944   0.52349   0.88968   0.00000  Uiso   1.00
H908   H     0.94832   0.53947   0.60676   0.00000  Uiso   1.00
H909   H     0.71368   0.47191   0.89726   0.00000  Uiso   1.00
H910   H     0.98045   0.45733   0.69329   0.00000  Uiso   1.00
H911   H     0.68624   0.54273   0.80665   0.00000  Uiso   1.00
H912   H     0.76062   0.48806   0.59110   0.00000  Uiso   1.00
I913   I     0.98798   0.44608   0.99697   0.00000  Uiso   1.00
I914   I     0.99719   0.58417   0.51411   0.00000  Uiso   1.00
I915   I     0.83754   0.61208   0.84788   0.00000  Uiso   1.00
I916   I     0.83036   0.38840   0.65160   0.00000  Uiso   1.00
I917   I     0.83646   0.38987   0.84828   0.00000  Uiso   1.00
I918   I     0.82644   0.61068   0.65298   0.00000  Uiso   1.00
N919   N     0.71426   0.50001   0.75001   0.00000  Uiso   1.00
N920   N     0.95241   0.49999   0.74999   0.00000  Uiso   1.00
O921   O     0.79512   0.56108   0.75000   0.00000  Uiso   1.00
O922   O     0.87154   0.43892   0.74999   0.00000  Uiso   1.00
O923   O     0.87157   0.56107   0.75000   0.00000  Uiso   1.00
O924   O     0.79510   0.43893   0.75000   0.00000  Uiso   1.00
O925   O     0.77328   0.50001   0.81612   0.00000  Uiso   1.00
O926   O     0.89339   0.49999   0.68387   0.00000  Uiso   1.00
O927   O     0.84972   0.50000   0.81612   0.00000  Uiso   1.00
O928   O     0.81695   0.50000   0.68388   0.00000  Uiso   1.00
Zn929  Zn    0.78229   0.50001   0.75000   0.00000  Uiso   1.00
Zn930  Zn    0.88438   0.49999   0.75000   0.00000  Uiso   1.00
C931   C     0.16671   0.91329   0.74997   0.00000  Uiso   1.00
C932   C     0.16367   0.97815   0.71134   0.00000  Uiso   1.00
C933   C     0.16657   0.70934   0.74998   0.00000  Uiso   1.00
C934   C     0.16666   0.95745   0.74996   0.00000  Uiso   1.00
C935   C     0.32189   0.80962   0.71850   0.00000  Uiso   1.00
C936   C     0.01146   0.85708   0.78147   0.00000  Uiso   1.00
C937   C     0.03647   0.80961   0.71852   0.00000  Uiso   1.00
C938   C     0.29688   0.85709   0.78144   0.00000  Uiso   1.00
C939   C     0.13603   0.83325   0.83805   0.00000  Uiso   1.00
C940   C     0.19727   0.83365   0.66196   0.00000  Uiso   1.00
C941   C     0.11639   0.83283   0.88889   0.00000  Uiso   1.00
C942   C     0.16664   0.75342   0.74994   0.00000  Uiso   1.00
C943   C     0.21578   0.84048   0.61179   0.00000  Uiso   1.00
C944   C     0.05535   0.81131   0.96289   0.00000  Uiso   1.00
C945   C     0.26661   0.88031   0.54463   0.00000  Uiso   1.00
C946   C     0.07025   0.81638   0.91476   0.00000  Uiso   1.00
C947   C     0.25755   0.86451   0.58909   0.00000  Uiso   1.00
C948   C     0.14660   0.84632   0.91121   0.00000  Uiso   1.00
C949   C     0.18456   0.83045   0.58937   0.00000  Uiso   1.00
C950   C     0.13219   0.84349   0.95948   0.00000  Uiso   1.00
C951   C     0.18984   0.84881   0.54710   0.00000  Uiso   1.00
C952   C     0.08644   0.82446   0.98559   0.00000  Uiso   1.00
C953   C     0.10672   0.82689   0.55404   0.00000  Uiso   1.00
C954   C     0.23256   0.87279   0.52338   0.00000  Uiso   1.00
C955   C     0.16422   0.85597   0.98155   0.00000  Uiso   1.00
C956   C     0.15362   0.84345   0.52794   0.00000  Uiso   1.00
C957   C     0.20655   0.88039   0.95874   0.00000  Uiso   1.00
C958   C     0.07358   0.81820   0.53332   0.00000  Uiso   1.00
C959   C     0.23968   0.88898   0.97955   0.00000  Uiso   1.00
C960   C     0.16918   0.97872   0.78874   0.00000  Uiso   1.00
C961   C     0.16415   0.68814   0.71115   0.00000  Uiso   1.00
C962   C     0.16889   0.68872   0.78886   0.00000  Uiso   1.00
H963   H     0.03839   0.80545   0.55499   0.00000  Uiso   1.00
H964   H     0.21422   0.89467   0.92525   0.00000  Uiso   1.00
H965   H     0.06458   0.79061   0.69332   0.00000  Uiso   1.00
H966   H     0.26879   0.87612   0.80661   0.00000  Uiso   1.00
H967   H     0.27114   0.90800   0.96050   0.00000  Uiso   1.00
H968   H     0.15489   0.80927   0.60684   0.00000  Uiso   1.00
H969   H     0.18278   0.85682   0.88968   0.00000  Uiso   1.00
H970   H     0.28165   0.87281   0.60676   0.00000  Uiso   1.00
H971   H     0.04701   0.80525   0.89726   0.00000  Uiso   1.00
H972   H     0.31379   0.79067   0.69329   0.00000  Uiso   1.00
H973   H     0.01958   0.87606   0.80665   0.00000  Uiso   1.00
H974   H     0.09395   0.82139   0.59110   0.00000  Uiso   1.00
I975   I     0.32132   0.77941   0.99697   0.00000  Uiso   1.00
I976   I     0.33052   0.91750   0.51411   0.00000  Uiso   1.00
I977   I     0.17087   0.94542   0.84788   0.00000  Uiso   1.00
I978   I     0.16369   0.72174   0.65160   0.00000  Uiso   1.00
I979   I     0.16979   0.72320   0.84828   0.00000  Uiso   1.00
I980   I     0.15977   0.94401   0.65298   0.00000  Uiso   1.00
N981   N     0.04759   0.83334   0.75001   0.00000  Uiso   1.00
N982   N     0.28574   0.83332   0.74999   0.00000  Uiso   1.00
O983   O     0.12846   0.89442   0.75000   0.00000  Uiso   1.00
O984   O     0.20488   0.77225   0.74999   0.00000  Uiso   1.00
O985   O     0.20490   0.89441   0.75000   0.00000  Uiso   1.00
O986   O     0.12843   0.77226   0.75000   0.00000  Uiso   1.00
O987   O     0.10661   0.83334   0.81612   0.00000  Uiso   1.00
O988   O     0.22672   0.83333   0.68387   0.00000  Uiso   1.00
O989   O     0.18305   0.83333   0.81612   0.00000  Uiso   1.00
O990   O     0.15028   0.83334   0.68388   0.00000  Uiso   1.00
Zn991  Zn    0.11562   0.83334   0.75000   0.00000  Uiso   1.00
Zn992  Zn    0.21771   0.83333   0.75000   0.00000  Uiso   1.00
C993   C     0.50004   0.91329   0.74997   0.00000  Uiso   1.00
C994   C     0.49700   0.97815   0.71134   0.00000  Uiso   1.00
C995   C     0.49991   0.70934   0.74998   0.00000  Uiso   1.00
C996   C     0.49999   0.95745   0.74996   0.00000  Uiso   1.00
C997   C     0.65523   0.80962   0.71850   0.00000  Uiso   1.00
C998   C     0.34479   0.85708   0.78147   0.00000  Uiso   1.00
C999   C     0.36980   0.80961   0.71852   0.00000  Uiso   1.00
C1000  C     0.63021   0.85709   0.78144   0.00000  Uiso   1.00
C1001  C     0.46936   0.83325   0.83805   0.00000  Uiso   1.00
C1002  C     0.53061   0.83365   0.66196   0.00000  Uiso   1.00
C1003  C     0.44973   0.83283   0.88889   0.00000  Uiso   1.00
C1004  C     0.49998   0.75342   0.74994   0.00000  Uiso   1.00
C1005  C     0.54911   0.84048   0.61179   0.00000  Uiso   1.00
C1006  C     0.38868   0.81131   0.96289   0.00000  Uiso   1.00
C1007  C     0.59994   0.88031   0.54463   0.00000  Uiso   1.00
C1008  C     0.40358   0.81638   0.91476   0.00000  Uiso   1.00
C1009  C     0.59088   0.86451   0.58909   0.00000  Uiso   1.00
C1010  C     0.47993   0.84632   0.91121   0.00000  Uiso   1.00
C1011  C     0.51789   0.83045   0.58937   0.00000  Uiso   1.00
C1012  C     0.46552   0.84349   0.95948   0.00000  Uiso   1.00
C1013  C     0.52317   0.84881   0.54710   0.00000  Uiso   1.00
C1014  C     0.41977   0.82446   0.98559   0.00000  Uiso   1.00
C1015  C     0.44005   0.82689   0.55404   0.00000  Uiso   1.00
C1016  C     0.56589   0.87279   0.52338   0.00000  Uiso   1.00
C1017  C     0.49756   0.85597   0.98155   0.00000  Uiso   1.00
C1018  C     0.48695   0.84345   0.52794   0.00000  Uiso   1.00
C1019  C     0.53989   0.88039   0.95874   0.00000  Uiso   1.00
C1020  C     0.40691   0.81820   0.53332   0.00000  Uiso   1.00
C1021  C     0.57301   0.88898   0.97955   0.00000  Uiso   1.00
C1022  C     0.50251   0.97872   0.78874   0.00000  Uiso   1.00
C1023  C     0.49748   0.68814   0.71115   0.00000  Uiso   1.00
C1024  C     0.50223   0.68872   0.78886   0.00000  Uiso   1.00
H1025  H     0.37173   0.80545   0.55499   0.00000  Uiso   1.00
H1026  H     0.54755   0.89467   0.92525   0.00000  Uiso   1.00
H1027  H     0.39791   0.79061   0.69332   0.00000  Uiso   1.00
H1028  H     0.60212   0.87612   0.80661   0.00000  Uiso   1.00
H1029  H     0.60448   0.90800   0.96050   0.00000  Uiso   1.00
H1030  H     0.48823   0.80927   0.60684   0.00000  Uiso   1.00
H1031  H     0.51611   0.85682   0.88968   0.00000  Uiso   1.00
H1032  H     0.61499   0.87281   0.60676   0.00000  Uiso   1.00
H1033  H     0.38035   0.80525   0.89726   0.00000  Uiso   1.00
H1034  H     0.64712   0.79067   0.69329   0.00000  Uiso   1.00
H1035  H     0.35291   0.87606   0.80665   0.00000  Uiso   1.00
H1036  H     0.42729   0.82139   0.59110   0.00000  Uiso   1.00
I1037  I     0.65465   0.77941   0.99697   0.00000  Uiso   1.00
I1038  I     0.66386   0.91750   0.51411   0.00000  Uiso   1.00
I1039  I     0.50421   0.94542   0.84788   0.00000  Uiso   1.00
I1040  I     0.49703   0.72174   0.65160   0.00000  Uiso   1.00
I1041  I     0.50312   0.72320   0.84828   0.00000  Uiso   1.00
I1042  I     0.49310   0.94401   0.65298   0.00000  Uiso   1.00
N1043  N     0.38093   0.83334   0.75001   0.00000  Uiso   1.00
N1044  N     0.61907   0.83332   0.74999   0.00000  Uiso   1.00
O1045  O     0.46179   0.89442   0.75000   0.00000  Uiso   1.00
O1046  O     0.53821   0.77225   0.74999   0.00000  Uiso   1.00
O1047  O     0.53823   0.89441   0.75000   0.00000  Uiso   1.00
O1048  O     0.46177   0.77226   0.75000   0.00000  Uiso   1.00
O1049  O     0.43994   0.83334   0.81612   0.00000  Uiso   1.00
O1050  O     0.56006   0.83333   0.68387   0.00000  Uiso   1.00
O1051  O     0.51639   0.83333   0.81612   0.00000  Uiso   1.00
O1052  O     0.48361   0.83334   0.68388   0.00000  Uiso   1.00
Zn1053 Zn    0.44896   0.83334   0.75000   0.00000  Uiso   1.00
Zn1054 Zn    0.55104   0.83333   0.75000   0.00000  Uiso   1.00
C1055  C     0.83337   0.91329   0.74997   0.00000  Uiso   1.00
C1056  C     0.83034   0.97815   0.71134   0.00000  Uiso   1.00
C1057  C     0.83324   0.70934   0.74998   0.00000  Uiso   1.00
C1058  C     0.83332   0.95745   0.74996   0.00000  Uiso   1.00
C1059  C     0.98856   0.80962   0.71850   0.00000  Uiso   1.00
C1060  C     0.67812   0.85708   0.78147   0.00000  Uiso   1.00
C1061  C     0.70314   0.80961   0.71852   0.00000  Uiso   1.00
C1062  C     0.96355   0.85709   0.78144   0.00000  Uiso   1.00
C1063  C     0.80269   0.83325   0.83805   0.00000  Uiso   1.00
C1064  C     0.86394   0.83365   0.66196   0.00000  Uiso   1.00
C1065  C     0.78306   0.83283   0.88889   0.00000  Uiso   1.00
C1066  C     0.83331   0.75342   0.74994   0.00000  Uiso   1.00
C1067  C     0.88244   0.84048   0.61179   0.00000  Uiso   1.00
C1068  C     0.72201   0.81131   0.96289   0.00000  Uiso   1.00
C1069  C     0.93328   0.88031   0.54463   0.00000  Uiso   1.00
C1070  C     0.73692   0.81638   0.91476   0.00000  Uiso   1.00
C1071  C     0.92421   0.86451   0.58909   0.00000  Uiso   1.00
C1072  C     0.81327   0.84632   0.91121   0.00000  Uiso   1.00
C1073  C     0.85123   0.83045   0.58937   0.00000  Uiso   1.00
C1074  C     0.79885   0.84349   0.95948   0.00000  Uiso   1.00
C1075  C     0.85651   0.84881   0.54710   0.00000  Uiso   1.00
C1076  C     0.75310   0.82446   0.98559   0.00000  Uiso   1.00
C1077  C     0.77339   0.82689   0.55404   0.00000  Uiso   1.00
C1078  C     0.89922   0.87279   0.52338   0.00000  Uiso   1.00
C1079  C     0.83089   0.85597   0.98155   0.00000  Uiso   1.00
C1080  C     0.82029   0.84345   0.52794   0.00000  Uiso   1.00
C1081  C     0.87322   0.88039   0.95874   0.00000  Uiso   1.00
C1082  C     0.74024   0.81820   0.53332   0.00000  Uiso   1.00
C1083  C     0.90634   0.88898   0.97955   0.00000  Uiso   1.00
C1084  C     0.83585   0.97872   0.78874   0.00000  Uiso   1.00
C1085  C     0.83081   0.68814   0.71115   0.00000  Uiso   1.00
C1086  C     0.83556   0.68872   0.78886   0.00000  Uiso   1.00
H1087  H     0.70506   0.80545   0.55499   0.00000  Uiso   1.00
H1088  H     0.88088   0.89467   0.92525   0.00000  Uiso   1.00
H1089  H     0.73124   0.79061   0.69332   0.00000  Uiso   1.00
H1090  H     0.93545   0.87612   0.80661   0.00000  Uiso   1.00
H1091  H     0.93781   0.90800   0.96050   0.00000  Uiso   1.00
H1092  H     0.82156   0.80927   0.60684   0.00000  Uiso   1.00
H1093  H     0.84944   0.85682   0.88968   0.00000  Uiso   1.00
H1094  H     0.94832   0.87281   0.60676   0.00000  Uiso   1.00
H1095  H     0.71368   0.80525   0.89726   0.00000  Uiso   1.00
H1096  H     0.98045   0.79067   0.69329   0.00000  Uiso   1.00
H1097  H     0.68624   0.87606   0.80665   0.00000  Uiso   1.00
H1098  H     0.76062   0.82139   0.59110   0.00000  Uiso   1.00
I1099  I     0.98798   0.77941   0.99697   0.00000  Uiso   1.00
I1100  I     0.99719   0.91750   0.51411   0.00000  Uiso   1.00
I1101  I     0.83754   0.94542   0.84788   0.00000  Uiso   1.00
I1102  I     0.83036   0.72174   0.65160   0.00000  Uiso   1.00
I1103  I     0.83646   0.72320   0.84828   0.00000  Uiso   1.00
I1104  I     0.82644   0.94401   0.65298   0.00000  Uiso   1.00
N1105  N     0.71426   0.83334   0.75001   0.00000  Uiso   1.00
N1106  N     0.95241   0.83332   0.74999   0.00000  Uiso   1.00
O1107  O     0.79512   0.89442   0.75000   0.00000  Uiso   1.00
O1108  O     0.87154   0.77225   0.74999   0.00000  Uiso   1.00
O1109  O     0.87157   0.89441   0.75000   0.00000  Uiso   1.00
O1110  O     0.79510   0.77226   0.75000   0.00000  Uiso   1.00
O1111  O     0.77328   0.83334   0.81612   0.00000  Uiso   1.00
O1112  O     0.89339   0.83333   0.68387   0.00000  Uiso   1.00
O1113  O     0.84972   0.83333   0.81612   0.00000  Uiso   1.00
O1114  O     0.81695   0.83334   0.68388   0.00000  Uiso   1.00
Zn1115 Zn    0.78229   0.83334   0.75000   0.00000  Uiso   1.00
Zn1116 Zn    0.88438   0.83333   0.75000   0.00000  Uiso   1.00
loop_
_geom_bond_atom_site_label_1
_geom_bond_atom_site_label_2
_geom_bond_distance
_geom_bond_site_symmetry_2
_ccdc_geom_bond_type
C1     C4      1.413   .     S
C1     O55     1.282   .     A
C1     O53     1.281   .     A
C2     C4      1.403   .     A
C2     I50     2.146   .     S
C2     C217    1.386   .     S
C3     C31     1.402   .     A
C3     C32     1.402   .     A
C3     C12     1.410   .     S
C4     C30     1.403   .     A
C5     N52     1.366   .     A
C5     H42     1.082   .     S
C5     C69     1.417   .     S
C6     N51     1.366   .     A
C6     H43     1.082   .     S
C6     C132    1.417   1_455 S
C7     N51     1.367   .     A
C7     H35     1.082   .     S
C7     C129    1.417   1_455 S
C8     N52     1.367   .     A
C8     H36     1.082   .     S
C8     C68     1.417   .     S
C9     C11     1.457   .     S
C9     O57     1.292   .     A
C9     O59     1.294   .     A
C10    O60     1.293   .     A
C10    O58     1.292   .     A
C10    C13     1.455   .     S
C11    C16     1.396   .     A
C11    C18     1.388   .     A
C12    O56     1.281   .     A
C12    O54     1.280   .     A
C13    C17     1.397   .     A
C13    C19     1.386   .     A
C14    C22     1.416   .     A
C14    C16     1.395   .     A
C14    I169    2.127   1_455 S
C15    C24     1.417   .     A
C15    C17     1.397   .     A
C15    I46     2.127   .     S
C16    H41     1.083   .     S
C17    H40     1.083   .     S
C18    C20     1.394   .     A
C18    H39     1.077   .     S
C19    H38     1.078   .     S
C19    C21     1.393   .     A
C20    C22     1.423   .     A
C20    C25     1.419   .     A
C21    C26     1.418   .     A
C21    C24     1.421   .     A
C22    C586    1.395   .     S
C23    C28     1.388   .     A
C23    C26     1.416   .     A
C23    H44     1.079   .     S
C24    C587    1.396   1_554 S
C25    C27     1.416   .     A
C25    C584    1.410   .     S
C26    C583    1.410   1_554 S
C27    C29     1.389   .     A
C27    H34     1.079   .     S
C28    H33     1.081   .     S
C28    C580    1.395   1_554 S
C29    H37     1.081   .     S
C29    C582    1.396   .     S
C30    I47     2.143   .     S
C30    C218    1.386   .     S
C31    I48     2.146   .     S
C31    C374    1.386   1_545 S
C32    I49     2.148   .     S
C32    C402    1.386   1_545 S
I45    C76     2.127   .     S
N51    Zn61    2.011   .     S
N52    Zn62    2.011   .     S
O53    Zn61    1.990   .     S
O54    Zn62    1.990   .     S
O55    Zn62    1.991   .     S
O56    Zn61    1.991   .     S
O57    Zn61    1.963   .     S
O58    Zn62    1.963   .     S
O59    Zn62    1.909   .     S
O60    Zn61    1.909   .     S
C63    C66     1.413   .     S
C63    O117    1.282   .     A
C63    O115    1.281   .     A
C64    C66     1.403   .     A
C64    I112    2.146   .     S
C64    C279    1.386   .     S
C65    C93     1.402   .     A
C65    C94     1.402   .     A
C65    C74     1.410   .     S
C66    C92     1.403   .     A
C67    N114    1.366   .     A
C67    H104    1.082   .     S
C67    C131    1.417   .     S
C68    N113    1.366   .     A
C68    H105    1.082   .     S
C69    N113    1.367   .     A
C69    H97     1.082   .     S
C70    N114    1.367   .     A
C70    H98     1.082   .     S
C70    C130    1.417   .     S
C71    C73     1.457   .     S
C71    O119    1.292   .     A
C71    O121    1.294   .     A
C72    O122    1.293   .     A
C72    O120    1.292   .     A
C72    C75     1.455   .     S
C73    C78     1.396   .     A
C73    C80     1.388   .     A
C74    O118    1.281   .     A
C74    O116    1.280   .     A
C75    C79     1.397   .     A
C75    C81     1.386   .     A
C76    C84     1.416   .     A
C76    C78     1.395   .     A
C77    C86     1.417   .     A
C77    C79     1.397   .     A
C77    I108    2.127   .     S
C78    H103    1.083   .     S
C79    H102    1.083   .     S
C80    C82     1.394   .     A
C80    H101    1.077   .     S
C81    H100    1.078   .     S
C81    C83     1.393   .     A
C82    C84     1.423   .     A
C82    C87     1.419   .     A
C83    C88     1.418   .     A
C83    C86     1.421   .     A
C84    C648    1.395   .     S
C85    C90     1.388   .     A
C85    C88     1.416   .     A
C85    H106    1.079   .     S
C86    C649    1.396   1_554 S
C87    C89     1.416   .     A
C87    C646    1.410   .     S
C88    C645    1.410   1_554 S
C89    C91     1.389   .     A
C89    H96     1.079   .     S
C90    H95     1.081   .     S
C90    C642    1.395   1_554 S
C91    H99     1.081   .     S
C91    C644    1.396   .     S
C92    I109    2.143   .     S
C92    C280    1.386   .     S
C93    I110    2.146   .     S
C93    C436    1.386   1_545 S
C94    I111    2.148   .     S
C94    C464    1.386   1_545 S
I107   C138    2.127   .     S
N113   Zn123   2.011   .     S
N114   Zn124   2.011   .     S
O115   Zn123   1.990   .     S
O116   Zn124   1.990   .     S
O117   Zn124   1.991   .     S
O118   Zn123   1.991   .     S
O119   Zn123   1.963   .     S
O120   Zn124   1.963   .     S
O121   Zn124   1.909   .     S
O122   Zn123   1.909   .     S
C125   C128    1.413   .     S
C125   O179    1.282   .     A
C125   O177    1.281   .     A
C126   C128    1.403   .     A
C126   I174    2.146   .     S
C126   C341    1.386   .     S
C127   C155    1.402   .     A
C127   C156    1.402   .     A
C127   C136    1.410   .     S
C128   C154    1.403   .     A
C129   N176    1.366   .     A
C129   H166    1.082   .     S
C129   C7      1.417   1_655 S
C130   N175    1.366   .     A
C130   H167    1.082   .     S
C131   N175    1.367   .     A
C131   H159    1.082   .     S
C132   N176    1.367   .     A
C132   H160    1.082   .     S
C132   C6      1.417   1_655 S
C133   C135    1.457   .     S
C133   O181    1.292   .     A
C133   O183    1.294   .     A
C134   O184    1.293   .     A
C134   O182    1.292   .     A
C134   C137    1.455   .     S
C135   C140    1.396   .     A
C135   C142    1.388   .     A
C136   O180    1.281   .     A
C136   O178    1.280   .     A
C137   C141    1.397   .     A
C137   C143    1.386   .     A
C138   C146    1.416   .     A
C138   C140    1.395   .     A
C139   C148    1.417   .     A
C139   C141    1.397   .     A
C139   I170    2.127   .     S
C140   H165    1.083   .     S
C141   H164    1.083   .     S
C142   C144    1.394   .     A
C142   H163    1.077   .     S
C143   H162    1.078   .     S
C143   C145    1.393   .     A
C144   C146    1.423   .     A
C144   C149    1.419   .     A
C145   C150    1.418   .     A
C145   C148    1.421   .     A
C146   C710    1.395   .     S
C147   C152    1.388   .     A
C147   C150    1.416   .     A
C147   H168    1.079   .     S
C148   C711    1.396   1_554 S
C149   C151    1.416   .     A
C149   C708    1.410   .     S
C150   C707    1.410   1_554 S
C151   C153    1.389   .     A
C151   H158    1.079   .     S
C152   H157    1.081   .     S
C152   C704    1.395   1_554 S
C153   H161    1.081   .     S
C153   C706    1.396   .     S
C154   I171    2.143   .     S
C154   C342    1.386   .     S
C155   I172    2.146   .     S
C155   C498    1.386   1_545 S
C156   I173    2.148   .     S
C156   C526    1.386   1_545 S
I169   C14     2.127   1_655 S
N175   Zn185   2.011   .     S
N176   Zn186   2.011   .     S
O177   Zn185   1.990   .     S
O178   Zn186   1.990   .     S
O179   Zn186   1.991   .     S
O180   Zn185   1.991   .     S
O181   Zn185   1.963   .     S
O182   Zn186   1.963   .     S
O183   Zn186   1.909   .     S
O184   Zn185   1.909   .     S
C187   C190    1.413   .     S
C187   O241    1.282   .     A
C187   O239    1.281   .     A
C188   C190    1.403   .     A
C188   I236    2.146   .     S
C188   C403    1.386   .     S
C189   C217    1.402   .     A
C189   C218    1.402   .     A
C189   C198    1.410   .     S
C190   C216    1.403   .     A
C191   N238    1.366   .     A
C191   H228    1.082   .     S
C191   C255    1.417   .     S
C192   N237    1.366   .     A
C192   H229    1.082   .     S
C192   C318    1.417   1_455 S
C193   N237    1.367   .     A
C193   H221    1.082   .     S
C193   C315    1.417   1_455 S
C194   N238    1.367   .     A
C194   H222    1.082   .     S
C194   C254    1.417   .     S
C195   C197    1.457   .     S
C195   O243    1.292   .     A
C195   O245    1.294   .     A
C196   O246    1.293   .     A
C196   O244    1.292   .     A
C196   C199    1.455   .     S
C197   C202    1.396   .     A
C197   C204    1.388   .     A
C198   O242    1.281   .     A
C198   O240    1.280   .     A
C199   C203    1.397   .     A
C199   C205    1.386   .     A
C200   C208    1.416   .     A
C200   C202    1.395   .     A
C200   I355    2.127   1_455 S
C201   C210    1.417   .     A
C201   C203    1.397   .     A
C201   I232    2.127   .     S
C202   H227    1.083   .     S
C203   H226    1.083   .     S
C204   C206    1.394   .     A
C204   H225    1.077   .     S
C205   H224    1.078   .     S
C205   C207    1.393   .     A
C206   C208    1.423   .     A
C206   C211    1.419   .     A
C207   C212    1.418   .     A
C207   C210    1.421   .     A
C208   C772    1.395   .     S
C209   C214    1.388   .     A
C209   C212    1.416   .     A
C209   H230    1.079   .     S
C210   C773    1.396   1_554 S
C211   C213    1.416   .     A
C211   C770    1.410   .     S
C212   C769    1.410   1_554 S
C213   C215    1.389   .     A
C213   H220    1.079   .     S
C214   H219    1.081   .     S
C214   C766    1.395   1_554 S
C215   H223    1.081   .     S
C215   C768    1.396   .     S
C216   I233    2.143   .     S
C216   C404    1.386   .     S
C217   I234    2.146   .     S
C218   I235    2.148   .     S
I231   C262    2.127   .     S
N237   Zn247   2.011   .     S
N238   Zn248   2.011   .     S
O239   Zn247   1.990   .     S
O240   Zn248   1.990   .     S
O241   Zn248   1.991   .     S
O242   Zn247   1.991   .     S
O243   Zn247   1.963   .     S
O244   Zn248   1.963   .     S
O245   Zn248   1.909   .     S
O246   Zn247   1.909   .     S
C249   C252    1.413   .     S
C249   O303    1.282   .     A
C249   O301    1.281   .     A
C250   C252    1.403   .     A
C250   I298    2.146   .     S
C250   C465    1.386   .     S
C251   C279    1.402   .     A
C251   C280    1.402   .     A
C251   C260    1.410   .     S
C252   C278    1.403   .     A
C253   N300    1.366   .     A
C253   H290    1.082   .     S
C253   C317    1.417   .     S
C254   N299    1.366   .     A
C254   H291    1.082   .     S
C255   N299    1.367   .     A
C255   H283    1.082   .     S
C256   N300    1.367   .     A
C256   H284    1.082   .     S
C256   C316    1.417   .     S
C257   C259    1.457   .     S
C257   O305    1.292   .     A
C257   O307    1.294   .     A
C258   O308    1.293   .     A
C258   O306    1.292   .     A
C258   C261    1.455   .     S
C259   C264    1.396   .     A
C259   C266    1.388   .     A
C260   O304    1.281   .     A
C260   O302    1.280   .     A
C261   C265    1.397   .     A
C261   C267    1.386   .     A
C262   C270    1.416   .     A
C262   C264    1.395   .     A
C263   C272    1.417   .     A
C263   C265    1.397   .     A
C263   I294    2.127   .     S
C264   H289    1.083   .     S
C265   H288    1.083   .     S
C266   C268    1.394   .     A
C266   H287    1.077   .     S
C267   H286    1.078   .     S
C267   C269    1.393   .     A
C268   C270    1.423   .     A
C268   C273    1.419   .     A
C269   C274    1.418   .     A
C269   C272    1.421   .     A
C270   C834    1.395   .     S
C271   C276    1.388   .     A
C271   C274    1.416   .     A
C271   H292    1.079   .     S
C272   C835    1.396   1_554 S
C273   C275    1.416   .     A
C273   C832    1.410   .     S
C274   C831    1.410   1_554 S
C275   C277    1.389   .     A
C275   H282    1.079   .     S
C276   H281    1.081   .     S
C276   C828    1.395   1_554 S
C277   H285    1.081   .     S
C277   C830    1.396   .     S
C278   I295    2.143   .     S
C278   C466    1.386   .     S
C279   I296    2.146   .     S
C280   I297    2.148   .     S
I293   C324    2.127   .     S
N299   Zn309   2.011   .     S
N300   Zn310   2.011   .     S
O301   Zn309   1.990   .     S
O302   Zn310   1.990   .     S
O303   Zn310   1.991   .     S
O304   Zn309   1.991   .     S
O305   Zn309   1.963   .     S
O306   Zn310   1.963   .     S
O307   Zn310   1.909   .     S
O308   Zn309   1.909   .     S
C311   C314    1.413   .     S
C311   O365    1.282   .     A
C311   O363    1.281   .     A
C312   C314    1.403   .     A
C312   I360    2.146   .     S
C312   C527    1.386   .     S
C313   C341    1.402   .     A
C313   C342    1.402   .     A
C313   C322    1.410   .     S
C314   C340    1.403   .     A
C315   N362    1.366   .     A
C315   H352    1.082   .     S
C315   C193    1.417   1_655 S
C316   N361    1.366   .     A
C316   H353    1.082   .     S
C317   N361    1.367   .     A
C317   H345    1.082   .     S
C318   N362    1.367   .     A
C318   H346    1.082   .     S
C318   C192    1.417   1_655 S
C319   C321    1.457   .     S
C319   O367    1.292   .     A
C319   O369    1.294   .     A
C320   O370    1.293   .     A
C320   O368    1.292   .     A
C320   C323    1.455   .     S
C321   C326    1.396   .     A
C321   C328    1.388   .     A
C322   O366    1.281   .     A
C322   O364    1.280   .     A
C323   C327    1.397   .     A
C323   C329    1.386   .     A
C324   C332    1.416   .     A
C324   C326    1.395   .     A
C325   C334    1.417   .     A
C325   C327    1.397   .     A
C325   I356    2.127   .     S
C326   H351    1.083   .     S
C327   H350    1.083   .     S
C328   C330    1.394   .     A
C328   H349    1.077   .     S
C329   H348    1.078   .     S
C329   C331    1.393   .     A
C330   C332    1.423   .     A
C330   C335    1.419   .     A
C331   C336    1.418   .     A
C331   C334    1.421   .     A
C332   C896    1.395   .     S
C333   C338    1.388   .     A
C333   C336    1.416   .     A
C333   H354    1.079   .     S
C334   C897    1.396   1_554 S
C335   C337    1.416   .     A
C335   C894    1.410   .     S
C336   C893    1.410   1_554 S
C337   C339    1.389   .     A
C337   H344    1.079   .     S
C338   H343    1.081   .     S
C338   C890    1.395   1_554 S
C339   H347    1.081   .     S
C339   C892    1.396   .     S
C340   I357    2.143   .     S
C340   C528    1.386   .     S
C341   I358    2.146   .     S
C342   I359    2.148   .     S
I355   C200    2.127   1_655 S
N361   Zn371   2.011   .     S
N362   Zn372   2.011   .     S
O363   Zn371   1.990   .     S
O364   Zn372   1.990   .     S
O365   Zn372   1.991   .     S
O366   Zn371   1.991   .     S
O367   Zn371   1.963   .     S
O368   Zn372   1.963   .     S
O369   Zn372   1.909   .     S
O370   Zn371   1.909   .     S
C373   C376    1.413   .     S
C373   O427    1.282   .     A
C373   O425    1.281   .     A
C374   C376    1.403   .     A
C374   I422    2.146   .     S
C374   C31     1.386   1_565 S
C375   C403    1.402   .     A
C375   C404    1.402   .     A
C375   C384    1.410   .     S
C376   C402    1.403   .     A
C377   N424    1.366   .     A
C377   H414    1.082   .     S
C377   C441    1.417   .     S
C378   N423    1.366   .     A
C378   H415    1.082   .     S
C378   C504    1.417   1_455 S
C379   N423    1.367   .     A
C379   H407    1.082   .     S
C379   C501    1.417   1_455 S
C380   N424    1.367   .     A
C380   H408    1.082   .     S
C380   C440    1.417   .     S
C381   C383    1.457   .     S
C381   O429    1.292   .     A
C381   O431    1.294   .     A
C382   O432    1.293   .     A
C382   O430    1.292   .     A
C382   C385    1.455   .     S
C383   C388    1.396   .     A
C383   C390    1.388   .     A
C384   O428    1.281   .     A
C384   O426    1.280   .     A
C385   C389    1.397   .     A
C385   C391    1.386   .     A
C386   C394    1.416   .     A
C386   C388    1.395   .     A
C386   I541    2.127   1_455 S
C387   C396    1.417   .     A
C387   C389    1.397   .     A
C387   I418    2.127   .     S
C388   H413    1.083   .     S
C389   H412    1.083   .     S
C390   C392    1.394   .     A
C390   H411    1.077   .     S
C391   H410    1.078   .     S
C391   C393    1.393   .     A
C392   C394    1.423   .     A
C392   C397    1.419   .     A
C393   C398    1.418   .     A
C393   C396    1.421   .     A
C394   C958    1.395   .     S
C395   C400    1.388   .     A
C395   C398    1.416   .     A
C395   H416    1.079   .     S
C396   C959    1.396   1_554 S
C397   C399    1.416   .     A
C397   C956    1.410   .     S
C398   C955    1.410   1_554 S
C399   C401    1.389   .     A
C399   H406    1.079   .     S
C400   H405    1.081   .     S
C400   C952    1.395   1_554 S
C401   H409    1.081   .     S
C401   C954    1.396   .     S
C402   I419    2.143   .     S
C402   C32     1.386   1_565 S
C403   I420    2.146   .     S
C404   I421    2.148   .     S
I417   C448    2.127   .     S
N423   Zn433   2.011   .     S
N424   Zn434   2.011   .     S
O425   Zn433   1.990   .     S
O426   Zn434   1.990   .     S
O427   Zn434   1.991   .     S
O428   Zn433   1.991   .     S
O429   Zn433   1.963   .     S
O430   Zn434   1.963   .     S
O431   Zn434   1.909   .     S
O432   Zn433   1.909   .     S
C435   C438    1.413   .     S
C435   O489    1.282   .     A
C435   O487    1.281   .     A
C436   C438    1.403   .     A
C436   I484    2.146   .     S
C436   C93     1.386   1_565 S
C437   C465    1.402   .     A
C437   C466    1.402   .     A
C437   C446    1.410   .     S
C438   C464    1.403   .     A
C439   N486    1.366   .     A
C439   H476    1.082   .     S
C439   C503    1.417   .     S
C440   N485    1.366   .     A
C440   H477    1.082   .     S
C441   N485    1.367   .     A
C441   H469    1.082   .     S
C442   N486    1.367   .     A
C442   H470    1.082   .     S
C442   C502    1.417   .     S
C443   C445    1.457   .     S
C443   O491    1.292   .     A
C443   O493    1.294   .     A
C444   O494    1.293   .     A
C444   O492    1.292   .     A
C444   C447    1.455   .     S
C445   C450    1.396   .     A
C445   C452    1.388   .     A
C446   O490    1.281   .     A
C446   O488    1.280   .     A
C447   C451    1.397   .     A
C447   C453    1.386   .     A
C448   C456    1.416   .     A
C448   C450    1.395   .     A
C449   C458    1.417   .     A
C449   C451    1.397   .     A
C449   I480    2.127   .     S
C450   H475    1.083   .     S
C451   H474    1.083   .     S
C452   C454    1.394   .     A
C452   H473    1.077   .     S
C453   H472    1.078   .     S
C453   C455    1.393   .     A
C454   C456    1.423   .     A
C454   C459    1.419   .     A
C455   C460    1.418   .     A
C455   C458    1.421   .     A
C456   C1020   1.395   .     S
C457   C462    1.388   .     A
C457   C460    1.416   .     A
C457   H478    1.079   .     S
C458   C1021   1.396   1_554 S
C459   C461    1.416   .     A
C459   C1018   1.410   .     S
C460   C1017   1.410   1_554 S
C461   C463    1.389   .     A
C461   H468    1.079   .     S
C462   H467    1.081   .     S
C462   C1014   1.395   1_554 S
C463   H471    1.081   .     S
C463   C1016   1.396   .     S
C464   I481    2.143   .     S
C464   C94     1.386   1_565 S
C465   I482    2.146   .     S
C466   I483    2.148   .     S
I479   C510    2.127   .     S
N485   Zn495   2.011   .     S
N486   Zn496   2.011   .     S
O487   Zn495   1.990   .     S
O488   Zn496   1.990   .     S
O489   Zn496   1.991   .     S
O490   Zn495   1.991   .     S
O491   Zn495   1.963   .     S
O492   Zn496   1.963   .     S
O493   Zn496   1.909   .     S
O494   Zn495   1.909   .     S
C497   C500    1.413   .     S
C497   O551    1.282   .     A
C497   O549    1.281   .     A
C498   C500    1.403   .     A
C498   I546    2.146   .     S
C498   C155    1.386   1_565 S
C499   C527    1.402   .     A
C499   C528    1.402   .     A
C499   C508    1.410   .     S
C500   C526    1.403   .     A
C501   N548    1.366   .     A
C501   H538    1.082   .     S
C501   C379    1.417   1_655 S
C502   N547    1.366   .     A
C502   H539    1.082   .     S
C503   N547    1.367   .     A
C503   H531    1.082   .     S
C504   N548    1.367   .     A
C504   H532    1.082   .     S
C504   C378    1.417   1_655 S
C505   C507    1.457   .     S
C505   O553    1.292   .     A
C505   O555    1.294   .     A
C506   O556    1.293   .     A
C506   O554    1.292   .     A
C506   C509    1.455   .     S
C507   C512    1.396   .     A
C507   C514    1.388   .     A
C508   O552    1.281   .     A
C508   O550    1.280   .     A
C509   C513    1.397   .     A
C509   C515    1.386   .     A
C510   C518    1.416   .     A
C510   C512    1.395   .     A
C511   C520    1.417   .     A
C511   C513    1.397   .     A
C511   I542    2.127   .     S
C512   H537    1.083   .     S
C513   H536    1.083   .     S
C514   C516    1.394   .     A
C514   H535    1.077   .     S
C515   H534    1.078   .     S
C515   C517    1.393   .     A
C516   C518    1.423   .     A
C516   C521    1.419   .     A
C517   C522    1.418   .     A
C517   C520    1.421   .     A
C518   C1082   1.395   .     S
C519   C524    1.388   .     A
C519   C522    1.416   .     A
C519   H540    1.079   .     S
C520   C1083   1.396   1_554 S
C521   C523    1.416   .     A
C521   C1080   1.410   .     S
C522   C1079   1.410   1_554 S
C523   C525    1.389   .     A
C523   H530    1.079   .     S
C524   H529    1.081   .     S
C524   C1076   1.395   1_554 S
C525   H533    1.081   .     S
C525   C1078   1.396   .     S
C526   I543    2.143   .     S
C526   C156    1.386   1_565 S
C527   I544    2.146   .     S
C528   I545    2.148   .     S
I541   C386    2.127   1_655 S
N547   Zn557   2.011   .     S
N548   Zn558   2.011   .     S
O549   Zn557   1.990   .     S
O550   Zn558   1.990   .     S
O551   Zn558   1.991   .     S
O552   Zn557   1.991   .     S
O553   Zn557   1.963   .     S
O554   Zn558   1.963   .     S
O555   Zn558   1.909   .     S
O556   Zn557   1.909   .     S
C559   C562    1.413   .     S
C559   O613    1.282   .     A
C559   O611    1.281   .     A
C560   C562    1.403   .     A
C560   I608    2.146   .     S
C560   C775    1.386   .     S
C561   C589    1.402   .     A
C561   C590    1.402   .     A
C561   C570    1.410   .     S
C562   C588    1.403   .     A
C563   N610    1.366   .     A
C563   H600    1.082   .     S
C563   C627    1.417   .     S
C564   N609    1.366   .     A
C564   H601    1.082   .     S
C564   C690    1.417   1_455 S
C565   N609    1.367   .     A
C565   H593    1.082   .     S
C565   C687    1.417   1_455 S
C566   N610    1.367   .     A
C566   H594    1.082   .     S
C566   C626    1.417   .     S
C567   C569    1.457   .     S
C567   O615    1.292   .     A
C567   O617    1.294   .     A
C568   O618    1.293   .     A
C568   O616    1.292   .     A
C568   C571    1.455   .     S
C569   C574    1.396   .     A
C569   C576    1.388   .     A
C570   O614    1.281   .     A
C570   O612    1.280   .     A
C571   C575    1.397   .     A
C571   C577    1.386   .     A
C572   C580    1.416   .     A
C572   C574    1.395   .     A
C572   I727    2.127   1_455 S
C573   C582    1.417   .     A
C573   C575    1.397   .     A
C573   I604    2.127   .     S
C574   H599    1.083   .     S
C575   H598    1.083   .     S
C576   C578    1.394   .     A
C576   H597    1.077   .     S
C577   H596    1.078   .     S
C577   C579    1.393   .     A
C578   C580    1.423   .     A
C578   C583    1.419   .     A
C579   C584    1.418   .     A
C579   C582    1.421   .     A
C580   C28     1.395   1_556 S
C581   C586    1.388   .     A
C581   C584    1.416   .     A
C581   H602    1.079   .     S
C583   C585    1.416   .     A
C583   C26     1.410   1_556 S
C585   C587    1.389   .     A
C585   H592    1.079   .     S
C586   H591    1.081   .     S
C587   H595    1.081   .     S
C587   C24     1.396   1_556 S
C588   I605    2.143   .     S
C588   C776    1.386   .     S
C589   I606    2.146   .     S
C589   C932    1.386   1_545 S
C590   I607    2.148   .     S
C590   C960    1.386   1_545 S
I603   C634    2.127   .     S
N609   Zn619   2.011   .     S
N610   Zn620   2.011   .     S
O611   Zn619   1.990   .     S
O612   Zn620   1.990   .     S
O613   Zn620   1.991   .     S
O614   Zn619   1.991   .     S
O615   Zn619   1.963   .     S
O616   Zn620   1.963   .     S
O617   Zn620   1.909   .     S
O618   Zn619   1.909   .     S
C621   C624    1.413   .     S
C621   O675    1.282   .     A
C621   O673    1.281   .     A
C622   C624    1.403   .     A
C622   I670    2.146   .     S
C622   C837    1.386   .     S
C623   C651    1.402   .     A
C623   C652    1.402   .     A
C623   C632    1.410   .     S
C624   C650    1.403   .     A
C625   N672    1.366   .     A
C625   H662    1.082   .     S
C625   C689    1.417   .     S
C626   N671    1.366   .     A
C626   H663    1.082   .     S
C627   N671    1.367   .     A
C627   H655    1.082   .     S
C628   N672    1.367   .     A
C628   H656    1.082   .     S
C628   C688    1.417   .     S
C629   C631    1.457   .     S
C629   O677    1.292   .     A
C629   O679    1.294   .     A
C630   O680    1.293   .     A
C630   O678    1.292   .     A
C630   C633    1.455   .     S
C631   C636    1.396   .     A
C631   C638    1.388   .     A
C632   O676    1.281   .     A
C632   O674    1.280   .     A
C633   C637    1.397   .     A
C633   C639    1.386   .     A
C634   C642    1.416   .     A
C634   C636    1.395   .     A
C635   C644    1.417   .     A
C635   C637    1.397   .     A
C635   I666    2.127   .     S
C636   H661    1.083   .     S
C637   H660    1.083   .     S
C638   C640    1.394   .     A
C638   H659    1.077   .     S
C639   H658    1.078   .     S
C639   C641    1.393   .     A
C640   C642    1.423   .     A
C640   C645    1.419   .     A
C641   C646    1.418   .     A
C641   C644    1.421   .     A
C642   C90     1.395   1_556 S
C643   C648    1.388   .     A
C643   C646    1.416   .     A
C643   H664    1.079   .     S
C645   C647    1.416   .     A
C645   C88     1.410   1_556 S
C647   C649    1.389   .     A
C647   H654    1.079   .     S
C648   H653    1.081   .     S
C649   H657    1.081   .     S
C649   C86     1.396   1_556 S
C650   I667    2.143   .     S
C650   C838    1.386   .     S
C651   I668    2.146   .     S
C651   C994    1.386   1_545 S
C652   I669    2.148   .     S
C652   C1022   1.386   1_545 S
I665   C696    2.127   .     S
N671   Zn681   2.011   .     S
N672   Zn682   2.011   .     S
O673   Zn681   1.990   .     S
O674   Zn682   1.990   .     S
O675   Zn682   1.991   .     S
O676   Zn681   1.991   .     S
O677   Zn681   1.963   .     S
O678   Zn682   1.963   .     S
O679   Zn682   1.909   .     S
O680   Zn681   1.909   .     S
C683   C686    1.413   .     S
C683   O737    1.282   .     A
C683   O735    1.281   .     A
C684   C686    1.403   .     A
C684   I732    2.146   .     S
C684   C899    1.386   .     S
C685   C713    1.402   .     A
C685   C714    1.402   .     A
C685   C694    1.410   .     S
C686   C712    1.403   .     A
C687   N734    1.366   .     A
C687   H724    1.082   .     S
C687   C565    1.417   1_655 S
C688   N733    1.366   .     A
C688   H725    1.082   .     S
C689   N733    1.367   .     A
C689   H717    1.082   .     S
C690   N734    1.367   .     A
C690   H718    1.082   .     S
C690   C564    1.417   1_655 S
C691   C693    1.457   .     S
C691   O739    1.292   .     A
C691   O741    1.294   .     A
C692   O742    1.293   .     A
C692   O740    1.292   .     A
C692   C695    1.455   .     S
C693   C698    1.396   .     A
C693   C700    1.388   .     A
C694   O738    1.281   .     A
C694   O736    1.280   .     A
C695   C699    1.397   .     A
C695   C701    1.386   .     A
C696   C704    1.416   .     A
C696   C698    1.395   .     A
C697   C706    1.417   .     A
C697   C699    1.397   .     A
C697   I728    2.127   .     S
C698   H723    1.083   .     S
C699   H722    1.083   .     S
C700   C702    1.394   .     A
C700   H721    1.077   .     S
C701   H720    1.078   .     S
C701   C703    1.393   .     A
C702   C704    1.423   .     A
C702   C707    1.419   .     A
C703   C708    1.418   .     A
C703   C706    1.421   .     A
C704   C152    1.395   1_556 S
C705   C710    1.388   .     A
C705   C708    1.416   .     A
C705   H726    1.079   .     S
C707   C709    1.416   .     A
C707   C150    1.410   1_556 S
C709   C711    1.389   .     A
C709   H716    1.079   .     S
C710   H715    1.081   .     S
C711   H719    1.081   .     S
C711   C148    1.396   1_556 S
C712   I729    2.143   .     S
C712   C900    1.386   .     S
C713   I730    2.146   .     S
C713   C1056   1.386   1_545 S
C714   I731    2.148   .     S
C714   C1084   1.386   1_545 S
I727   C572    2.127   1_655 S
N733   Zn743   2.011   .     S
N734   Zn744   2.011   .     S
O735   Zn743   1.990   .     S
O736   Zn744   1.990   .     S
O737   Zn744   1.991   .     S
O738   Zn743   1.991   .     S
O739   Zn743   1.963   .     S
O740   Zn744   1.963   .     S
O741   Zn744   1.909   .     S
O742   Zn743   1.909   .     S
C745   C748    1.413   .     S
C745   O799    1.282   .     A
C745   O797    1.281   .     A
C746   C748    1.403   .     A
C746   I794    2.146   .     S
C746   C961    1.386   .     S
C747   C775    1.402   .     A
C747   C776    1.402   .     A
C747   C756    1.410   .     S
C748   C774    1.403   .     A
C749   N796    1.366   .     A
C749   H786    1.082   .     S
C749   C813    1.417   .     S
C750   N795    1.366   .     A
C750   H787    1.082   .     S
C750   C876    1.417   1_455 S
C751   N795    1.367   .     A
C751   H779    1.082   .     S
C751   C873    1.417   1_455 S
C752   N796    1.367   .     A
C752   H780    1.082   .     S
C752   C812    1.417   .     S
C753   C755    1.457   .     S
C753   O801    1.292   .     A
C753   O803    1.294   .     A
C754   O804    1.293   .     A
C754   O802    1.292   .     A
C754   C757    1.455   .     S
C755   C760    1.396   .     A
C755   C762    1.388   .     A
C756   O800    1.281   .     A
C756   O798    1.280   .     A
C757   C761    1.397   .     A
C757   C763    1.386   .     A
C758   C766    1.416   .     A
C758   C760    1.395   .     A
C758   I913    2.127   1_455 S
C759   C768    1.417   .     A
C759   C761    1.397   .     A
C759   I790    2.127   .     S
C760   H785    1.083   .     S
C761   H784    1.083   .     S
C762   C764    1.394   .     A
C762   H783    1.077   .     S
C763   H782    1.078   .     S
C763   C765    1.393   .     A
C764   C766    1.423   .     A
C764   C769    1.419   .     A
C765   C770    1.418   .     A
C765   C768    1.421   .     A
C766   C214    1.395   1_556 S
C767   C772    1.388   .     A
C767   C770    1.416   .     A
C767   H788    1.079   .     S
C769   C771    1.416   .     A
C769   C212    1.410   1_556 S
C771   C773    1.389   .     A
C771   H778    1.079   .     S
C772   H777    1.081   .     S
C773   H781    1.081   .     S
C773   C210    1.396   1_556 S
C774   I791    2.143   .     S
C774   C962    1.386   .     S
C775   I792    2.146   .     S
C776   I793    2.148   .     S
I789   C820    2.127   .     S
N795   Zn805   2.011   .     S
N796   Zn806   2.011   .     S
O797   Zn805   1.990   .     S
O798   Zn806   1.990   .     S
O799   Zn806   1.991   .     S
O800   Zn805   1.991   .     S
O801   Zn805   1.963   .     S
O802   Zn806   1.963   .     S
O803   Zn806   1.909   .     S
O804   Zn805   1.909   .     S
C807   C810    1.413   .     S
C807   O861    1.282   .     A
C807   O859    1.281   .     A
C808   C810    1.403   .     A
C808   I856    2.146   .     S
C808   C1023   1.386   .     S
C809   C837    1.402   .     A
C809   C838    1.402   .     A
C809   C818    1.410   .     S
C810   C836    1.403   .     A
C811   N858    1.366   .     A
C811   H848    1.082   .     S
C811   C875    1.417   .     S
C812   N857    1.366   .     A
C812   H849    1.082   .     S
C813   N857    1.367   .     A
C813   H841    1.082   .     S
C814   N858    1.367   .     A
C814   H842    1.082   .     S
C814   C874    1.417   .     S
C815   C817    1.457   .     S
C815   O863    1.292   .     A
C815   O865    1.294   .     A
C816   O866    1.293   .     A
C816   O864    1.292   .     A
C816   C819    1.455   .     S
C817   C822    1.396   .     A
C817   C824    1.388   .     A
C818   O862    1.281   .     A
C818   O860    1.280   .     A
C819   C823    1.397   .     A
C819   C825    1.386   .     A
C820   C828    1.416   .     A
C820   C822    1.395   .     A
C821   C830    1.417   .     A
C821   C823    1.397   .     A
C821   I852    2.127   .     S
C822   H847    1.083   .     S
C823   H846    1.083   .     S
C824   C826    1.394   .     A
C824   H845    1.077   .     S
C825   H844    1.078   .     S
C825   C827    1.393   .     A
C826   C828    1.423   .     A
C826   C831    1.419   .     A
C827   C832    1.418   .     A
C827   C830    1.421   .     A
C828   C276    1.395   1_556 S
C829   C834    1.388   .     A
C829   C832    1.416   .     A
C829   H850    1.079   .     S
C831   C833    1.416   .     A
C831   C274    1.410   1_556 S
C833   C835    1.389   .     A
C833   H840    1.079   .     S
C834   H839    1.081   .     S
C835   H843    1.081   .     S
C835   C272    1.396   1_556 S
C836   I853    2.143   .     S
C836   C1024   1.386   .     S
C837   I854    2.146   .     S
C838   I855    2.148   .     S
I851   C882    2.127   .     S
N857   Zn867   2.011   .     S
N858   Zn868   2.011   .     S
O859   Zn867   1.990   .     S
O860   Zn868   1.990   .     S
O861   Zn868   1.991   .     S
O862   Zn867   1.991   .     S
O863   Zn867   1.963   .     S
O864   Zn868   1.963   .     S
O865   Zn868   1.909   .     S
O866   Zn867   1.909   .     S
C869   C872    1.413   .     S
C869   O923    1.282   .     A
C869   O921    1.281   .     A
C870   C872    1.403   .     A
C870   I918    2.146   .     S
C870   C1085   1.386   .     S
C871   C899    1.402   .     A
C871   C900    1.402   .     A
C871   C880    1.410   .     S
C872   C898    1.403   .     A
C873   N920    1.366   .     A
C873   H910    1.082   .     S
C873   C751    1.417   1_655 S
C874   N919    1.366   .     A
C874   H911    1.082   .     S
C875   N919    1.367   .     A
C875   H903    1.082   .     S
C876   N920    1.367   .     A
C876   H904    1.082   .     S
C876   C750    1.417   1_655 S
C877   C879    1.457   .     S
C877   O925    1.292   .     A
C877   O927    1.294   .     A
C878   O928    1.293   .     A
C878   O926    1.292   .     A
C878   C881    1.455   .     S
C879   C884    1.396   .     A
C879   C886    1.388   .     A
C880   O924    1.281   .     A
C880   O922    1.280   .     A
C881   C885    1.397   .     A
C881   C887    1.386   .     A
C882   C890    1.416   .     A
C882   C884    1.395   .     A
C883   C892    1.417   .     A
C883   C885    1.397   .     A
C883   I914    2.127   .     S
C884   H909    1.083   .     S
C885   H908    1.083   .     S
C886   C888    1.394   .     A
C886   H907    1.077   .     S
C887   H906    1.078   .     S
C887   C889    1.393   .     A
C888   C890    1.423   .     A
C888   C893    1.419   .     A
C889   C894    1.418   .     A
C889   C892    1.421   .     A
C890   C338    1.395   1_556 S
C891   C896    1.388   .     A
C891   C894    1.416   .     A
C891   H912    1.079   .     S
C893   C895    1.416   .     A
C893   C336    1.410   1_556 S
C895   C897    1.389   .     A
C895   H902    1.079   .     S
C896   H901    1.081   .     S
C897   H905    1.081   .     S
C897   C334    1.396   1_556 S
C898   I915    2.143   .     S
C898   C1086   1.386   .     S
C899   I916    2.146   .     S
C900   I917    2.148   .     S
I913   C758    2.127   1_655 S
N919   Zn929   2.011   .     S
N920   Zn930   2.011   .     S
O921   Zn929   1.990   .     S
O922   Zn930   1.990   .     S
O923   Zn930   1.991   .     S
O924   Zn929   1.991   .     S
O925   Zn929   1.963   .     S
O926   Zn930   1.963   .     S
O927   Zn930   1.909   .     S
O928   Zn929   1.909   .     S
C931   C934    1.413   .     S
C931   O985    1.282   .     A
C931   O983    1.281   .     A
C932   C934    1.403   .     A
C932   I980    2.146   .     S
C932   C589    1.386   1_565 S
C933   C961    1.402   .     A
C933   C962    1.402   .     A
C933   C942    1.410   .     S
C934   C960    1.403   .     A
C935   N982    1.366   .     A
C935   H972    1.082   .     S
C935   C999    1.417   .     S
C936   N981    1.366   .     A
C936   H973    1.082   .     S
C936   C1062   1.417   1_455 S
C937   N981    1.367   .     A
C937   H965    1.082   .     S
C937   C1059   1.417   1_455 S
C938   N982    1.367   .     A
C938   H966    1.082   .     S
C938   C998    1.417   .     S
C939   C941    1.457   .     S
C939   O987    1.292   .     A
C939   O989    1.294   .     A
C940   O990    1.293   .     A
C940   O988    1.292   .     A
C940   C943    1.455   .     S
C941   C946    1.396   .     A
C941   C948    1.388   .     A
C942   O986    1.281   .     A
C942   O984    1.280   .     A
C943   C947    1.397   .     A
C943   C949    1.386   .     A
C944   C952    1.416   .     A
C944   C946    1.395   .     A
C944   I1099   2.127   1_455 S
C945   C954    1.417   .     A
C945   C947    1.397   .     A
C945   I976    2.127   .     S
C946   H971    1.083   .     S
C947   H970    1.083   .     S
C948   C950    1.394   .     A
C948   H969    1.077   .     S
C949   H968    1.078   .     S
C949   C951    1.393   .     A
C950   C952    1.423   .     A
C950   C955    1.419   .     A
C951   C956    1.418   .     A
C951   C954    1.421   .     A
C952   C400    1.395   1_556 S
C953   C958    1.388   .     A
C953   C956    1.416   .     A
C953   H974    1.079   .     S
C955   C957    1.416   .     A
C955   C398    1.410   1_556 S
C957   C959    1.389   .     A
C957   H964    1.079   .     S
C958   H963    1.081   .     S
C959   H967    1.081   .     S
C959   C396    1.396   1_556 S
C960   I977    2.143   .     S
C960   C590    1.386   1_565 S
C961   I978    2.146   .     S
C962   I979    2.148   .     S
I975   C1006   2.127   .     S
N981   Zn991   2.011   .     S
N982   Zn992   2.011   .     S
O983   Zn991   1.990   .     S
O984   Zn992   1.990   .     S
O985   Zn992   1.991   .     S
O986   Zn991   1.991   .     S
O987   Zn991   1.963   .     S
O988   Zn992   1.963   .     S
O989   Zn992   1.909   .     S
O990   Zn991   1.909   .     S
C993   C996    1.413   .     S
C993   O1047   1.282   .     A
C993   O1045   1.281   .     A
C994   C996    1.403   .     A
C994   I1042   2.146   .     S
C994   C651    1.386   1_565 S
C995   C1023   1.402   .     A
C995   C1024   1.402   .     A
C995   C1004   1.410   .     S
C996   C1022   1.403   .     A
C997   N1044   1.366   .     A
C997   H1034   1.082   .     S
C997   C1061   1.417   .     S
C998   N1043   1.366   .     A
C998   H1035   1.082   .     S
C999   N1043   1.367   .     A
C999   H1027   1.082   .     S
C1000  N1044   1.367   .     A
C1000  H1028   1.082   .     S
C1000  C1060   1.417   .     S
C1001  C1003   1.457   .     S
C1001  O1049   1.292   .     A
C1001  O1051   1.294   .     A
C1002  O1052   1.293   .     A
C1002  O1050   1.292   .     A
C1002  C1005   1.455   .     S
C1003  C1008   1.396   .     A
C1003  C1010   1.388   .     A
C1004  O1048   1.281   .     A
C1004  O1046   1.280   .     A
C1005  C1009   1.397   .     A
C1005  C1011   1.386   .     A
C1006  C1014   1.416   .     A
C1006  C1008   1.395   .     A
C1007  C1016   1.417   .     A
C1007  C1009   1.397   .     A
C1007  I1038   2.127   .     S
C1008  H1033   1.083   .     S
C1009  H1032   1.083   .     S
C1010  C1012   1.394   .     A
C1010  H1031   1.077   .     S
C1011  H1030   1.078   .     S
C1011  C1013   1.393   .     A
C1012  C1014   1.423   .     A
C1012  C1017   1.419   .     A
C1013  C1018   1.418   .     A
C1013  C1016   1.421   .     A
C1014  C462    1.395   1_556 S
C1015  C1020   1.388   .     A
C1015  C1018   1.416   .     A
C1015  H1036   1.079   .     S
C1017  C1019   1.416   .     A
C1017  C460    1.410   1_556 S
C1019  C1021   1.389   .     A
C1019  H1026   1.079   .     S
C1020  H1025   1.081   .     S
C1021  H1029   1.081   .     S
C1021  C458    1.396   1_556 S
C1022  I1039   2.143   .     S
C1022  C652    1.386   1_565 S
C1023  I1040   2.146   .     S
C1024  I1041   2.148   .     S
I1037  C1068   2.127   .     S
N1043  Zn1053  2.011   .     S
N1044  Zn1054  2.011   .     S
O1045  Zn1053  1.990   .     S
O1046  Zn1054  1.990   .     S
O1047  Zn1054  1.991   .     S
O1048  Zn1053  1.991   .     S
O1049  Zn1053  1.963   .     S
O1050  Zn1054  1.963   .     S
O1051  Zn1054  1.909   .     S
O1052  Zn1053  1.909   .     S
C1055  C1058   1.413   .     S
C1055  O1109   1.282   .     A
C1055  O1107   1.281   .     A
C1056  C1058   1.403   .     A
C1056  I1104   2.146   .     S
C1056  C713    1.386   1_565 S
C1057  C1085   1.402   .     A
C1057  C1086   1.402   .     A
C1057  C1066   1.410   .     S
C1058  C1084   1.403   .     A
C1059  N1106   1.366   .     A
C1059  H1096   1.082   .     S
C1059  C937    1.417   1_655 S
C1060  N1105   1.366   .     A
C1060  H1097   1.082   .     S
C1061  N1105   1.367   .     A
C1061  H1089   1.082   .     S
C1062  N1106   1.367   .     A
C1062  H1090   1.082   .     S
C1062  C936    1.417   1_655 S
C1063  C1065   1.457   .     S
C1063  O1111   1.292   .     A
C1063  O1113   1.294   .     A
C1064  O1114   1.293   .     A
C1064  O1112   1.292   .     A
C1064  C1067   1.455   .     S
C1065  C1070   1.396   .     A
C1065  C1072   1.388   .     A
C1066  O1110   1.281   .     A
C1066  O1108   1.280   .     A
C1067  C1071   1.397   .     A
C1067  C1073   1.386   .     A
C1068  C1076   1.416   .     A
C1068  C1070   1.395   .     A
C1069  C1078   1.417   .     A
C1069  C1071   1.397   .     A
C1069  I1100   2.127   .     S
C1070  H1095   1.083   .     S
C1071  H1094   1.083   .     S
C1072  C1074   1.394   .     A
C1072  H1093   1.077   .     S
C1073  H1092   1.078   .     S
C1073  C1075   1.393   .     A
C1074  C1076   1.423   .     A
C1074  C1079   1.419   .     A
C1075  C1080   1.418   .     A
C1075  C1078   1.421   .     A
C1076  C524    1.395   1_556 S
C1077  C1082   1.388   .     A
C1077  C1080   1.416   .     A
C1077  H1098   1.079   .     S
C1079  C1081   1.416   .     A
C1079  C522    1.410   1_556 S
C1081  C1083   1.389   .     A
C1081  H1088   1.079   .     S
C1082  H1087   1.081   .     S
C1083  H1091   1.081   .     S
C1083  C520    1.396   1_556 S
C1084  I1101   2.143   .     S
C1084  C714    1.386   1_565 S
C1085  I1102   2.146   .     S
C1086  I1103   2.148   .     S
I1099  C944    2.127   1_655 S
N1105  Zn1115  2.011   .     S
N1106  Zn1116  2.011   .     S
O1107  Zn1115  1.990   .     S
O1108  Zn1116  1.990   .     S
O1109  Zn1116  1.991   .     S
O1110  Zn1115  1.991   .     S
O1111  Zn1115  1.963   .     S
O1112  Zn1116  1.963   .     S
O1113  Zn1116  1.909   .     S
O1114  Zn1115  1.909   .     S
