data_str_m2_o2_o10_pcu_sym.198
_audit_creation_date              2020-01-03
_audit_creation_method            'Materials Studio'
_symmetry_space_group_name_H-M    'P1'
_symmetry_Int_Tables_number       1
_symmetry_cell_setting            triclinic
loop_
_symmetry_equiv_pos_as_xyz
  x,y,z
_cell_length_a                    26.1999
_cell_length_b                    30.2848
_cell_length_c                    27.8207
_cell_angle_alpha                 90.3809
_cell_angle_beta                  98.1616
_cell_angle_gamma                 90.5059
loop_
_atom_site_label
_atom_site_type_symbol
_atom_site_fract_x
_atom_site_fract_y
_atom_site_fract_z
_atom_site_U_iso_or_equiv
_atom_site_adp_type
_atom_site_occupancy
C1     C     0.16691   0.16495   0.24993   0.00000  Uiso   1.00
C2     C     0.16693   0.33501   0.25018   0.00000  Uiso   1.00
C3     C     0.19515   0.28185   0.05842   0.00000  Uiso   1.00
C4     C     0.12772   0.22786   0.44028   0.00000  Uiso   1.00
C5     C     0.19554   0.28040   0.10901   0.00000  Uiso   1.00
C6     C     0.12939   0.22734   0.38997   0.00000  Uiso   1.00
C7     C     0.13654   0.22050   0.10034   0.00000  Uiso   1.00
C8     C     0.20309   0.27378   0.40043   0.00000  Uiso   1.00
C9     C     0.13658   0.21997   0.04969   0.00000  Uiso   1.00
C10    C     0.20385   0.27361   0.45119   0.00000  Uiso   1.00
C11    C     0.16585   0.25093   0.02729   0.00000  Uiso   1.00
C12    C     0.16574   0.25079   0.47250   0.00000  Uiso   1.00
C13    C     0.06791   0.24996   0.23753   0.00000  Uiso   1.00
C14    C     0.26543   0.25004   0.26248   0.00000  Uiso   1.00
C15    C     0.01257   0.24997   0.23071   0.00000  Uiso   1.00
C16    C     0.32077   0.25004   0.26931   0.00000  Uiso   1.00
C17    C     0.18279   0.04815   0.29386   0.00000  Uiso   1.00
C18    C     0.18551   0.45210   0.21239   0.00000  Uiso   1.00
C19    C     0.18194   0.09404   0.29365   0.00000  Uiso   1.00
C20    C     0.18457   0.40621   0.21207   0.00000  Uiso   1.00
C21    C     0.16772   0.11667   0.25004   0.00000  Uiso   1.00
C22    C     0.16769   0.38322   0.25053   0.00000  Uiso   1.00
C23    C     0.15425   0.09281   0.20672   0.00000  Uiso   1.00
C24    C     0.15165   0.40659   0.28929   0.00000  Uiso   1.00
C25    C     0.15432   0.04692   0.20702   0.00000  Uiso   1.00
C26    C     0.15183   0.45251   0.28925   0.00000  Uiso   1.00
C27    C     0.16872   0.02420   0.25057   0.00000  Uiso   1.00
C28    C     0.16881   0.47564   0.25082   0.00000  Uiso   1.00
Cu29   Cu    0.16667   0.24999   0.29821   0.00000  Uiso   1.00
Cu30   Cu    0.16667   0.25000   0.20178   0.00000  Uiso   1.00
H31    H     0.32578   0.24993   0.19374   0.00000  Uiso   1.00
H32    H     0.00755   0.25009   0.30628   0.00000  Uiso   1.00
H33    H     0.19496   0.03144   0.32780   0.00000  Uiso   1.00
H34    H     0.19974   0.46912   0.18279   0.00000  Uiso   1.00
H35    H     0.19301   0.11179   0.32751   0.00000  Uiso   1.00
H36    H     0.19767   0.38874   0.18206   0.00000  Uiso   1.00
H37    H     0.14296   0.10951   0.17273   0.00000  Uiso   1.00
H38    H     0.13818   0.38941   0.31920   0.00000  Uiso   1.00
H39    H     0.14243   0.02926   0.17326   0.00000  Uiso   1.00
H40    H     0.13793   0.46986   0.31891   0.00000  Uiso   1.00
H41    H     0.21746   0.30768   0.04448   0.00000  Uiso   1.00
H42    H     0.09608   0.21061   0.45304   0.00000  Uiso   1.00
H43    H     0.21864   0.30416   0.13204   0.00000  Uiso   1.00
H44    H     0.10018   0.20912   0.36624   0.00000  Uiso   1.00
H45    H     0.11372   0.19481   0.02876   0.00000  Uiso   1.00
H46    H     0.23473   0.29141   0.47312   0.00000  Uiso   1.00
N47    N     0.16667   0.25001   0.12934   0.00000  Uiso   1.00
N48    N     0.16667   0.24999   0.37065   0.00000  Uiso   1.00
O49    O     0.16667   0.18572   0.29071   0.00000  Uiso   1.00
O50    O     0.16666   0.31427   0.20928   0.00000  Uiso   1.00
O51    O     0.16667   0.18573   0.20928   0.00000  Uiso   1.00
O52    O     0.16666   0.31427   0.29072   0.00000  Uiso   1.00
O53    O     0.09161   0.24999   0.28132   0.00000  Uiso   1.00
O54    O     0.24172   0.25000   0.21868   0.00000  Uiso   1.00
O55    O     0.09161   0.25000   0.19988   0.00000  Uiso   1.00
O56    O     0.24172   0.25000   0.30011   0.00000  Uiso   1.00
N57    N     0.10403   0.19026   0.12134   0.00000  Uiso   1.00
H58    H     0.06585   0.19673   0.10674   0.00000  Uiso   1.00
H59    H     0.11243   0.15839   0.11037   0.00000  Uiso   1.00
N60    N     0.24036   0.29969   0.38001   0.00000  Uiso   1.00
H61    H     0.27707   0.28915   0.39494   0.00000  Uiso   1.00
H62    H     0.23661   0.33257   0.39054   0.00000  Uiso   1.00
C63    C     0.50025   0.16495   0.24993   0.00000  Uiso   1.00
C64    C     0.50026   0.33501   0.25018   0.00000  Uiso   1.00
C65    C     0.52848   0.28185   0.05842   0.00000  Uiso   1.00
C66    C     0.46105   0.22786   0.44028   0.00000  Uiso   1.00
C67    C     0.52888   0.28040   0.10901   0.00000  Uiso   1.00
C68    C     0.46272   0.22734   0.38997   0.00000  Uiso   1.00
C69    C     0.46988   0.22050   0.10034   0.00000  Uiso   1.00
C70    C     0.53642   0.27378   0.40043   0.00000  Uiso   1.00
C71    C     0.46992   0.21997   0.04969   0.00000  Uiso   1.00
C72    C     0.53718   0.27361   0.45119   0.00000  Uiso   1.00
C73    C     0.49919   0.25093   0.02729   0.00000  Uiso   1.00
C74    C     0.49907   0.25079   0.47250   0.00000  Uiso   1.00
C75    C     0.40124   0.24996   0.23753   0.00000  Uiso   1.00
C76    C     0.59876   0.25004   0.26248   0.00000  Uiso   1.00
C77    C     0.34590   0.24997   0.23071   0.00000  Uiso   1.00
C78    C     0.65410   0.25004   0.26931   0.00000  Uiso   1.00
C79    C     0.51613   0.04815   0.29386   0.00000  Uiso   1.00
C80    C     0.51885   0.45210   0.21239   0.00000  Uiso   1.00
C81    C     0.51528   0.09404   0.29365   0.00000  Uiso   1.00
C82    C     0.51791   0.40621   0.21207   0.00000  Uiso   1.00
C83    C     0.50105   0.11667   0.25004   0.00000  Uiso   1.00
C84    C     0.50103   0.38322   0.25053   0.00000  Uiso   1.00
C85    C     0.48758   0.09281   0.20672   0.00000  Uiso   1.00
C86    C     0.48499   0.40659   0.28929   0.00000  Uiso   1.00
C87    C     0.48766   0.04692   0.20702   0.00000  Uiso   1.00
C88    C     0.48516   0.45251   0.28925   0.00000  Uiso   1.00
C89    C     0.50205   0.02420   0.25057   0.00000  Uiso   1.00
C90    C     0.50215   0.47564   0.25082   0.00000  Uiso   1.00
Cu91   Cu    0.50000   0.24999   0.29821   0.00000  Uiso   1.00
Cu92   Cu    0.50000   0.25000   0.20178   0.00000  Uiso   1.00
H93    H     0.65911   0.24993   0.19374   0.00000  Uiso   1.00
H94    H     0.34089   0.25009   0.30628   0.00000  Uiso   1.00
H95    H     0.52829   0.03144   0.32780   0.00000  Uiso   1.00
H96    H     0.53308   0.46912   0.18279   0.00000  Uiso   1.00
H97    H     0.52634   0.11179   0.32751   0.00000  Uiso   1.00
H98    H     0.53101   0.38874   0.18206   0.00000  Uiso   1.00
H99    H     0.47630   0.10951   0.17273   0.00000  Uiso   1.00
H100   H     0.47151   0.38941   0.31920   0.00000  Uiso   1.00
H101   H     0.47577   0.02926   0.17326   0.00000  Uiso   1.00
H102   H     0.47127   0.46986   0.31891   0.00000  Uiso   1.00
H103   H     0.55079   0.30768   0.04448   0.00000  Uiso   1.00
H104   H     0.42942   0.21061   0.45304   0.00000  Uiso   1.00
H105   H     0.55197   0.30416   0.13204   0.00000  Uiso   1.00
H106   H     0.43351   0.20912   0.36624   0.00000  Uiso   1.00
H107   H     0.44705   0.19481   0.02876   0.00000  Uiso   1.00
H108   H     0.56806   0.29141   0.47312   0.00000  Uiso   1.00
N109   N     0.50000   0.25001   0.12934   0.00000  Uiso   1.00
N110   N     0.50000   0.24999   0.37065   0.00000  Uiso   1.00
O111   O     0.50000   0.18572   0.29071   0.00000  Uiso   1.00
O112   O     0.50000   0.31427   0.20928   0.00000  Uiso   1.00
O113   O     0.50000   0.18573   0.20928   0.00000  Uiso   1.00
O114   O     0.50000   0.31427   0.29072   0.00000  Uiso   1.00
O115   O     0.42495   0.24999   0.28132   0.00000  Uiso   1.00
O116   O     0.57505   0.25000   0.21868   0.00000  Uiso   1.00
O117   O     0.42495   0.25000   0.19988   0.00000  Uiso   1.00
O118   O     0.57505   0.25000   0.30011   0.00000  Uiso   1.00
N119   N     0.43736   0.19026   0.12134   0.00000  Uiso   1.00
H120   H     0.39919   0.19673   0.10674   0.00000  Uiso   1.00
H121   H     0.44577   0.15839   0.11037   0.00000  Uiso   1.00
N122   N     0.57369   0.29969   0.38001   0.00000  Uiso   1.00
H123   H     0.61041   0.28915   0.39494   0.00000  Uiso   1.00
H124   H     0.56994   0.33257   0.39054   0.00000  Uiso   1.00
C125   C     0.83358   0.16495   0.24993   0.00000  Uiso   1.00
C126   C     0.83359   0.33501   0.25018   0.00000  Uiso   1.00
C127   C     0.86182   0.28185   0.05842   0.00000  Uiso   1.00
C128   C     0.79438   0.22786   0.44028   0.00000  Uiso   1.00
C129   C     0.86221   0.28040   0.10901   0.00000  Uiso   1.00
C130   C     0.79605   0.22734   0.38997   0.00000  Uiso   1.00
C131   C     0.80321   0.22050   0.10034   0.00000  Uiso   1.00
C132   C     0.86975   0.27378   0.40043   0.00000  Uiso   1.00
C133   C     0.80325   0.21997   0.04969   0.00000  Uiso   1.00
C134   C     0.87052   0.27361   0.45119   0.00000  Uiso   1.00
C135   C     0.83252   0.25093   0.02729   0.00000  Uiso   1.00
C136   C     0.83240   0.25079   0.47250   0.00000  Uiso   1.00
C137   C     0.73457   0.24996   0.23753   0.00000  Uiso   1.00
C138   C     0.93209   0.25004   0.26248   0.00000  Uiso   1.00
C139   C     0.67924   0.24997   0.23071   0.00000  Uiso   1.00
C140   C     0.98743   0.25004   0.26931   0.00000  Uiso   1.00
C141   C     0.84946   0.04815   0.29386   0.00000  Uiso   1.00
C142   C     0.85218   0.45210   0.21239   0.00000  Uiso   1.00
C143   C     0.84861   0.09404   0.29365   0.00000  Uiso   1.00
C144   C     0.85124   0.40621   0.21207   0.00000  Uiso   1.00
C145   C     0.83438   0.11667   0.25004   0.00000  Uiso   1.00
C146   C     0.83436   0.38322   0.25053   0.00000  Uiso   1.00
C147   C     0.82092   0.09281   0.20672   0.00000  Uiso   1.00
C148   C     0.81832   0.40659   0.28929   0.00000  Uiso   1.00
C149   C     0.82099   0.04692   0.20702   0.00000  Uiso   1.00
C150   C     0.81849   0.45251   0.28925   0.00000  Uiso   1.00
C151   C     0.83539   0.02420   0.25057   0.00000  Uiso   1.00
C152   C     0.83548   0.47564   0.25082   0.00000  Uiso   1.00
Cu153  Cu    0.83333   0.24999   0.29821   0.00000  Uiso   1.00
Cu154  Cu    0.83333   0.25000   0.20178   0.00000  Uiso   1.00
H155   H     0.99244   0.24993   0.19374   0.00000  Uiso   1.00
H156   H     0.67422   0.25009   0.30628   0.00000  Uiso   1.00
H157   H     0.86162   0.03144   0.32780   0.00000  Uiso   1.00
H158   H     0.86641   0.46912   0.18279   0.00000  Uiso   1.00
H159   H     0.85967   0.11179   0.32751   0.00000  Uiso   1.00
H160   H     0.86434   0.38874   0.18206   0.00000  Uiso   1.00
H161   H     0.80963   0.10951   0.17273   0.00000  Uiso   1.00
H162   H     0.80485   0.38941   0.31920   0.00000  Uiso   1.00
H163   H     0.80910   0.02926   0.17326   0.00000  Uiso   1.00
H164   H     0.80460   0.46986   0.31891   0.00000  Uiso   1.00
H165   H     0.88412   0.30768   0.04448   0.00000  Uiso   1.00
H166   H     0.76275   0.21061   0.45304   0.00000  Uiso   1.00
H167   H     0.88530   0.30416   0.13204   0.00000  Uiso   1.00
H168   H     0.76685   0.20912   0.36624   0.00000  Uiso   1.00
H169   H     0.78039   0.19481   0.02876   0.00000  Uiso   1.00
H170   H     0.90139   0.29141   0.47312   0.00000  Uiso   1.00
N171   N     0.83333   0.25001   0.12934   0.00000  Uiso   1.00
N172   N     0.83333   0.24999   0.37065   0.00000  Uiso   1.00
O173   O     0.83334   0.18572   0.29071   0.00000  Uiso   1.00
O174   O     0.83333   0.31427   0.20928   0.00000  Uiso   1.00
O175   O     0.83334   0.18573   0.20928   0.00000  Uiso   1.00
O176   O     0.83333   0.31427   0.29072   0.00000  Uiso   1.00
O177   O     0.75828   0.24999   0.28132   0.00000  Uiso   1.00
O178   O     0.90839   0.25000   0.21868   0.00000  Uiso   1.00
O179   O     0.75828   0.25000   0.19988   0.00000  Uiso   1.00
O180   O     0.90839   0.25000   0.30011   0.00000  Uiso   1.00
N181   N     0.77070   0.19026   0.12134   0.00000  Uiso   1.00
H182   H     0.73252   0.19673   0.10674   0.00000  Uiso   1.00
H183   H     0.77910   0.15839   0.11037   0.00000  Uiso   1.00
N184   N     0.90702   0.29969   0.38001   0.00000  Uiso   1.00
H185   H     0.94374   0.28915   0.39494   0.00000  Uiso   1.00
H186   H     0.90327   0.33257   0.39054   0.00000  Uiso   1.00
C187   C     0.16691   0.66495   0.24993   0.00000  Uiso   1.00
C188   C     0.16693   0.83501   0.25018   0.00000  Uiso   1.00
C189   C     0.19515   0.78185   0.05842   0.00000  Uiso   1.00
C190   C     0.12772   0.72786   0.44028   0.00000  Uiso   1.00
C191   C     0.19554   0.78040   0.10901   0.00000  Uiso   1.00
C192   C     0.12939   0.72734   0.38997   0.00000  Uiso   1.00
C193   C     0.13654   0.72050   0.10034   0.00000  Uiso   1.00
C194   C     0.20309   0.77378   0.40043   0.00000  Uiso   1.00
C195   C     0.13658   0.71997   0.04969   0.00000  Uiso   1.00
C196   C     0.20385   0.77361   0.45119   0.00000  Uiso   1.00
C197   C     0.16585   0.75093   0.02729   0.00000  Uiso   1.00
C198   C     0.16574   0.75079   0.47250   0.00000  Uiso   1.00
C199   C     0.06791   0.74996   0.23753   0.00000  Uiso   1.00
C200   C     0.26543   0.75004   0.26248   0.00000  Uiso   1.00
C201   C     0.01257   0.74997   0.23071   0.00000  Uiso   1.00
C202   C     0.32077   0.75004   0.26931   0.00000  Uiso   1.00
C203   C     0.18279   0.54815   0.29386   0.00000  Uiso   1.00
C204   C     0.18551   0.95210   0.21239   0.00000  Uiso   1.00
C205   C     0.18194   0.59404   0.29365   0.00000  Uiso   1.00
C206   C     0.18457   0.90621   0.21207   0.00000  Uiso   1.00
C207   C     0.16772   0.61667   0.25004   0.00000  Uiso   1.00
C208   C     0.16769   0.88322   0.25053   0.00000  Uiso   1.00
C209   C     0.15425   0.59281   0.20672   0.00000  Uiso   1.00
C210   C     0.15165   0.90659   0.28929   0.00000  Uiso   1.00
C211   C     0.15432   0.54692   0.20702   0.00000  Uiso   1.00
C212   C     0.15183   0.95251   0.28925   0.00000  Uiso   1.00
C213   C     0.16872   0.52420   0.25057   0.00000  Uiso   1.00
C214   C     0.16881   0.97564   0.25082   0.00000  Uiso   1.00
Cu215  Cu    0.16667   0.74999   0.29821   0.00000  Uiso   1.00
Cu216  Cu    0.16667   0.75000   0.20178   0.00000  Uiso   1.00
H217   H     0.32578   0.74993   0.19374   0.00000  Uiso   1.00
H218   H     0.00755   0.75009   0.30628   0.00000  Uiso   1.00
H219   H     0.19496   0.53144   0.32780   0.00000  Uiso   1.00
H220   H     0.19974   0.96912   0.18279   0.00000  Uiso   1.00
H221   H     0.19301   0.61179   0.32751   0.00000  Uiso   1.00
H222   H     0.19767   0.88874   0.18206   0.00000  Uiso   1.00
H223   H     0.14296   0.60951   0.17273   0.00000  Uiso   1.00
H224   H     0.13818   0.88941   0.31920   0.00000  Uiso   1.00
H225   H     0.14243   0.52926   0.17326   0.00000  Uiso   1.00
H226   H     0.13793   0.96986   0.31891   0.00000  Uiso   1.00
H227   H     0.21746   0.80768   0.04448   0.00000  Uiso   1.00
H228   H     0.09608   0.71061   0.45304   0.00000  Uiso   1.00
H229   H     0.21864   0.80416   0.13204   0.00000  Uiso   1.00
H230   H     0.10018   0.70912   0.36624   0.00000  Uiso   1.00
H231   H     0.11372   0.69481   0.02876   0.00000  Uiso   1.00
H232   H     0.23473   0.79141   0.47312   0.00000  Uiso   1.00
N233   N     0.16667   0.75001   0.12934   0.00000  Uiso   1.00
N234   N     0.16667   0.74999   0.37065   0.00000  Uiso   1.00
O235   O     0.16667   0.68572   0.29071   0.00000  Uiso   1.00
O236   O     0.16666   0.81427   0.20928   0.00000  Uiso   1.00
O237   O     0.16667   0.68573   0.20928   0.00000  Uiso   1.00
O238   O     0.16666   0.81427   0.29072   0.00000  Uiso   1.00
O239   O     0.09161   0.74999   0.28132   0.00000  Uiso   1.00
O240   O     0.24172   0.75000   0.21868   0.00000  Uiso   1.00
O241   O     0.09161   0.75000   0.19988   0.00000  Uiso   1.00
O242   O     0.24172   0.75000   0.30011   0.00000  Uiso   1.00
N243   N     0.10403   0.69026   0.12134   0.00000  Uiso   1.00
H244   H     0.06585   0.69673   0.10674   0.00000  Uiso   1.00
H245   H     0.11243   0.65839   0.11037   0.00000  Uiso   1.00
N246   N     0.24036   0.79969   0.38001   0.00000  Uiso   1.00
H247   H     0.27707   0.78915   0.39494   0.00000  Uiso   1.00
H248   H     0.23661   0.83257   0.39054   0.00000  Uiso   1.00
C249   C     0.50025   0.66495   0.24993   0.00000  Uiso   1.00
C250   C     0.50026   0.83501   0.25018   0.00000  Uiso   1.00
C251   C     0.52848   0.78185   0.05842   0.00000  Uiso   1.00
C252   C     0.46105   0.72786   0.44028   0.00000  Uiso   1.00
C253   C     0.52888   0.78040   0.10901   0.00000  Uiso   1.00
C254   C     0.46272   0.72734   0.38997   0.00000  Uiso   1.00
C255   C     0.46988   0.72050   0.10034   0.00000  Uiso   1.00
C256   C     0.53642   0.77378   0.40043   0.00000  Uiso   1.00
C257   C     0.46992   0.71997   0.04969   0.00000  Uiso   1.00
C258   C     0.53718   0.77361   0.45119   0.00000  Uiso   1.00
C259   C     0.49919   0.75093   0.02729   0.00000  Uiso   1.00
C260   C     0.49907   0.75079   0.47250   0.00000  Uiso   1.00
C261   C     0.40124   0.74996   0.23753   0.00000  Uiso   1.00
C262   C     0.59876   0.75004   0.26248   0.00000  Uiso   1.00
C263   C     0.34590   0.74997   0.23071   0.00000  Uiso   1.00
C264   C     0.65410   0.75004   0.26931   0.00000  Uiso   1.00
C265   C     0.51613   0.54815   0.29386   0.00000  Uiso   1.00
C266   C     0.51885   0.95210   0.21239   0.00000  Uiso   1.00
C267   C     0.51528   0.59404   0.29365   0.00000  Uiso   1.00
C268   C     0.51791   0.90621   0.21207   0.00000  Uiso   1.00
C269   C     0.50105   0.61667   0.25004   0.00000  Uiso   1.00
C270   C     0.50103   0.88322   0.25053   0.00000  Uiso   1.00
C271   C     0.48758   0.59281   0.20672   0.00000  Uiso   1.00
C272   C     0.48499   0.90659   0.28929   0.00000  Uiso   1.00
C273   C     0.48766   0.54692   0.20702   0.00000  Uiso   1.00
C274   C     0.48516   0.95251   0.28925   0.00000  Uiso   1.00
C275   C     0.50205   0.52420   0.25057   0.00000  Uiso   1.00
C276   C     0.50215   0.97564   0.25082   0.00000  Uiso   1.00
Cu277  Cu    0.50000   0.74999   0.29821   0.00000  Uiso   1.00
Cu278  Cu    0.50000   0.75000   0.20178   0.00000  Uiso   1.00
H279   H     0.65911   0.74993   0.19374   0.00000  Uiso   1.00
H280   H     0.34089   0.75009   0.30628   0.00000  Uiso   1.00
H281   H     0.52829   0.53144   0.32780   0.00000  Uiso   1.00
H282   H     0.53308   0.96912   0.18279   0.00000  Uiso   1.00
H283   H     0.52634   0.61179   0.32751   0.00000  Uiso   1.00
H284   H     0.53101   0.88874   0.18206   0.00000  Uiso   1.00
H285   H     0.47630   0.60951   0.17273   0.00000  Uiso   1.00
H286   H     0.47151   0.88941   0.31920   0.00000  Uiso   1.00
H287   H     0.47577   0.52926   0.17326   0.00000  Uiso   1.00
H288   H     0.47127   0.96986   0.31891   0.00000  Uiso   1.00
H289   H     0.55079   0.80768   0.04448   0.00000  Uiso   1.00
H290   H     0.42942   0.71061   0.45304   0.00000  Uiso   1.00
H291   H     0.55197   0.80416   0.13204   0.00000  Uiso   1.00
H292   H     0.43351   0.70912   0.36624   0.00000  Uiso   1.00
H293   H     0.44705   0.69481   0.02876   0.00000  Uiso   1.00
H294   H     0.56806   0.79141   0.47312   0.00000  Uiso   1.00
N295   N     0.50000   0.75001   0.12934   0.00000  Uiso   1.00
N296   N     0.50000   0.74999   0.37065   0.00000  Uiso   1.00
O297   O     0.50000   0.68572   0.29071   0.00000  Uiso   1.00
O298   O     0.50000   0.81427   0.20928   0.00000  Uiso   1.00
O299   O     0.50000   0.68573   0.20928   0.00000  Uiso   1.00
O300   O     0.50000   0.81427   0.29072   0.00000  Uiso   1.00
O301   O     0.42495   0.74999   0.28132   0.00000  Uiso   1.00
O302   O     0.57505   0.75000   0.21868   0.00000  Uiso   1.00
O303   O     0.42495   0.75000   0.19988   0.00000  Uiso   1.00
O304   O     0.57505   0.75000   0.30011   0.00000  Uiso   1.00
N305   N     0.43736   0.69026   0.12134   0.00000  Uiso   1.00
H306   H     0.39919   0.69673   0.10674   0.00000  Uiso   1.00
H307   H     0.44577   0.65839   0.11037   0.00000  Uiso   1.00
N308   N     0.57369   0.79969   0.38001   0.00000  Uiso   1.00
H309   H     0.61041   0.78915   0.39494   0.00000  Uiso   1.00
H310   H     0.56994   0.83257   0.39054   0.00000  Uiso   1.00
C311   C     0.83358   0.66495   0.24993   0.00000  Uiso   1.00
C312   C     0.83359   0.83501   0.25018   0.00000  Uiso   1.00
C313   C     0.86182   0.78185   0.05842   0.00000  Uiso   1.00
C314   C     0.79438   0.72786   0.44028   0.00000  Uiso   1.00
C315   C     0.86221   0.78040   0.10901   0.00000  Uiso   1.00
C316   C     0.79605   0.72734   0.38997   0.00000  Uiso   1.00
C317   C     0.80321   0.72050   0.10034   0.00000  Uiso   1.00
C318   C     0.86975   0.77378   0.40043   0.00000  Uiso   1.00
C319   C     0.80325   0.71997   0.04969   0.00000  Uiso   1.00
C320   C     0.87052   0.77361   0.45119   0.00000  Uiso   1.00
C321   C     0.83252   0.75093   0.02729   0.00000  Uiso   1.00
C322   C     0.83240   0.75079   0.47250   0.00000  Uiso   1.00
C323   C     0.73457   0.74996   0.23753   0.00000  Uiso   1.00
C324   C     0.93209   0.75004   0.26248   0.00000  Uiso   1.00
C325   C     0.67924   0.74997   0.23071   0.00000  Uiso   1.00
C326   C     0.98743   0.75004   0.26931   0.00000  Uiso   1.00
C327   C     0.84946   0.54815   0.29386   0.00000  Uiso   1.00
C328   C     0.85218   0.95210   0.21239   0.00000  Uiso   1.00
C329   C     0.84861   0.59404   0.29365   0.00000  Uiso   1.00
C330   C     0.85124   0.90621   0.21207   0.00000  Uiso   1.00
C331   C     0.83438   0.61667   0.25004   0.00000  Uiso   1.00
C332   C     0.83436   0.88322   0.25053   0.00000  Uiso   1.00
C333   C     0.82092   0.59281   0.20672   0.00000  Uiso   1.00
C334   C     0.81832   0.90659   0.28929   0.00000  Uiso   1.00
C335   C     0.82099   0.54692   0.20702   0.00000  Uiso   1.00
C336   C     0.81849   0.95251   0.28925   0.00000  Uiso   1.00
C337   C     0.83539   0.52420   0.25057   0.00000  Uiso   1.00
C338   C     0.83548   0.97564   0.25082   0.00000  Uiso   1.00
Cu339  Cu    0.83333   0.74999   0.29821   0.00000  Uiso   1.00
Cu340  Cu    0.83333   0.75000   0.20178   0.00000  Uiso   1.00
H341   H     0.99244   0.74993   0.19374   0.00000  Uiso   1.00
H342   H     0.67422   0.75009   0.30628   0.00000  Uiso   1.00
H343   H     0.86162   0.53144   0.32780   0.00000  Uiso   1.00
H344   H     0.86641   0.96912   0.18279   0.00000  Uiso   1.00
H345   H     0.85967   0.61179   0.32751   0.00000  Uiso   1.00
H346   H     0.86434   0.88874   0.18206   0.00000  Uiso   1.00
H347   H     0.80963   0.60951   0.17273   0.00000  Uiso   1.00
H348   H     0.80485   0.88941   0.31920   0.00000  Uiso   1.00
H349   H     0.80910   0.52926   0.17326   0.00000  Uiso   1.00
H350   H     0.80460   0.96986   0.31891   0.00000  Uiso   1.00
H351   H     0.88412   0.80768   0.04448   0.00000  Uiso   1.00
H352   H     0.76275   0.71061   0.45304   0.00000  Uiso   1.00
H353   H     0.88530   0.80416   0.13204   0.00000  Uiso   1.00
H354   H     0.76685   0.70912   0.36624   0.00000  Uiso   1.00
H355   H     0.78039   0.69481   0.02876   0.00000  Uiso   1.00
H356   H     0.90139   0.79141   0.47312   0.00000  Uiso   1.00
N357   N     0.83333   0.75001   0.12934   0.00000  Uiso   1.00
N358   N     0.83333   0.74999   0.37065   0.00000  Uiso   1.00
O359   O     0.83334   0.68572   0.29071   0.00000  Uiso   1.00
O360   O     0.83333   0.81427   0.20928   0.00000  Uiso   1.00
O361   O     0.83334   0.68573   0.20928   0.00000  Uiso   1.00
O362   O     0.83333   0.81427   0.29072   0.00000  Uiso   1.00
O363   O     0.75828   0.74999   0.28132   0.00000  Uiso   1.00
O364   O     0.90839   0.75000   0.21868   0.00000  Uiso   1.00
O365   O     0.75828   0.75000   0.19988   0.00000  Uiso   1.00
O366   O     0.90839   0.75000   0.30011   0.00000  Uiso   1.00
N367   N     0.77070   0.69026   0.12134   0.00000  Uiso   1.00
H368   H     0.73252   0.69673   0.10674   0.00000  Uiso   1.00
H369   H     0.77910   0.65839   0.11037   0.00000  Uiso   1.00
N370   N     0.90702   0.79969   0.38001   0.00000  Uiso   1.00
H371   H     0.94374   0.78915   0.39494   0.00000  Uiso   1.00
H372   H     0.90327   0.83257   0.39054   0.00000  Uiso   1.00
C373   C     0.16691   0.16495   0.74993   0.00000  Uiso   1.00
C374   C     0.16693   0.33501   0.75018   0.00000  Uiso   1.00
C375   C     0.19515   0.28185   0.55842   0.00000  Uiso   1.00
C376   C     0.12772   0.22786   0.94028   0.00000  Uiso   1.00
C377   C     0.19554   0.28040   0.60901   0.00000  Uiso   1.00
C378   C     0.12939   0.22734   0.88997   0.00000  Uiso   1.00
C379   C     0.13654   0.22050   0.60034   0.00000  Uiso   1.00
C380   C     0.20309   0.27378   0.90043   0.00000  Uiso   1.00
C381   C     0.13658   0.21997   0.54969   0.00000  Uiso   1.00
C382   C     0.20385   0.27361   0.95119   0.00000  Uiso   1.00
C383   C     0.16585   0.25093   0.52729   0.00000  Uiso   1.00
C384   C     0.16574   0.25079   0.97250   0.00000  Uiso   1.00
C385   C     0.06791   0.24996   0.73753   0.00000  Uiso   1.00
C386   C     0.26543   0.25004   0.76248   0.00000  Uiso   1.00
C387   C     0.01257   0.24997   0.73071   0.00000  Uiso   1.00
C388   C     0.32077   0.25004   0.76931   0.00000  Uiso   1.00
C389   C     0.18279   0.04815   0.79386   0.00000  Uiso   1.00
C390   C     0.18551   0.45210   0.71239   0.00000  Uiso   1.00
C391   C     0.18194   0.09404   0.79365   0.00000  Uiso   1.00
C392   C     0.18457   0.40621   0.71207   0.00000  Uiso   1.00
C393   C     0.16772   0.11667   0.75004   0.00000  Uiso   1.00
C394   C     0.16769   0.38322   0.75053   0.00000  Uiso   1.00
C395   C     0.15425   0.09281   0.70672   0.00000  Uiso   1.00
C396   C     0.15165   0.40659   0.78929   0.00000  Uiso   1.00
C397   C     0.15432   0.04692   0.70702   0.00000  Uiso   1.00
C398   C     0.15183   0.45251   0.78925   0.00000  Uiso   1.00
C399   C     0.16872   0.02420   0.75057   0.00000  Uiso   1.00
C400   C     0.16881   0.47564   0.75082   0.00000  Uiso   1.00
Cu401  Cu    0.16667   0.24999   0.79821   0.00000  Uiso   1.00
Cu402  Cu    0.16667   0.25000   0.70178   0.00000  Uiso   1.00
H403   H     0.32578   0.24993   0.69374   0.00000  Uiso   1.00
H404   H     0.00755   0.25009   0.80628   0.00000  Uiso   1.00
H405   H     0.19496   0.03144   0.82780   0.00000  Uiso   1.00
H406   H     0.19974   0.46912   0.68279   0.00000  Uiso   1.00
H407   H     0.19301   0.11179   0.82751   0.00000  Uiso   1.00
H408   H     0.19767   0.38874   0.68206   0.00000  Uiso   1.00
H409   H     0.14296   0.10951   0.67273   0.00000  Uiso   1.00
H410   H     0.13818   0.38941   0.81920   0.00000  Uiso   1.00
H411   H     0.14243   0.02926   0.67326   0.00000  Uiso   1.00
H412   H     0.13793   0.46986   0.81891   0.00000  Uiso   1.00
H413   H     0.21746   0.30768   0.54448   0.00000  Uiso   1.00
H414   H     0.09608   0.21061   0.95304   0.00000  Uiso   1.00
H415   H     0.21864   0.30416   0.63204   0.00000  Uiso   1.00
H416   H     0.10018   0.20912   0.86624   0.00000  Uiso   1.00
H417   H     0.11372   0.19481   0.52876   0.00000  Uiso   1.00
H418   H     0.23473   0.29141   0.97312   0.00000  Uiso   1.00
N419   N     0.16667   0.25001   0.62934   0.00000  Uiso   1.00
N420   N     0.16667   0.24999   0.87065   0.00000  Uiso   1.00
O421   O     0.16667   0.18572   0.79071   0.00000  Uiso   1.00
O422   O     0.16666   0.31427   0.70928   0.00000  Uiso   1.00
O423   O     0.16667   0.18573   0.70928   0.00000  Uiso   1.00
O424   O     0.16666   0.31427   0.79072   0.00000  Uiso   1.00
O425   O     0.09161   0.24999   0.78132   0.00000  Uiso   1.00
O426   O     0.24172   0.25000   0.71868   0.00000  Uiso   1.00
O427   O     0.09161   0.25000   0.69988   0.00000  Uiso   1.00
O428   O     0.24172   0.25000   0.80011   0.00000  Uiso   1.00
N429   N     0.10403   0.19026   0.62134   0.00000  Uiso   1.00
H430   H     0.06585   0.19673   0.60674   0.00000  Uiso   1.00
H431   H     0.11243   0.15839   0.61037   0.00000  Uiso   1.00
N432   N     0.24036   0.29969   0.88001   0.00000  Uiso   1.00
H433   H     0.27707   0.28915   0.89494   0.00000  Uiso   1.00
H434   H     0.23661   0.33257   0.89054   0.00000  Uiso   1.00
C435   C     0.50025   0.16495   0.74993   0.00000  Uiso   1.00
C436   C     0.50026   0.33501   0.75018   0.00000  Uiso   1.00
C437   C     0.52848   0.28185   0.55842   0.00000  Uiso   1.00
C438   C     0.46105   0.22786   0.94028   0.00000  Uiso   1.00
C439   C     0.52888   0.28040   0.60901   0.00000  Uiso   1.00
C440   C     0.46272   0.22734   0.88997   0.00000  Uiso   1.00
C441   C     0.46988   0.22050   0.60034   0.00000  Uiso   1.00
C442   C     0.53642   0.27378   0.90043   0.00000  Uiso   1.00
C443   C     0.46992   0.21997   0.54969   0.00000  Uiso   1.00
C444   C     0.53718   0.27361   0.95119   0.00000  Uiso   1.00
C445   C     0.49919   0.25093   0.52729   0.00000  Uiso   1.00
C446   C     0.49907   0.25079   0.97250   0.00000  Uiso   1.00
C447   C     0.40124   0.24996   0.73753   0.00000  Uiso   1.00
C448   C     0.59876   0.25004   0.76248   0.00000  Uiso   1.00
C449   C     0.34590   0.24997   0.73071   0.00000  Uiso   1.00
C450   C     0.65410   0.25004   0.76931   0.00000  Uiso   1.00
C451   C     0.51613   0.04815   0.79386   0.00000  Uiso   1.00
C452   C     0.51885   0.45210   0.71239   0.00000  Uiso   1.00
C453   C     0.51528   0.09404   0.79365   0.00000  Uiso   1.00
C454   C     0.51791   0.40621   0.71207   0.00000  Uiso   1.00
C455   C     0.50105   0.11667   0.75004   0.00000  Uiso   1.00
C456   C     0.50103   0.38322   0.75053   0.00000  Uiso   1.00
C457   C     0.48758   0.09281   0.70672   0.00000  Uiso   1.00
C458   C     0.48499   0.40659   0.78929   0.00000  Uiso   1.00
C459   C     0.48766   0.04692   0.70702   0.00000  Uiso   1.00
C460   C     0.48516   0.45251   0.78925   0.00000  Uiso   1.00
C461   C     0.50205   0.02420   0.75057   0.00000  Uiso   1.00
C462   C     0.50215   0.47564   0.75082   0.00000  Uiso   1.00
Cu463  Cu    0.50000   0.24999   0.79821   0.00000  Uiso   1.00
Cu464  Cu    0.50000   0.25000   0.70178   0.00000  Uiso   1.00
H465   H     0.65911   0.24993   0.69374   0.00000  Uiso   1.00
H466   H     0.34089   0.25009   0.80628   0.00000  Uiso   1.00
H467   H     0.52829   0.03144   0.82780   0.00000  Uiso   1.00
H468   H     0.53308   0.46912   0.68279   0.00000  Uiso   1.00
H469   H     0.52634   0.11179   0.82751   0.00000  Uiso   1.00
H470   H     0.53101   0.38874   0.68206   0.00000  Uiso   1.00
H471   H     0.47630   0.10951   0.67273   0.00000  Uiso   1.00
H472   H     0.47151   0.38941   0.81920   0.00000  Uiso   1.00
H473   H     0.47577   0.02926   0.67326   0.00000  Uiso   1.00
H474   H     0.47127   0.46986   0.81891   0.00000  Uiso   1.00
H475   H     0.55079   0.30768   0.54448   0.00000  Uiso   1.00
H476   H     0.42942   0.21061   0.95304   0.00000  Uiso   1.00
H477   H     0.55197   0.30416   0.63204   0.00000  Uiso   1.00
H478   H     0.43351   0.20912   0.86624   0.00000  Uiso   1.00
H479   H     0.44705   0.19481   0.52876   0.00000  Uiso   1.00
H480   H     0.56806   0.29141   0.97312   0.00000  Uiso   1.00
N481   N     0.50000   0.25001   0.62934   0.00000  Uiso   1.00
N482   N     0.50000   0.24999   0.87065   0.00000  Uiso   1.00
O483   O     0.50000   0.18572   0.79071   0.00000  Uiso   1.00
O484   O     0.50000   0.31427   0.70928   0.00000  Uiso   1.00
O485   O     0.50000   0.18573   0.70928   0.00000  Uiso   1.00
O486   O     0.50000   0.31427   0.79072   0.00000  Uiso   1.00
O487   O     0.42495   0.24999   0.78132   0.00000  Uiso   1.00
O488   O     0.57505   0.25000   0.71868   0.00000  Uiso   1.00
O489   O     0.42495   0.25000   0.69988   0.00000  Uiso   1.00
O490   O     0.57505   0.25000   0.80011   0.00000  Uiso   1.00
N491   N     0.43736   0.19026   0.62134   0.00000  Uiso   1.00
H492   H     0.39919   0.19673   0.60674   0.00000  Uiso   1.00
H493   H     0.44577   0.15839   0.61037   0.00000  Uiso   1.00
N494   N     0.57369   0.29969   0.88001   0.00000  Uiso   1.00
H495   H     0.61041   0.28915   0.89494   0.00000  Uiso   1.00
H496   H     0.56994   0.33257   0.89054   0.00000  Uiso   1.00
C497   C     0.83358   0.16495   0.74993   0.00000  Uiso   1.00
C498   C     0.83359   0.33501   0.75018   0.00000  Uiso   1.00
C499   C     0.86182   0.28185   0.55842   0.00000  Uiso   1.00
C500   C     0.79438   0.22786   0.94028   0.00000  Uiso   1.00
C501   C     0.86221   0.28040   0.60901   0.00000  Uiso   1.00
C502   C     0.79605   0.22734   0.88997   0.00000  Uiso   1.00
C503   C     0.80321   0.22050   0.60034   0.00000  Uiso   1.00
C504   C     0.86975   0.27378   0.90043   0.00000  Uiso   1.00
C505   C     0.80325   0.21997   0.54969   0.00000  Uiso   1.00
C506   C     0.87052   0.27361   0.95119   0.00000  Uiso   1.00
C507   C     0.83252   0.25093   0.52729   0.00000  Uiso   1.00
C508   C     0.83240   0.25079   0.97250   0.00000  Uiso   1.00
C509   C     0.73457   0.24996   0.73753   0.00000  Uiso   1.00
C510   C     0.93209   0.25004   0.76248   0.00000  Uiso   1.00
C511   C     0.67924   0.24997   0.73071   0.00000  Uiso   1.00
C512   C     0.98743   0.25004   0.76931   0.00000  Uiso   1.00
C513   C     0.84946   0.04815   0.79386   0.00000  Uiso   1.00
C514   C     0.85218   0.45210   0.71239   0.00000  Uiso   1.00
C515   C     0.84861   0.09404   0.79365   0.00000  Uiso   1.00
C516   C     0.85124   0.40621   0.71207   0.00000  Uiso   1.00
C517   C     0.83438   0.11667   0.75004   0.00000  Uiso   1.00
C518   C     0.83436   0.38322   0.75053   0.00000  Uiso   1.00
C519   C     0.82092   0.09281   0.70672   0.00000  Uiso   1.00
C520   C     0.81832   0.40659   0.78929   0.00000  Uiso   1.00
C521   C     0.82099   0.04692   0.70702   0.00000  Uiso   1.00
C522   C     0.81849   0.45251   0.78925   0.00000  Uiso   1.00
C523   C     0.83539   0.02420   0.75057   0.00000  Uiso   1.00
C524   C     0.83548   0.47564   0.75082   0.00000  Uiso   1.00
Cu525  Cu    0.83333   0.24999   0.79821   0.00000  Uiso   1.00
Cu526  Cu    0.83333   0.25000   0.70178   0.00000  Uiso   1.00
H527   H     0.99244   0.24993   0.69374   0.00000  Uiso   1.00
H528   H     0.67422   0.25009   0.80628   0.00000  Uiso   1.00
H529   H     0.86162   0.03144   0.82780   0.00000  Uiso   1.00
H530   H     0.86641   0.46912   0.68279   0.00000  Uiso   1.00
H531   H     0.85967   0.11179   0.82751   0.00000  Uiso   1.00
H532   H     0.86434   0.38874   0.68206   0.00000  Uiso   1.00
H533   H     0.80963   0.10951   0.67273   0.00000  Uiso   1.00
H534   H     0.80485   0.38941   0.81920   0.00000  Uiso   1.00
H535   H     0.80910   0.02926   0.67326   0.00000  Uiso   1.00
H536   H     0.80460   0.46986   0.81891   0.00000  Uiso   1.00
H537   H     0.88412   0.30768   0.54448   0.00000  Uiso   1.00
H538   H     0.76275   0.21061   0.95304   0.00000  Uiso   1.00
H539   H     0.88530   0.30416   0.63204   0.00000  Uiso   1.00
H540   H     0.76685   0.20912   0.86624   0.00000  Uiso   1.00
H541   H     0.78039   0.19481   0.52876   0.00000  Uiso   1.00
H542   H     0.90139   0.29141   0.97312   0.00000  Uiso   1.00
N543   N     0.83333   0.25001   0.62934   0.00000  Uiso   1.00
N544   N     0.83333   0.24999   0.87065   0.00000  Uiso   1.00
O545   O     0.83334   0.18572   0.79071   0.00000  Uiso   1.00
O546   O     0.83333   0.31427   0.70928   0.00000  Uiso   1.00
O547   O     0.83334   0.18573   0.70928   0.00000  Uiso   1.00
O548   O     0.83333   0.31427   0.79072   0.00000  Uiso   1.00
O549   O     0.75828   0.24999   0.78132   0.00000  Uiso   1.00
O550   O     0.90839   0.25000   0.71868   0.00000  Uiso   1.00
O551   O     0.75828   0.25000   0.69988   0.00000  Uiso   1.00
O552   O     0.90839   0.25000   0.80011   0.00000  Uiso   1.00
N553   N     0.77070   0.19026   0.62134   0.00000  Uiso   1.00
H554   H     0.73252   0.19673   0.60674   0.00000  Uiso   1.00
H555   H     0.77910   0.15839   0.61037   0.00000  Uiso   1.00
N556   N     0.90702   0.29969   0.88001   0.00000  Uiso   1.00
H557   H     0.94374   0.28915   0.89494   0.00000  Uiso   1.00
H558   H     0.90327   0.33257   0.89054   0.00000  Uiso   1.00
C559   C     0.16691   0.66495   0.74993   0.00000  Uiso   1.00
C560   C     0.16693   0.83501   0.75018   0.00000  Uiso   1.00
C561   C     0.19515   0.78185   0.55842   0.00000  Uiso   1.00
C562   C     0.12772   0.72786   0.94028   0.00000  Uiso   1.00
C563   C     0.19554   0.78040   0.60901   0.00000  Uiso   1.00
C564   C     0.12939   0.72734   0.88997   0.00000  Uiso   1.00
C565   C     0.13654   0.72050   0.60034   0.00000  Uiso   1.00
C566   C     0.20309   0.77378   0.90043   0.00000  Uiso   1.00
C567   C     0.13658   0.71997   0.54969   0.00000  Uiso   1.00
C568   C     0.20385   0.77361   0.95119   0.00000  Uiso   1.00
C569   C     0.16585   0.75093   0.52729   0.00000  Uiso   1.00
C570   C     0.16574   0.75079   0.97250   0.00000  Uiso   1.00
C571   C     0.06791   0.74996   0.73753   0.00000  Uiso   1.00
C572   C     0.26543   0.75004   0.76248   0.00000  Uiso   1.00
C573   C     0.01257   0.74997   0.73071   0.00000  Uiso   1.00
C574   C     0.32077   0.75004   0.76931   0.00000  Uiso   1.00
C575   C     0.18279   0.54815   0.79386   0.00000  Uiso   1.00
C576   C     0.18551   0.95210   0.71239   0.00000  Uiso   1.00
C577   C     0.18194   0.59404   0.79365   0.00000  Uiso   1.00
C578   C     0.18457   0.90621   0.71207   0.00000  Uiso   1.00
C579   C     0.16772   0.61667   0.75004   0.00000  Uiso   1.00
C580   C     0.16769   0.88322   0.75053   0.00000  Uiso   1.00
C581   C     0.15425   0.59281   0.70672   0.00000  Uiso   1.00
C582   C     0.15165   0.90659   0.78929   0.00000  Uiso   1.00
C583   C     0.15432   0.54692   0.70702   0.00000  Uiso   1.00
C584   C     0.15183   0.95251   0.78925   0.00000  Uiso   1.00
C585   C     0.16872   0.52420   0.75057   0.00000  Uiso   1.00
C586   C     0.16881   0.97564   0.75082   0.00000  Uiso   1.00
Cu587  Cu    0.16667   0.74999   0.79821   0.00000  Uiso   1.00
Cu588  Cu    0.16667   0.75000   0.70178   0.00000  Uiso   1.00
H589   H     0.32578   0.74993   0.69374   0.00000  Uiso   1.00
H590   H     0.00755   0.75009   0.80628   0.00000  Uiso   1.00
H591   H     0.19496   0.53144   0.82780   0.00000  Uiso   1.00
H592   H     0.19974   0.96912   0.68279   0.00000  Uiso   1.00
H593   H     0.19301   0.61179   0.82751   0.00000  Uiso   1.00
H594   H     0.19767   0.88874   0.68206   0.00000  Uiso   1.00
H595   H     0.14296   0.60951   0.67273   0.00000  Uiso   1.00
H596   H     0.13818   0.88941   0.81920   0.00000  Uiso   1.00
H597   H     0.14243   0.52926   0.67326   0.00000  Uiso   1.00
H598   H     0.13793   0.96986   0.81891   0.00000  Uiso   1.00
H599   H     0.21746   0.80768   0.54448   0.00000  Uiso   1.00
H600   H     0.09608   0.71061   0.95304   0.00000  Uiso   1.00
H601   H     0.21864   0.80416   0.63204   0.00000  Uiso   1.00
H602   H     0.10018   0.70912   0.86624   0.00000  Uiso   1.00
H603   H     0.11372   0.69481   0.52876   0.00000  Uiso   1.00
H604   H     0.23473   0.79141   0.97312   0.00000  Uiso   1.00
N605   N     0.16667   0.75001   0.62934   0.00000  Uiso   1.00
N606   N     0.16667   0.74999   0.87065   0.00000  Uiso   1.00
O607   O     0.16667   0.68572   0.79071   0.00000  Uiso   1.00
O608   O     0.16666   0.81427   0.70928   0.00000  Uiso   1.00
O609   O     0.16667   0.68573   0.70928   0.00000  Uiso   1.00
O610   O     0.16666   0.81427   0.79072   0.00000  Uiso   1.00
O611   O     0.09161   0.74999   0.78132   0.00000  Uiso   1.00
O612   O     0.24172   0.75000   0.71868   0.00000  Uiso   1.00
O613   O     0.09161   0.75000   0.69988   0.00000  Uiso   1.00
O614   O     0.24172   0.75000   0.80011   0.00000  Uiso   1.00
N615   N     0.10403   0.69026   0.62134   0.00000  Uiso   1.00
H616   H     0.06585   0.69673   0.60674   0.00000  Uiso   1.00
H617   H     0.11243   0.65839   0.61037   0.00000  Uiso   1.00
N618   N     0.24036   0.79969   0.88001   0.00000  Uiso   1.00
H619   H     0.27707   0.78915   0.89494   0.00000  Uiso   1.00
H620   H     0.23661   0.83257   0.89054   0.00000  Uiso   1.00
C621   C     0.50025   0.66495   0.74993   0.00000  Uiso   1.00
C622   C     0.50026   0.83501   0.75018   0.00000  Uiso   1.00
C623   C     0.52848   0.78185   0.55842   0.00000  Uiso   1.00
C624   C     0.46105   0.72786   0.94028   0.00000  Uiso   1.00
C625   C     0.52888   0.78040   0.60901   0.00000  Uiso   1.00
C626   C     0.46272   0.72734   0.88997   0.00000  Uiso   1.00
C627   C     0.46988   0.72050   0.60034   0.00000  Uiso   1.00
C628   C     0.53642   0.77378   0.90043   0.00000  Uiso   1.00
C629   C     0.46992   0.71997   0.54969   0.00000  Uiso   1.00
C630   C     0.53718   0.77361   0.95119   0.00000  Uiso   1.00
C631   C     0.49919   0.75093   0.52729   0.00000  Uiso   1.00
C632   C     0.49907   0.75079   0.97250   0.00000  Uiso   1.00
C633   C     0.40124   0.74996   0.73753   0.00000  Uiso   1.00
C634   C     0.59876   0.75004   0.76248   0.00000  Uiso   1.00
C635   C     0.34590   0.74997   0.73071   0.00000  Uiso   1.00
C636   C     0.65410   0.75004   0.76931   0.00000  Uiso   1.00
C637   C     0.51613   0.54815   0.79386   0.00000  Uiso   1.00
C638   C     0.51885   0.95210   0.71239   0.00000  Uiso   1.00
C639   C     0.51528   0.59404   0.79365   0.00000  Uiso   1.00
C640   C     0.51791   0.90621   0.71207   0.00000  Uiso   1.00
C641   C     0.50105   0.61667   0.75004   0.00000  Uiso   1.00
C642   C     0.50103   0.88322   0.75053   0.00000  Uiso   1.00
C643   C     0.48758   0.59281   0.70672   0.00000  Uiso   1.00
C644   C     0.48499   0.90659   0.78929   0.00000  Uiso   1.00
C645   C     0.48766   0.54692   0.70702   0.00000  Uiso   1.00
C646   C     0.48516   0.95251   0.78925   0.00000  Uiso   1.00
C647   C     0.50205   0.52420   0.75057   0.00000  Uiso   1.00
C648   C     0.50215   0.97564   0.75082   0.00000  Uiso   1.00
Cu649  Cu    0.50000   0.74999   0.79821   0.00000  Uiso   1.00
Cu650  Cu    0.50000   0.75000   0.70178   0.00000  Uiso   1.00
H651   H     0.65911   0.74993   0.69374   0.00000  Uiso   1.00
H652   H     0.34089   0.75009   0.80628   0.00000  Uiso   1.00
H653   H     0.52829   0.53144   0.82780   0.00000  Uiso   1.00
H654   H     0.53308   0.96912   0.68279   0.00000  Uiso   1.00
H655   H     0.52634   0.61179   0.82751   0.00000  Uiso   1.00
H656   H     0.53101   0.88874   0.68206   0.00000  Uiso   1.00
H657   H     0.47630   0.60951   0.67273   0.00000  Uiso   1.00
H658   H     0.47151   0.88941   0.81920   0.00000  Uiso   1.00
H659   H     0.47577   0.52926   0.67326   0.00000  Uiso   1.00
H660   H     0.47127   0.96986   0.81891   0.00000  Uiso   1.00
H661   H     0.55079   0.80768   0.54448   0.00000  Uiso   1.00
H662   H     0.42942   0.71061   0.95304   0.00000  Uiso   1.00
H663   H     0.55197   0.80416   0.63204   0.00000  Uiso   1.00
H664   H     0.43351   0.70912   0.86624   0.00000  Uiso   1.00
H665   H     0.44705   0.69481   0.52876   0.00000  Uiso   1.00
H666   H     0.56806   0.79141   0.97312   0.00000  Uiso   1.00
N667   N     0.50000   0.75001   0.62934   0.00000  Uiso   1.00
N668   N     0.50000   0.74999   0.87065   0.00000  Uiso   1.00
O669   O     0.50000   0.68572   0.79071   0.00000  Uiso   1.00
O670   O     0.50000   0.81427   0.70928   0.00000  Uiso   1.00
O671   O     0.50000   0.68573   0.70928   0.00000  Uiso   1.00
O672   O     0.50000   0.81427   0.79072   0.00000  Uiso   1.00
O673   O     0.42495   0.74999   0.78132   0.00000  Uiso   1.00
O674   O     0.57505   0.75000   0.71868   0.00000  Uiso   1.00
O675   O     0.42495   0.75000   0.69988   0.00000  Uiso   1.00
O676   O     0.57505   0.75000   0.80011   0.00000  Uiso   1.00
N677   N     0.43736   0.69026   0.62134   0.00000  Uiso   1.00
H678   H     0.39919   0.69673   0.60674   0.00000  Uiso   1.00
H679   H     0.44577   0.65839   0.61037   0.00000  Uiso   1.00
N680   N     0.57369   0.79969   0.88001   0.00000  Uiso   1.00
H681   H     0.61041   0.78915   0.89494   0.00000  Uiso   1.00
H682   H     0.56994   0.83257   0.89054   0.00000  Uiso   1.00
C683   C     0.83358   0.66495   0.74993   0.00000  Uiso   1.00
C684   C     0.83359   0.83501   0.75018   0.00000  Uiso   1.00
C685   C     0.86182   0.78185   0.55842   0.00000  Uiso   1.00
C686   C     0.79438   0.72786   0.94028   0.00000  Uiso   1.00
C687   C     0.86221   0.78040   0.60901   0.00000  Uiso   1.00
C688   C     0.79605   0.72734   0.88997   0.00000  Uiso   1.00
C689   C     0.80321   0.72050   0.60034   0.00000  Uiso   1.00
C690   C     0.86975   0.77378   0.90043   0.00000  Uiso   1.00
C691   C     0.80325   0.71997   0.54969   0.00000  Uiso   1.00
C692   C     0.87052   0.77361   0.95119   0.00000  Uiso   1.00
C693   C     0.83252   0.75093   0.52729   0.00000  Uiso   1.00
C694   C     0.83240   0.75079   0.97250   0.00000  Uiso   1.00
C695   C     0.73457   0.74996   0.73753   0.00000  Uiso   1.00
C696   C     0.93209   0.75004   0.76248   0.00000  Uiso   1.00
C697   C     0.67924   0.74997   0.73071   0.00000  Uiso   1.00
C698   C     0.98743   0.75004   0.76931   0.00000  Uiso   1.00
C699   C     0.84946   0.54815   0.79386   0.00000  Uiso   1.00
C700   C     0.85218   0.95210   0.71239   0.00000  Uiso   1.00
C701   C     0.84861   0.59404   0.79365   0.00000  Uiso   1.00
C702   C     0.85124   0.90621   0.71207   0.00000  Uiso   1.00
C703   C     0.83438   0.61667   0.75004   0.00000  Uiso   1.00
C704   C     0.83436   0.88322   0.75053   0.00000  Uiso   1.00
C705   C     0.82092   0.59281   0.70672   0.00000  Uiso   1.00
C706   C     0.81832   0.90659   0.78929   0.00000  Uiso   1.00
C707   C     0.82099   0.54692   0.70702   0.00000  Uiso   1.00
C708   C     0.81849   0.95251   0.78925   0.00000  Uiso   1.00
C709   C     0.83539   0.52420   0.75057   0.00000  Uiso   1.00
C710   C     0.83548   0.97564   0.75082   0.00000  Uiso   1.00
Cu711  Cu    0.83333   0.74999   0.79821   0.00000  Uiso   1.00
Cu712  Cu    0.83333   0.75000   0.70178   0.00000  Uiso   1.00
H713   H     0.99244   0.74993   0.69374   0.00000  Uiso   1.00
H714   H     0.67422   0.75009   0.80628   0.00000  Uiso   1.00
H715   H     0.86162   0.53144   0.82780   0.00000  Uiso   1.00
H716   H     0.86641   0.96912   0.68279   0.00000  Uiso   1.00
H717   H     0.85967   0.61179   0.82751   0.00000  Uiso   1.00
H718   H     0.86434   0.88874   0.68206   0.00000  Uiso   1.00
H719   H     0.80963   0.60951   0.67273   0.00000  Uiso   1.00
H720   H     0.80485   0.88941   0.81920   0.00000  Uiso   1.00
H721   H     0.80910   0.52926   0.67326   0.00000  Uiso   1.00
H722   H     0.80460   0.96986   0.81891   0.00000  Uiso   1.00
H723   H     0.88412   0.80768   0.54448   0.00000  Uiso   1.00
H724   H     0.76275   0.71061   0.95304   0.00000  Uiso   1.00
H725   H     0.88530   0.80416   0.63204   0.00000  Uiso   1.00
H726   H     0.76685   0.70912   0.86624   0.00000  Uiso   1.00
H727   H     0.78039   0.69481   0.52876   0.00000  Uiso   1.00
H728   H     0.90139   0.79141   0.97312   0.00000  Uiso   1.00
N729   N     0.83333   0.75001   0.62934   0.00000  Uiso   1.00
N730   N     0.83333   0.74999   0.87065   0.00000  Uiso   1.00
O731   O     0.83334   0.68572   0.79071   0.00000  Uiso   1.00
O732   O     0.83333   0.81427   0.70928   0.00000  Uiso   1.00
O733   O     0.83334   0.68573   0.70928   0.00000  Uiso   1.00
O734   O     0.83333   0.81427   0.79072   0.00000  Uiso   1.00
O735   O     0.75828   0.74999   0.78132   0.00000  Uiso   1.00
O736   O     0.90839   0.75000   0.71868   0.00000  Uiso   1.00
O737   O     0.75828   0.75000   0.69988   0.00000  Uiso   1.00
O738   O     0.90839   0.75000   0.80011   0.00000  Uiso   1.00
N739   N     0.77070   0.69026   0.62134   0.00000  Uiso   1.00
H740   H     0.73252   0.69673   0.60674   0.00000  Uiso   1.00
H741   H     0.77910   0.65839   0.61037   0.00000  Uiso   1.00
N742   N     0.90702   0.79969   0.88001   0.00000  Uiso   1.00
H743   H     0.94374   0.78915   0.89494   0.00000  Uiso   1.00
H744   H     0.90327   0.83257   0.89054   0.00000  Uiso   1.00
loop_
_geom_bond_atom_site_label_1
_geom_bond_atom_site_label_2
_geom_bond_distance
_geom_bond_site_symmetry_2
_ccdc_geom_bond_type
C1     C21     1.463   .     S
C1     O51     1.297   .     A
C1     O49     1.294   .     A
C2     C22     1.460   .     S
C2     O52     1.296   .     A
C2     O50     1.295   .     A
C3     C5      1.407   .     A
C3     C11     1.415   .     A
C3     H41     1.079   .     S
C4     C12     1.415   .     A
C4     H42     1.079   .     S
C4     C6      1.407   .     A
C5     H43     1.082   .     S
C5     N47     1.362   .     A
C6     N48     1.362   .     A
C6     H44     1.082   .     S
C7     N47     1.367   .     A
C7     C9      1.409   .     A
C7     N57     1.429   .     S
C8     N48     1.368   .     A
C8     C10     1.410   .     A
C8     N60     1.429   .     S
C9     H45     1.079   .     S
C9     C11     1.410   .     A
C10    H46     1.079   .     S
C10    C12     1.410   .     A
C11    C384    1.524   1_554 S
C12    C383    1.524   .     S
C13    O53     1.287   .     A
C13    C15     1.435   .     S
C13    O55     1.291   .     A
C14    O56     1.291   .     A
C14    O54     1.287   .     A
C14    C16     1.435   .     S
C15    C140    1.337   1_455 S
C15    H155    1.087   1_455 S
C16    C77     1.337   .     S
C16    H94     1.087   .     S
C17    H33     1.083   .     S
C17    C27     1.403   .     A
C17    C19     1.390   .     A
C18    C28     1.404   .     A
C18    H34     1.083   .     S
C18    C20     1.390   .     A
C19    H35     1.083   .     S
C19    C21     1.403   .     A
C20    C22     1.402   .     A
C20    H36     1.083   .     S
C21    C23     1.401   .     A
C22    C24     1.401   .     A
C23    H37     1.080   .     S
C23    C25     1.390   .     A
C24    C26     1.390   .     A
C24    H38     1.083   .     S
C25    H39     1.083   .     S
C25    C27     1.404   .     A
C26    H40     1.083   .     S
C26    C28     1.404   .     A
C27    C214    1.471   1_545 S
C28    C213    1.471   .     S
Cu29   Cu30    2.683   .     S
Cu29   O56     1.960   .     S
Cu29   O49     1.956   .     S
Cu29   O53     1.956   .     S
Cu29   N48     2.015   .     S
Cu29   O52     1.959   .     S
Cu30   O51     1.959   .     S
Cu30   O55     1.960   .     S
Cu30   O50     1.956   .     S
Cu30   O54     1.956   .     S
Cu30   N47     2.015   .     S
H31    C77     1.087   .     S
H32    C140    1.087   1_455 S
N57    H58     1.046   .     S
N57    H59     1.045   .     S
N60    H62     1.046   .     S
N60    H61     1.046   .     S
C63    C83     1.463   .     S
C63    O113    1.297   .     A
C63    O111    1.294   .     A
C64    C84     1.460   .     S
C64    O114    1.296   .     A
C64    O112    1.295   .     A
C65    C67     1.407   .     A
C65    C73     1.415   .     A
C65    H103    1.079   .     S
C66    C74     1.415   .     A
C66    H104    1.079   .     S
C66    C68     1.407   .     A
C67    H105    1.082   .     S
C67    N109    1.362   .     A
C68    N110    1.362   .     A
C68    H106    1.082   .     S
C69    N109    1.367   .     A
C69    C71     1.409   .     A
C69    N119    1.429   .     S
C70    N110    1.368   .     A
C70    C72     1.410   .     A
C70    N122    1.429   .     S
C71    H107    1.079   .     S
C71    C73     1.410   .     A
C72    H108    1.079   .     S
C72    C74     1.410   .     A
C73    C446    1.524   1_554 S
C74    C445    1.524   .     S
C75    O115    1.287   .     A
C75    C77     1.435   .     S
C75    O117    1.291   .     A
C76    O118    1.291   .     A
C76    O116    1.287   .     A
C76    C78     1.435   .     S
C78    C139    1.337   .     S
C78    H156    1.087   .     S
C79    H95     1.083   .     S
C79    C89     1.403   .     A
C79    C81     1.390   .     A
C80    C90     1.404   .     A
C80    H96     1.083   .     S
C80    C82     1.390   .     A
C81    H97     1.083   .     S
C81    C83     1.403   .     A
C82    C84     1.402   .     A
C82    H98     1.083   .     S
C83    C85     1.401   .     A
C84    C86     1.401   .     A
C85    H99     1.080   .     S
C85    C87     1.390   .     A
C86    C88     1.390   .     A
C86    H100    1.083   .     S
C87    H101    1.083   .     S
C87    C89     1.404   .     A
C88    H102    1.083   .     S
C88    C90     1.404   .     A
C89    C276    1.471   1_545 S
C90    C275    1.471   .     S
Cu91   Cu92    2.683   .     S
Cu91   O118    1.960   .     S
Cu91   O111    1.956   .     S
Cu91   O115    1.956   .     S
Cu91   N110    2.015   .     S
Cu91   O114    1.959   .     S
Cu92   O113    1.959   .     S
Cu92   O117    1.960   .     S
Cu92   O112    1.956   .     S
Cu92   O116    1.956   .     S
Cu92   N109    2.015   .     S
H93    C139    1.087   .     S
N119   H120    1.046   .     S
N119   H121    1.045   .     S
N122   H124    1.046   .     S
N122   H123    1.046   .     S
C125   C145    1.463   .     S
C125   O175    1.297   .     A
C125   O173    1.294   .     A
C126   C146    1.460   .     S
C126   O176    1.296   .     A
C126   O174    1.295   .     A
C127   C129    1.407   .     A
C127   C135    1.415   .     A
C127   H165    1.079   .     S
C128   C136    1.415   .     A
C128   H166    1.079   .     S
C128   C130    1.407   .     A
C129   H167    1.082   .     S
C129   N171    1.362   .     A
C130   N172    1.362   .     A
C130   H168    1.082   .     S
C131   N171    1.367   .     A
C131   C133    1.409   .     A
C131   N181    1.429   .     S
C132   N172    1.368   .     A
C132   C134    1.410   .     A
C132   N184    1.429   .     S
C133   H169    1.079   .     S
C133   C135    1.410   .     A
C134   H170    1.079   .     S
C134   C136    1.410   .     A
C135   C508    1.524   1_554 S
C136   C507    1.524   .     S
C137   O177    1.287   .     A
C137   C139    1.435   .     S
C137   O179    1.291   .     A
C138   O180    1.291   .     A
C138   O178    1.287   .     A
C138   C140    1.435   .     S
C140   C15     1.337   1_655 S
C140   H32     1.087   1_655 S
C141   H157    1.083   .     S
C141   C151    1.403   .     A
C141   C143    1.390   .     A
C142   C152    1.404   .     A
C142   H158    1.083   .     S
C142   C144    1.390   .     A
C143   H159    1.083   .     S
C143   C145    1.403   .     A
C144   C146    1.402   .     A
C144   H160    1.083   .     S
C145   C147    1.401   .     A
C146   C148    1.401   .     A
C147   H161    1.080   .     S
C147   C149    1.390   .     A
C148   C150    1.390   .     A
C148   H162    1.083   .     S
C149   H163    1.083   .     S
C149   C151    1.404   .     A
C150   H164    1.083   .     S
C150   C152    1.404   .     A
C151   C338    1.471   1_545 S
C152   C337    1.471   .     S
Cu153  Cu154   2.683   .     S
Cu153  O180    1.960   .     S
Cu153  O173    1.956   .     S
Cu153  O177    1.956   .     S
Cu153  N172    2.015   .     S
Cu153  O176    1.959   .     S
Cu154  O175    1.959   .     S
Cu154  O179    1.960   .     S
Cu154  O174    1.956   .     S
Cu154  O178    1.956   .     S
Cu154  N171    2.015   .     S
H155   C15     1.087   1_655 S
N181   H182    1.046   .     S
N181   H183    1.045   .     S
N184   H186    1.046   .     S
N184   H185    1.046   .     S
C187   C207    1.463   .     S
C187   O237    1.297   .     A
C187   O235    1.294   .     A
C188   C208    1.460   .     S
C188   O238    1.296   .     A
C188   O236    1.295   .     A
C189   C191    1.407   .     A
C189   C197    1.415   .     A
C189   H227    1.079   .     S
C190   C198    1.415   .     A
C190   H228    1.079   .     S
C190   C192    1.407   .     A
C191   H229    1.082   .     S
C191   N233    1.362   .     A
C192   N234    1.362   .     A
C192   H230    1.082   .     S
C193   N233    1.367   .     A
C193   C195    1.409   .     A
C193   N243    1.429   .     S
C194   N234    1.368   .     A
C194   C196    1.410   .     A
C194   N246    1.429   .     S
C195   H231    1.079   .     S
C195   C197    1.410   .     A
C196   H232    1.079   .     S
C196   C198    1.410   .     A
C197   C570    1.524   1_554 S
C198   C569    1.524   .     S
C199   O239    1.287   .     A
C199   C201    1.435   .     S
C199   O241    1.291   .     A
C200   O242    1.291   .     A
C200   O240    1.287   .     A
C200   C202    1.435   .     S
C201   C326    1.337   1_455 S
C201   H341    1.087   1_455 S
C202   C263    1.337   .     S
C202   H280    1.087   .     S
C203   H219    1.083   .     S
C203   C213    1.403   .     A
C203   C205    1.390   .     A
C204   C214    1.404   .     A
C204   H220    1.083   .     S
C204   C206    1.390   .     A
C205   H221    1.083   .     S
C205   C207    1.403   .     A
C206   C208    1.402   .     A
C206   H222    1.083   .     S
C207   C209    1.401   .     A
C208   C210    1.401   .     A
C209   H223    1.080   .     S
C209   C211    1.390   .     A
C210   C212    1.390   .     A
C210   H224    1.083   .     S
C211   H225    1.083   .     S
C211   C213    1.404   .     A
C212   H226    1.083   .     S
C212   C214    1.404   .     A
C214   C27     1.471   1_565 S
Cu215  Cu216   2.683   .     S
Cu215  O242    1.960   .     S
Cu215  O235    1.956   .     S
Cu215  O239    1.956   .     S
Cu215  N234    2.015   .     S
Cu215  O238    1.959   .     S
Cu216  O237    1.959   .     S
Cu216  O241    1.960   .     S
Cu216  O236    1.956   .     S
Cu216  O240    1.956   .     S
Cu216  N233    2.015   .     S
H217   C263    1.087   .     S
H218   C326    1.087   1_455 S
N243   H244    1.046   .     S
N243   H245    1.045   .     S
N246   H248    1.046   .     S
N246   H247    1.046   .     S
C249   C269    1.463   .     S
C249   O299    1.297   .     A
C249   O297    1.294   .     A
C250   C270    1.460   .     S
C250   O300    1.296   .     A
C250   O298    1.295   .     A
C251   C253    1.407   .     A
C251   C259    1.415   .     A
C251   H289    1.079   .     S
C252   C260    1.415   .     A
C252   H290    1.079   .     S
C252   C254    1.407   .     A
C253   H291    1.082   .     S
C253   N295    1.362   .     A
C254   N296    1.362   .     A
C254   H292    1.082   .     S
C255   N295    1.367   .     A
C255   C257    1.409   .     A
C255   N305    1.429   .     S
C256   N296    1.368   .     A
C256   C258    1.410   .     A
C256   N308    1.429   .     S
C257   H293    1.079   .     S
C257   C259    1.410   .     A
C258   H294    1.079   .     S
C258   C260    1.410   .     A
C259   C632    1.524   1_554 S
C260   C631    1.524   .     S
C261   O301    1.287   .     A
C261   C263    1.435   .     S
C261   O303    1.291   .     A
C262   O304    1.291   .     A
C262   O302    1.287   .     A
C262   C264    1.435   .     S
C264   C325    1.337   .     S
C264   H342    1.087   .     S
C265   H281    1.083   .     S
C265   C275    1.403   .     A
C265   C267    1.390   .     A
C266   C276    1.404   .     A
C266   H282    1.083   .     S
C266   C268    1.390   .     A
C267   H283    1.083   .     S
C267   C269    1.403   .     A
C268   C270    1.402   .     A
C268   H284    1.083   .     S
C269   C271    1.401   .     A
C270   C272    1.401   .     A
C271   H285    1.080   .     S
C271   C273    1.390   .     A
C272   C274    1.390   .     A
C272   H286    1.083   .     S
C273   H287    1.083   .     S
C273   C275    1.404   .     A
C274   H288    1.083   .     S
C274   C276    1.404   .     A
C276   C89     1.471   1_565 S
Cu277  Cu278   2.683   .     S
Cu277  O304    1.960   .     S
Cu277  O297    1.956   .     S
Cu277  O301    1.956   .     S
Cu277  N296    2.015   .     S
Cu277  O300    1.959   .     S
Cu278  O299    1.959   .     S
Cu278  O303    1.960   .     S
Cu278  O298    1.956   .     S
Cu278  O302    1.956   .     S
Cu278  N295    2.015   .     S
H279   C325    1.087   .     S
N305   H306    1.046   .     S
N305   H307    1.045   .     S
N308   H310    1.046   .     S
N308   H309    1.046   .     S
C311   C331    1.463   .     S
C311   O361    1.297   .     A
C311   O359    1.294   .     A
C312   C332    1.460   .     S
C312   O362    1.296   .     A
C312   O360    1.295   .     A
C313   C315    1.407   .     A
C313   C321    1.415   .     A
C313   H351    1.079   .     S
C314   C322    1.415   .     A
C314   H352    1.079   .     S
C314   C316    1.407   .     A
C315   H353    1.082   .     S
C315   N357    1.362   .     A
C316   N358    1.362   .     A
C316   H354    1.082   .     S
C317   N357    1.367   .     A
C317   C319    1.409   .     A
C317   N367    1.429   .     S
C318   N358    1.368   .     A
C318   C320    1.410   .     A
C318   N370    1.429   .     S
C319   H355    1.079   .     S
C319   C321    1.410   .     A
C320   H356    1.079   .     S
C320   C322    1.410   .     A
C321   C694    1.524   1_554 S
C322   C693    1.524   .     S
C323   O363    1.287   .     A
C323   C325    1.435   .     S
C323   O365    1.291   .     A
C324   O366    1.291   .     A
C324   O364    1.287   .     A
C324   C326    1.435   .     S
C326   C201    1.337   1_655 S
C326   H218    1.087   1_655 S
C327   H343    1.083   .     S
C327   C337    1.403   .     A
C327   C329    1.390   .     A
C328   C338    1.404   .     A
C328   H344    1.083   .     S
C328   C330    1.390   .     A
C329   H345    1.083   .     S
C329   C331    1.403   .     A
C330   C332    1.402   .     A
C330   H346    1.083   .     S
C331   C333    1.401   .     A
C332   C334    1.401   .     A
C333   H347    1.080   .     S
C333   C335    1.390   .     A
C334   C336    1.390   .     A
C334   H348    1.083   .     S
C335   H349    1.083   .     S
C335   C337    1.404   .     A
C336   H350    1.083   .     S
C336   C338    1.404   .     A
C338   C151    1.471   1_565 S
Cu339  Cu340   2.683   .     S
Cu339  O366    1.960   .     S
Cu339  O359    1.956   .     S
Cu339  O363    1.956   .     S
Cu339  N358    2.015   .     S
Cu339  O362    1.959   .     S
Cu340  O361    1.959   .     S
Cu340  O365    1.960   .     S
Cu340  O360    1.956   .     S
Cu340  O364    1.956   .     S
Cu340  N357    2.015   .     S
H341   C201    1.087   1_655 S
N367   H368    1.046   .     S
N367   H369    1.045   .     S
N370   H372    1.046   .     S
N370   H371    1.046   .     S
C373   C393    1.463   .     S
C373   O423    1.297   .     A
C373   O421    1.294   .     A
C374   C394    1.460   .     S
C374   O424    1.296   .     A
C374   O422    1.295   .     A
C375   C377    1.407   .     A
C375   C383    1.415   .     A
C375   H413    1.079   .     S
C376   C384    1.415   .     A
C376   H414    1.079   .     S
C376   C378    1.407   .     A
C377   H415    1.082   .     S
C377   N419    1.362   .     A
C378   N420    1.362   .     A
C378   H416    1.082   .     S
C379   N419    1.367   .     A
C379   C381    1.409   .     A
C379   N429    1.429   .     S
C380   N420    1.368   .     A
C380   C382    1.410   .     A
C380   N432    1.429   .     S
C381   H417    1.079   .     S
C381   C383    1.410   .     A
C382   H418    1.079   .     S
C382   C384    1.410   .     A
C384   C11     1.524   1_556 S
C385   O425    1.287   .     A
C385   C387    1.435   .     S
C385   O427    1.291   .     A
C386   O428    1.291   .     A
C386   O426    1.287   .     A
C386   C388    1.435   .     S
C387   C512    1.337   1_455 S
C387   H527    1.087   1_455 S
C388   C449    1.337   .     S
C388   H466    1.087   .     S
C389   H405    1.083   .     S
C389   C399    1.403   .     A
C389   C391    1.390   .     A
C390   C400    1.404   .     A
C390   H406    1.083   .     S
C390   C392    1.390   .     A
C391   H407    1.083   .     S
C391   C393    1.403   .     A
C392   C394    1.402   .     A
C392   H408    1.083   .     S
C393   C395    1.401   .     A
C394   C396    1.401   .     A
C395   H409    1.080   .     S
C395   C397    1.390   .     A
C396   C398    1.390   .     A
C396   H410    1.083   .     S
C397   H411    1.083   .     S
C397   C399    1.404   .     A
C398   H412    1.083   .     S
C398   C400    1.404   .     A
C399   C586    1.471   1_545 S
C400   C585    1.471   .     S
Cu401  Cu402   2.683   .     S
Cu401  O428    1.960   .     S
Cu401  O421    1.956   .     S
Cu401  O425    1.956   .     S
Cu401  N420    2.015   .     S
Cu401  O424    1.959   .     S
Cu402  O423    1.959   .     S
Cu402  O427    1.960   .     S
Cu402  O422    1.956   .     S
Cu402  O426    1.956   .     S
Cu402  N419    2.015   .     S
H403   C449    1.087   .     S
H404   C512    1.087   1_455 S
N429   H430    1.046   .     S
N429   H431    1.045   .     S
N432   H434    1.046   .     S
N432   H433    1.046   .     S
C435   C455    1.463   .     S
C435   O485    1.297   .     A
C435   O483    1.294   .     A
C436   C456    1.460   .     S
C436   O486    1.296   .     A
C436   O484    1.295   .     A
C437   C439    1.407   .     A
C437   C445    1.415   .     A
C437   H475    1.079   .     S
C438   C446    1.415   .     A
C438   H476    1.079   .     S
C438   C440    1.407   .     A
C439   H477    1.082   .     S
C439   N481    1.362   .     A
C440   N482    1.362   .     A
C440   H478    1.082   .     S
C441   N481    1.367   .     A
C441   C443    1.409   .     A
C441   N491    1.429   .     S
C442   N482    1.368   .     A
C442   C444    1.410   .     A
C442   N494    1.429   .     S
C443   H479    1.079   .     S
C443   C445    1.410   .     A
C444   H480    1.079   .     S
C444   C446    1.410   .     A
C446   C73     1.524   1_556 S
C447   O487    1.287   .     A
C447   C449    1.435   .     S
C447   O489    1.291   .     A
C448   O490    1.291   .     A
C448   O488    1.287   .     A
C448   C450    1.435   .     S
C450   C511    1.337   .     S
C450   H528    1.087   .     S
C451   H467    1.083   .     S
C451   C461    1.403   .     A
C451   C453    1.390   .     A
C452   C462    1.404   .     A
C452   H468    1.083   .     S
C452   C454    1.390   .     A
C453   H469    1.083   .     S
C453   C455    1.403   .     A
C454   C456    1.402   .     A
C454   H470    1.083   .     S
C455   C457    1.401   .     A
C456   C458    1.401   .     A
C457   H471    1.080   .     S
C457   C459    1.390   .     A
C458   C460    1.390   .     A
C458   H472    1.083   .     S
C459   H473    1.083   .     S
C459   C461    1.404   .     A
C460   H474    1.083   .     S
C460   C462    1.404   .     A
C461   C648    1.471   1_545 S
C462   C647    1.471   .     S
Cu463  Cu464   2.683   .     S
Cu463  O490    1.960   .     S
Cu463  O483    1.956   .     S
Cu463  O487    1.956   .     S
Cu463  N482    2.015   .     S
Cu463  O486    1.959   .     S
Cu464  O485    1.959   .     S
Cu464  O489    1.960   .     S
Cu464  O484    1.956   .     S
Cu464  O488    1.956   .     S
Cu464  N481    2.015   .     S
H465   C511    1.087   .     S
N491   H492    1.046   .     S
N491   H493    1.045   .     S
N494   H496    1.046   .     S
N494   H495    1.046   .     S
C497   C517    1.463   .     S
C497   O547    1.297   .     A
C497   O545    1.294   .     A
C498   C518    1.460   .     S
C498   O548    1.296   .     A
C498   O546    1.295   .     A
C499   C501    1.407   .     A
C499   C507    1.415   .     A
C499   H537    1.079   .     S
C500   C508    1.415   .     A
C500   H538    1.079   .     S
C500   C502    1.407   .     A
C501   H539    1.082   .     S
C501   N543    1.362   .     A
C502   N544    1.362   .     A
C502   H540    1.082   .     S
C503   N543    1.367   .     A
C503   C505    1.409   .     A
C503   N553    1.429   .     S
C504   N544    1.368   .     A
C504   C506    1.410   .     A
C504   N556    1.429   .     S
C505   H541    1.079   .     S
C505   C507    1.410   .     A
C506   H542    1.079   .     S
C506   C508    1.410   .     A
C508   C135    1.524   1_556 S
C509   O549    1.287   .     A
C509   C511    1.435   .     S
C509   O551    1.291   .     A
C510   O552    1.291   .     A
C510   O550    1.287   .     A
C510   C512    1.435   .     S
C512   C387    1.337   1_655 S
C512   H404    1.087   1_655 S
C513   H529    1.083   .     S
C513   C523    1.403   .     A
C513   C515    1.390   .     A
C514   C524    1.404   .     A
C514   H530    1.083   .     S
C514   C516    1.390   .     A
C515   H531    1.083   .     S
C515   C517    1.403   .     A
C516   C518    1.402   .     A
C516   H532    1.083   .     S
C517   C519    1.401   .     A
C518   C520    1.401   .     A
C519   H533    1.080   .     S
C519   C521    1.390   .     A
C520   C522    1.390   .     A
C520   H534    1.083   .     S
C521   H535    1.083   .     S
C521   C523    1.404   .     A
C522   H536    1.083   .     S
C522   C524    1.404   .     A
C523   C710    1.471   1_545 S
C524   C709    1.471   .     S
Cu525  Cu526   2.683   .     S
Cu525  O552    1.960   .     S
Cu525  O545    1.956   .     S
Cu525  O549    1.956   .     S
Cu525  N544    2.015   .     S
Cu525  O548    1.959   .     S
Cu526  O547    1.959   .     S
Cu526  O551    1.960   .     S
Cu526  O546    1.956   .     S
Cu526  O550    1.956   .     S
Cu526  N543    2.015   .     S
H527   C387    1.087   1_655 S
N553   H554    1.046   .     S
N553   H555    1.045   .     S
N556   H558    1.046   .     S
N556   H557    1.046   .     S
C559   C579    1.463   .     S
C559   O609    1.297   .     A
C559   O607    1.294   .     A
C560   C580    1.460   .     S
C560   O610    1.296   .     A
C560   O608    1.295   .     A
C561   C563    1.407   .     A
C561   C569    1.415   .     A
C561   H599    1.079   .     S
C562   C570    1.415   .     A
C562   H600    1.079   .     S
C562   C564    1.407   .     A
C563   H601    1.082   .     S
C563   N605    1.362   .     A
C564   N606    1.362   .     A
C564   H602    1.082   .     S
C565   N605    1.367   .     A
C565   C567    1.409   .     A
C565   N615    1.429   .     S
C566   N606    1.368   .     A
C566   C568    1.410   .     A
C566   N618    1.429   .     S
C567   H603    1.079   .     S
C567   C569    1.410   .     A
C568   H604    1.079   .     S
C568   C570    1.410   .     A
C570   C197    1.524   1_556 S
C571   O611    1.287   .     A
C571   C573    1.435   .     S
C571   O613    1.291   .     A
C572   O614    1.291   .     A
C572   O612    1.287   .     A
C572   C574    1.435   .     S
C573   C698    1.337   1_455 S
C573   H713    1.087   1_455 S
C574   C635    1.337   .     S
C574   H652    1.087   .     S
C575   H591    1.083   .     S
C575   C585    1.403   .     A
C575   C577    1.390   .     A
C576   C586    1.404   .     A
C576   H592    1.083   .     S
C576   C578    1.390   .     A
C577   H593    1.083   .     S
C577   C579    1.403   .     A
C578   C580    1.402   .     A
C578   H594    1.083   .     S
C579   C581    1.401   .     A
C580   C582    1.401   .     A
C581   H595    1.080   .     S
C581   C583    1.390   .     A
C582   C584    1.390   .     A
C582   H596    1.083   .     S
C583   H597    1.083   .     S
C583   C585    1.404   .     A
C584   H598    1.083   .     S
C584   C586    1.404   .     A
C586   C399    1.471   1_565 S
Cu587  Cu588   2.683   .     S
Cu587  O614    1.960   .     S
Cu587  O607    1.956   .     S
Cu587  O611    1.956   .     S
Cu587  N606    2.015   .     S
Cu587  O610    1.959   .     S
Cu588  O609    1.959   .     S
Cu588  O613    1.960   .     S
Cu588  O608    1.956   .     S
Cu588  O612    1.956   .     S
Cu588  N605    2.015   .     S
H589   C635    1.087   .     S
H590   C698    1.087   1_455 S
N615   H616    1.046   .     S
N615   H617    1.045   .     S
N618   H620    1.046   .     S
N618   H619    1.046   .     S
C621   C641    1.463   .     S
C621   O671    1.297   .     A
C621   O669    1.294   .     A
C622   C642    1.460   .     S
C622   O672    1.296   .     A
C622   O670    1.295   .     A
C623   C625    1.407   .     A
C623   C631    1.415   .     A
C623   H661    1.079   .     S
C624   C632    1.415   .     A
C624   H662    1.079   .     S
C624   C626    1.407   .     A
C625   H663    1.082   .     S
C625   N667    1.362   .     A
C626   N668    1.362   .     A
C626   H664    1.082   .     S
C627   N667    1.367   .     A
C627   C629    1.409   .     A
C627   N677    1.429   .     S
C628   N668    1.368   .     A
C628   C630    1.410   .     A
C628   N680    1.429   .     S
C629   H665    1.079   .     S
C629   C631    1.410   .     A
C630   H666    1.079   .     S
C630   C632    1.410   .     A
C632   C259    1.524   1_556 S
C633   O673    1.287   .     A
C633   C635    1.435   .     S
C633   O675    1.291   .     A
C634   O676    1.291   .     A
C634   O674    1.287   .     A
C634   C636    1.435   .     S
C636   C697    1.337   .     S
C636   H714    1.087   .     S
C637   H653    1.083   .     S
C637   C647    1.403   .     A
C637   C639    1.390   .     A
C638   C648    1.404   .     A
C638   H654    1.083   .     S
C638   C640    1.390   .     A
C639   H655    1.083   .     S
C639   C641    1.403   .     A
C640   C642    1.402   .     A
C640   H656    1.083   .     S
C641   C643    1.401   .     A
C642   C644    1.401   .     A
C643   H657    1.080   .     S
C643   C645    1.390   .     A
C644   C646    1.390   .     A
C644   H658    1.083   .     S
C645   H659    1.083   .     S
C645   C647    1.404   .     A
C646   H660    1.083   .     S
C646   C648    1.404   .     A
C648   C461    1.471   1_565 S
Cu649  Cu650   2.683   .     S
Cu649  O676    1.960   .     S
Cu649  O669    1.956   .     S
Cu649  O673    1.956   .     S
Cu649  N668    2.015   .     S
Cu649  O672    1.959   .     S
Cu650  O671    1.959   .     S
Cu650  O675    1.960   .     S
Cu650  O670    1.956   .     S
Cu650  O674    1.956   .     S
Cu650  N667    2.015   .     S
H651   C697    1.087   .     S
N677   H678    1.046   .     S
N677   H679    1.045   .     S
N680   H682    1.046   .     S
N680   H681    1.046   .     S
C683   C703    1.463   .     S
C683   O733    1.297   .     A
C683   O731    1.294   .     A
C684   C704    1.460   .     S
C684   O734    1.296   .     A
C684   O732    1.295   .     A
C685   C687    1.407   .     A
C685   C693    1.415   .     A
C685   H723    1.079   .     S
C686   C694    1.415   .     A
C686   H724    1.079   .     S
C686   C688    1.407   .     A
C687   H725    1.082   .     S
C687   N729    1.362   .     A
C688   N730    1.362   .     A
C688   H726    1.082   .     S
C689   N729    1.367   .     A
C689   C691    1.409   .     A
C689   N739    1.429   .     S
C690   N730    1.368   .     A
C690   C692    1.410   .     A
C690   N742    1.429   .     S
C691   H727    1.079   .     S
C691   C693    1.410   .     A
C692   H728    1.079   .     S
C692   C694    1.410   .     A
C694   C321    1.524   1_556 S
C695   O735    1.287   .     A
C695   C697    1.435   .     S
C695   O737    1.291   .     A
C696   O738    1.291   .     A
C696   O736    1.287   .     A
C696   C698    1.435   .     S
C698   C573    1.337   1_655 S
C698   H590    1.087   1_655 S
C699   H715    1.083   .     S
C699   C709    1.403   .     A
C699   C701    1.390   .     A
C700   C710    1.404   .     A
C700   H716    1.083   .     S
C700   C702    1.390   .     A
C701   H717    1.083   .     S
C701   C703    1.403   .     A
C702   C704    1.402   .     A
C702   H718    1.083   .     S
C703   C705    1.401   .     A
C704   C706    1.401   .     A
C705   H719    1.080   .     S
C705   C707    1.390   .     A
C706   C708    1.390   .     A
C706   H720    1.083   .     S
C707   H721    1.083   .     S
C707   C709    1.404   .     A
C708   H722    1.083   .     S
C708   C710    1.404   .     A
C710   C523    1.471   1_565 S
Cu711  Cu712   2.683   .     S
Cu711  O738    1.960   .     S
Cu711  O731    1.956   .     S
Cu711  O735    1.956   .     S
Cu711  N730    2.015   .     S
Cu711  O734    1.959   .     S
Cu712  O733    1.959   .     S
Cu712  O737    1.960   .     S
Cu712  O732    1.956   .     S
Cu712  O736    1.956   .     S
Cu712  N729    2.015   .     S
H713   C573    1.087   1_655 S
N739   H740    1.046   .     S
N739   H741    1.045   .     S
N742   H744    1.046   .     S
N742   H743    1.046   .     S
