data_str_m1_o10_o16_pcu_sym.158
_audit_creation_date              2020-01-03
_audit_creation_method            'Materials Studio'
_symmetry_space_group_name_H-M    'P1'
_symmetry_Int_Tables_number       1
_symmetry_cell_setting            triclinic
loop_
_symmetry_equiv_pos_as_xyz
  x,y,z
_cell_length_a                    32.4969
_cell_length_b                    32.6525
_cell_length_c                    31.0099
_cell_angle_alpha                 96.8713
_cell_angle_beta                  74.9938
_cell_angle_gamma                 98.4311
loop_
_atom_site_label
_atom_site_type_symbol
_atom_site_fract_x
_atom_site_fract_y
_atom_site_fract_z
_atom_site_U_iso_or_equiv
_atom_site_adp_type
_atom_site_occupancy
Br1    Br    0.21905   0.06225   0.09726   0.00000  Uiso   1.00
Br2    Br    0.10043   0.32774   0.31021   0.00000  Uiso   1.00
C3     C     0.05271   0.15956   0.26007   0.00000  Uiso   1.00
C4     C     0.18003   0.16561   0.05716   0.00000  Uiso   1.00
C5     C     0.20117   0.09828   0.06204   0.00000  Uiso   1.00
C6     C     0.28070   0.17378   0.24009   0.00000  Uiso   1.00
C7     C     0.14334   0.19414   0.41971   0.00000  Uiso   1.00
C8     C     0.32654   0.17653   0.23623   0.00000  Uiso   1.00
C9     C     0.00744   0.15703   0.26391   0.00000  Uiso   1.00
C10    C     0.17922   0.32227   0.23781   0.00000  Uiso   1.00
C11    C     0.15063   0.01251   0.26471   0.00000  Uiso   1.00
C12    C     0.15668   0.05599   0.25957   0.00000  Uiso   1.00
C13    C     0.17622   0.27783   0.24045   0.00000  Uiso   1.00
C14    C     0.13848   0.24783   0.48115   0.00000  Uiso   1.00
C15    C     0.18512   0.14786   0.12942   0.00000  Uiso   1.00
C16    C     0.14812   0.18421   0.37107   0.00000  Uiso   1.00
C17    C     0.19603   0.08509   0.01855   0.00000  Uiso   1.00
C18    C     0.19181   0.13805   0.08126   0.00000  Uiso   1.00
C19    C     0.13501   0.23433   0.43796   0.00000  Uiso   1.00
C20    C     0.20632   0.04238   0.49694   0.00000  Uiso   1.00
C21    C     0.15137   0.22198   0.00647   0.00000  Uiso   1.00
C22    C     0.15914   0.18070   0.48979   0.00000  Uiso   1.00
C23    C     0.15255   0.16622   0.44673   0.00000  Uiso   1.00
C24    C     0.17337   0.15341   0.01423   0.00000  Uiso   1.00
C25    C     0.18012   0.11207   0.49556   0.00000  Uiso   1.00
C26    C     0.16938   0.09797   0.45490   0.00000  Uiso   1.00
C27    C     0.15485   0.12409   0.43175   0.00000  Uiso   1.00
H28    H     0.31920   0.13894   0.28967   0.00000  Uiso   1.00
H29    H     0.22885   0.04539   0.46346   0.00000  Uiso   1.00
H30    H     0.22199   0.02563   0.01596   0.00000  Uiso   1.00
H31    H     0.17635   0.02267   0.49323   0.00000  Uiso   1.00
H32    H     0.20593   0.00321   0.21299   0.00000  Uiso   1.00
H33    H     0.17133   0.06624   0.44059   0.00000  Uiso   1.00
H34    H     0.17337   0.19543   0.07442   0.00000  Uiso   1.00
H35    H     0.12759   0.25608   0.41810   0.00000  Uiso   1.00
H36    H     0.15483   0.23553   0.03889   0.00000  Uiso   1.00
H37    H     0.13262   0.27919   0.49460   0.00000  Uiso   1.00
H38    H     0.14483   0.11036   0.40207   0.00000  Uiso   1.00
H39    H     0.01550   0.19448   0.21073   0.00000  Uiso   1.00
O40    O     0.16667   0.16667   0.25000   0.00000  Uiso   1.00
O41    O     0.15451   0.12637   0.15458   0.00000  Uiso   1.00
O42    O     0.12940   0.20391   0.34968   0.00000  Uiso   1.00
O43    O     0.20824   0.17759   0.14606   0.00000  Uiso   1.00
O44    O     0.17451   0.15880   0.34968   0.00000  Uiso   1.00
O45    O     0.17930   0.08019   0.28213   0.00000  Uiso   1.00
O46    O     0.14632   0.26085   0.27013   0.00000  Uiso   1.00
O47    O     0.07412   0.13291   0.23413   0.00000  Uiso   1.00
O48    O     0.26693   0.19272   0.21360   0.00000  Uiso   1.00
O49    O     0.07071   0.18878   0.28213   0.00000  Uiso   1.00
O50    O     0.25491   0.15226   0.27013   0.00000  Uiso   1.00
O51    O     0.13760   0.06944   0.23413   0.00000  Uiso   1.00
O52    O     0.20345   0.25620   0.21360   0.00000  Uiso   1.00
Zn53   Zn    0.19338   0.13994   0.28734   0.00000  Uiso   1.00
Zn54   Zn    0.13379   0.12458   0.21875   0.00000  Uiso   1.00
Zn55   Zn    0.21056   0.19775   0.20657   0.00000  Uiso   1.00
Zn56   Zn    0.12893   0.20439   0.28733   0.00000  Uiso   1.00
Br57   Br    0.55239   0.06225   0.09726   0.00000  Uiso   1.00
Br58   Br    0.43377   0.32774   0.31021   0.00000  Uiso   1.00
C59    C     0.38604   0.15956   0.26007   0.00000  Uiso   1.00
C60    C     0.51337   0.16561   0.05716   0.00000  Uiso   1.00
C61    C     0.53450   0.09828   0.06204   0.00000  Uiso   1.00
C62    C     0.61404   0.17378   0.24009   0.00000  Uiso   1.00
C63    C     0.47667   0.19414   0.41971   0.00000  Uiso   1.00
C64    C     0.65987   0.17653   0.23623   0.00000  Uiso   1.00
C65    C     0.34077   0.15703   0.26391   0.00000  Uiso   1.00
C66    C     0.51256   0.32227   0.23781   0.00000  Uiso   1.00
C67    C     0.48397   0.01251   0.26471   0.00000  Uiso   1.00
C68    C     0.49001   0.05599   0.25957   0.00000  Uiso   1.00
C69    C     0.50956   0.27783   0.24045   0.00000  Uiso   1.00
C70    C     0.47181   0.24783   0.48115   0.00000  Uiso   1.00
C71    C     0.51845   0.14786   0.12942   0.00000  Uiso   1.00
C72    C     0.48146   0.18421   0.37107   0.00000  Uiso   1.00
C73    C     0.52936   0.08509   0.01855   0.00000  Uiso   1.00
C74    C     0.52515   0.13805   0.08126   0.00000  Uiso   1.00
C75    C     0.46834   0.23433   0.43796   0.00000  Uiso   1.00
C76    C     0.53966   0.04238   0.49694   0.00000  Uiso   1.00
C77    C     0.48470   0.22198   0.00647   0.00000  Uiso   1.00
C78    C     0.49248   0.18070   0.48979   0.00000  Uiso   1.00
C79    C     0.48589   0.16622   0.44673   0.00000  Uiso   1.00
C80    C     0.50670   0.15341   0.01423   0.00000  Uiso   1.00
C81    C     0.51345   0.11207   0.49556   0.00000  Uiso   1.00
C82    C     0.50272   0.09797   0.45490   0.00000  Uiso   1.00
C83    C     0.48818   0.12409   0.43175   0.00000  Uiso   1.00
H84    H     0.65254   0.13894   0.28967   0.00000  Uiso   1.00
H85    H     0.56218   0.04539   0.46346   0.00000  Uiso   1.00
H86    H     0.55532   0.02563   0.01596   0.00000  Uiso   1.00
H87    H     0.50968   0.02267   0.49323   0.00000  Uiso   1.00
H88    H     0.53927   0.00321   0.21299   0.00000  Uiso   1.00
H89    H     0.50467   0.06624   0.44059   0.00000  Uiso   1.00
H90    H     0.50671   0.19543   0.07442   0.00000  Uiso   1.00
H91    H     0.46092   0.25608   0.41810   0.00000  Uiso   1.00
H92    H     0.48816   0.23553   0.03889   0.00000  Uiso   1.00
H93    H     0.46595   0.27919   0.49460   0.00000  Uiso   1.00
H94    H     0.47817   0.11036   0.40207   0.00000  Uiso   1.00
H95    H     0.34883   0.19448   0.21073   0.00000  Uiso   1.00
O96    O     0.50000   0.16667   0.25000   0.00000  Uiso   1.00
O97    O     0.48784   0.12637   0.15458   0.00000  Uiso   1.00
O98    O     0.46274   0.20391   0.34968   0.00000  Uiso   1.00
O99    O     0.54157   0.17759   0.14606   0.00000  Uiso   1.00
O100   O     0.50785   0.15880   0.34968   0.00000  Uiso   1.00
O101   O     0.51264   0.08019   0.28213   0.00000  Uiso   1.00
O102   O     0.47965   0.26085   0.27013   0.00000  Uiso   1.00
O103   O     0.40745   0.13291   0.23413   0.00000  Uiso   1.00
O104   O     0.60026   0.19272   0.21360   0.00000  Uiso   1.00
O105   O     0.40405   0.18878   0.28213   0.00000  Uiso   1.00
O106   O     0.58824   0.15226   0.27013   0.00000  Uiso   1.00
O107   O     0.47093   0.06944   0.23413   0.00000  Uiso   1.00
O108   O     0.53678   0.25620   0.21360   0.00000  Uiso   1.00
Zn109  Zn    0.52672   0.13994   0.28734   0.00000  Uiso   1.00
Zn110  Zn    0.46713   0.12458   0.21875   0.00000  Uiso   1.00
Zn111  Zn    0.54389   0.19775   0.20657   0.00000  Uiso   1.00
Zn112  Zn    0.46226   0.20439   0.28733   0.00000  Uiso   1.00
Br113  Br    0.88572   0.06225   0.09726   0.00000  Uiso   1.00
Br114  Br    0.76710   0.32774   0.31021   0.00000  Uiso   1.00
C115   C     0.71937   0.15956   0.26007   0.00000  Uiso   1.00
C116   C     0.84670   0.16561   0.05716   0.00000  Uiso   1.00
C117   C     0.86783   0.09828   0.06204   0.00000  Uiso   1.00
C118   C     0.94737   0.17378   0.24009   0.00000  Uiso   1.00
C119   C     0.81001   0.19414   0.41971   0.00000  Uiso   1.00
C120   C     0.99321   0.17653   0.23623   0.00000  Uiso   1.00
C121   C     0.67410   0.15703   0.26391   0.00000  Uiso   1.00
C122   C     0.84589   0.32227   0.23781   0.00000  Uiso   1.00
C123   C     0.81730   0.01251   0.26471   0.00000  Uiso   1.00
C124   C     0.82335   0.05599   0.25957   0.00000  Uiso   1.00
C125   C     0.84289   0.27783   0.24045   0.00000  Uiso   1.00
C126   C     0.80515   0.24783   0.48115   0.00000  Uiso   1.00
C127   C     0.85178   0.14786   0.12942   0.00000  Uiso   1.00
C128   C     0.81479   0.18421   0.37107   0.00000  Uiso   1.00
C129   C     0.86270   0.08509   0.01855   0.00000  Uiso   1.00
C130   C     0.85848   0.13805   0.08126   0.00000  Uiso   1.00
C131   C     0.80168   0.23433   0.43796   0.00000  Uiso   1.00
C132   C     0.87299   0.04238   0.49694   0.00000  Uiso   1.00
C133   C     0.81803   0.22198   0.00647   0.00000  Uiso   1.00
C134   C     0.82581   0.18070   0.48979   0.00000  Uiso   1.00
C135   C     0.81922   0.16622   0.44673   0.00000  Uiso   1.00
C136   C     0.84004   0.15341   0.01423   0.00000  Uiso   1.00
C137   C     0.84679   0.11207   0.49556   0.00000  Uiso   1.00
C138   C     0.83605   0.09797   0.45490   0.00000  Uiso   1.00
C139   C     0.82152   0.12409   0.43175   0.00000  Uiso   1.00
H140   H     0.98587   0.13894   0.28967   0.00000  Uiso   1.00
H141   H     0.89551   0.04539   0.46346   0.00000  Uiso   1.00
H142   H     0.88866   0.02563   0.01596   0.00000  Uiso   1.00
H143   H     0.84301   0.02267   0.49323   0.00000  Uiso   1.00
H144   H     0.87260   0.00321   0.21299   0.00000  Uiso   1.00
H145   H     0.83800   0.06624   0.44059   0.00000  Uiso   1.00
H146   H     0.84004   0.19543   0.07442   0.00000  Uiso   1.00
H147   H     0.79426   0.25608   0.41810   0.00000  Uiso   1.00
H148   H     0.82150   0.23553   0.03889   0.00000  Uiso   1.00
H149   H     0.79929   0.27919   0.49460   0.00000  Uiso   1.00
H150   H     0.81150   0.11036   0.40207   0.00000  Uiso   1.00
H151   H     0.68216   0.19448   0.21073   0.00000  Uiso   1.00
O152   O     0.83333   0.16667   0.25000   0.00000  Uiso   1.00
O153   O     0.82118   0.12637   0.15458   0.00000  Uiso   1.00
O154   O     0.79607   0.20391   0.34968   0.00000  Uiso   1.00
O155   O     0.87491   0.17759   0.14606   0.00000  Uiso   1.00
O156   O     0.84118   0.15880   0.34968   0.00000  Uiso   1.00
O157   O     0.84597   0.08019   0.28213   0.00000  Uiso   1.00
O158   O     0.81298   0.26085   0.27013   0.00000  Uiso   1.00
O159   O     0.74078   0.13291   0.23413   0.00000  Uiso   1.00
O160   O     0.93360   0.19272   0.21360   0.00000  Uiso   1.00
O161   O     0.73738   0.18878   0.28213   0.00000  Uiso   1.00
O162   O     0.92158   0.15226   0.27013   0.00000  Uiso   1.00
O163   O     0.80426   0.06944   0.23413   0.00000  Uiso   1.00
O164   O     0.87012   0.25620   0.21360   0.00000  Uiso   1.00
Zn165  Zn    0.86005   0.13994   0.28734   0.00000  Uiso   1.00
Zn166  Zn    0.80046   0.12458   0.21875   0.00000  Uiso   1.00
Zn167  Zn    0.87723   0.19775   0.20657   0.00000  Uiso   1.00
Zn168  Zn    0.79560   0.20439   0.28733   0.00000  Uiso   1.00
Br169  Br    0.21905   0.39558   0.09726   0.00000  Uiso   1.00
Br170  Br    0.10043   0.66107   0.31021   0.00000  Uiso   1.00
C171   C     0.05271   0.49289   0.26007   0.00000  Uiso   1.00
C172   C     0.18003   0.49894   0.05716   0.00000  Uiso   1.00
C173   C     0.20117   0.43162   0.06204   0.00000  Uiso   1.00
C174   C     0.28070   0.50711   0.24009   0.00000  Uiso   1.00
C175   C     0.14334   0.52747   0.41971   0.00000  Uiso   1.00
C176   C     0.32654   0.50986   0.23623   0.00000  Uiso   1.00
C177   C     0.00744   0.49036   0.26391   0.00000  Uiso   1.00
C178   C     0.17922   0.65561   0.23781   0.00000  Uiso   1.00
C179   C     0.15063   0.34585   0.26471   0.00000  Uiso   1.00
C180   C     0.15668   0.38932   0.25957   0.00000  Uiso   1.00
C181   C     0.17622   0.61116   0.24045   0.00000  Uiso   1.00
C182   C     0.13848   0.58116   0.48115   0.00000  Uiso   1.00
C183   C     0.18512   0.48119   0.12942   0.00000  Uiso   1.00
C184   C     0.14812   0.51754   0.37107   0.00000  Uiso   1.00
C185   C     0.19603   0.41843   0.01855   0.00000  Uiso   1.00
C186   C     0.19181   0.47138   0.08126   0.00000  Uiso   1.00
C187   C     0.13501   0.56766   0.43796   0.00000  Uiso   1.00
C188   C     0.20632   0.37571   0.49694   0.00000  Uiso   1.00
C189   C     0.15137   0.55532   0.00647   0.00000  Uiso   1.00
C190   C     0.15914   0.51404   0.48979   0.00000  Uiso   1.00
C191   C     0.15255   0.49955   0.44673   0.00000  Uiso   1.00
C192   C     0.17337   0.48674   0.01423   0.00000  Uiso   1.00
C193   C     0.18012   0.44541   0.49556   0.00000  Uiso   1.00
C194   C     0.16938   0.43130   0.45490   0.00000  Uiso   1.00
C195   C     0.15485   0.45742   0.43175   0.00000  Uiso   1.00
H196   H     0.31920   0.47227   0.28967   0.00000  Uiso   1.00
H197   H     0.22885   0.37872   0.46346   0.00000  Uiso   1.00
H198   H     0.22199   0.35896   0.01596   0.00000  Uiso   1.00
H199   H     0.17635   0.35600   0.49323   0.00000  Uiso   1.00
H200   H     0.20593   0.33654   0.21299   0.00000  Uiso   1.00
H201   H     0.17133   0.39958   0.44059   0.00000  Uiso   1.00
H202   H     0.17337   0.52877   0.07442   0.00000  Uiso   1.00
H203   H     0.12759   0.58941   0.41810   0.00000  Uiso   1.00
H204   H     0.15483   0.56887   0.03889   0.00000  Uiso   1.00
H205   H     0.13262   0.61252   0.49460   0.00000  Uiso   1.00
H206   H     0.14483   0.44369   0.40207   0.00000  Uiso   1.00
H207   H     0.01550   0.52781   0.21073   0.00000  Uiso   1.00
O208   O     0.16667   0.50000   0.25000   0.00000  Uiso   1.00
O209   O     0.15451   0.45970   0.15458   0.00000  Uiso   1.00
O210   O     0.12940   0.53724   0.34968   0.00000  Uiso   1.00
O211   O     0.20824   0.51092   0.14606   0.00000  Uiso   1.00
O212   O     0.17451   0.49213   0.34968   0.00000  Uiso   1.00
O213   O     0.17930   0.41352   0.28213   0.00000  Uiso   1.00
O214   O     0.14632   0.59418   0.27013   0.00000  Uiso   1.00
O215   O     0.07412   0.46625   0.23413   0.00000  Uiso   1.00
O216   O     0.26693   0.52605   0.21360   0.00000  Uiso   1.00
O217   O     0.07071   0.52211   0.28213   0.00000  Uiso   1.00
O218   O     0.25491   0.48559   0.27013   0.00000  Uiso   1.00
O219   O     0.13760   0.40277   0.23413   0.00000  Uiso   1.00
O220   O     0.20345   0.58953   0.21360   0.00000  Uiso   1.00
Zn221  Zn    0.19338   0.47327   0.28734   0.00000  Uiso   1.00
Zn222  Zn    0.13379   0.45791   0.21875   0.00000  Uiso   1.00
Zn223  Zn    0.21056   0.53109   0.20657   0.00000  Uiso   1.00
Zn224  Zn    0.12893   0.53773   0.28733   0.00000  Uiso   1.00
Br225  Br    0.55239   0.39558   0.09726   0.00000  Uiso   1.00
Br226  Br    0.43377   0.66107   0.31021   0.00000  Uiso   1.00
C227   C     0.38604   0.49289   0.26007   0.00000  Uiso   1.00
C228   C     0.51337   0.49894   0.05716   0.00000  Uiso   1.00
C229   C     0.53450   0.43162   0.06204   0.00000  Uiso   1.00
C230   C     0.61404   0.50711   0.24009   0.00000  Uiso   1.00
C231   C     0.47667   0.52747   0.41971   0.00000  Uiso   1.00
C232   C     0.65987   0.50986   0.23623   0.00000  Uiso   1.00
C233   C     0.34077   0.49036   0.26391   0.00000  Uiso   1.00
C234   C     0.51256   0.65561   0.23781   0.00000  Uiso   1.00
C235   C     0.48397   0.34585   0.26471   0.00000  Uiso   1.00
C236   C     0.49001   0.38932   0.25957   0.00000  Uiso   1.00
C237   C     0.50956   0.61116   0.24045   0.00000  Uiso   1.00
C238   C     0.47181   0.58116   0.48115   0.00000  Uiso   1.00
C239   C     0.51845   0.48119   0.12942   0.00000  Uiso   1.00
C240   C     0.48146   0.51754   0.37107   0.00000  Uiso   1.00
C241   C     0.52936   0.41843   0.01855   0.00000  Uiso   1.00
C242   C     0.52515   0.47138   0.08126   0.00000  Uiso   1.00
C243   C     0.46834   0.56766   0.43796   0.00000  Uiso   1.00
C244   C     0.53966   0.37571   0.49694   0.00000  Uiso   1.00
C245   C     0.48470   0.55532   0.00647   0.00000  Uiso   1.00
C246   C     0.49248   0.51404   0.48979   0.00000  Uiso   1.00
C247   C     0.48589   0.49955   0.44673   0.00000  Uiso   1.00
C248   C     0.50670   0.48674   0.01423   0.00000  Uiso   1.00
C249   C     0.51345   0.44541   0.49556   0.00000  Uiso   1.00
C250   C     0.50272   0.43130   0.45490   0.00000  Uiso   1.00
C251   C     0.48818   0.45742   0.43175   0.00000  Uiso   1.00
H252   H     0.65254   0.47227   0.28967   0.00000  Uiso   1.00
H253   H     0.56218   0.37872   0.46346   0.00000  Uiso   1.00
H254   H     0.55532   0.35896   0.01596   0.00000  Uiso   1.00
H255   H     0.50968   0.35600   0.49323   0.00000  Uiso   1.00
H256   H     0.53927   0.33654   0.21299   0.00000  Uiso   1.00
H257   H     0.50467   0.39958   0.44059   0.00000  Uiso   1.00
H258   H     0.50671   0.52877   0.07442   0.00000  Uiso   1.00
H259   H     0.46092   0.58941   0.41810   0.00000  Uiso   1.00
H260   H     0.48816   0.56887   0.03889   0.00000  Uiso   1.00
H261   H     0.46595   0.61252   0.49460   0.00000  Uiso   1.00
H262   H     0.47817   0.44369   0.40207   0.00000  Uiso   1.00
H263   H     0.34883   0.52781   0.21073   0.00000  Uiso   1.00
O264   O     0.50000   0.50000   0.25000   0.00000  Uiso   1.00
O265   O     0.48784   0.45970   0.15458   0.00000  Uiso   1.00
O266   O     0.46274   0.53724   0.34968   0.00000  Uiso   1.00
O267   O     0.54157   0.51092   0.14606   0.00000  Uiso   1.00
O268   O     0.50785   0.49213   0.34968   0.00000  Uiso   1.00
O269   O     0.51264   0.41352   0.28213   0.00000  Uiso   1.00
O270   O     0.47965   0.59418   0.27013   0.00000  Uiso   1.00
O271   O     0.40745   0.46625   0.23413   0.00000  Uiso   1.00
O272   O     0.60026   0.52605   0.21360   0.00000  Uiso   1.00
O273   O     0.40405   0.52211   0.28213   0.00000  Uiso   1.00
O274   O     0.58824   0.48559   0.27013   0.00000  Uiso   1.00
O275   O     0.47093   0.40277   0.23413   0.00000  Uiso   1.00
O276   O     0.53678   0.58953   0.21360   0.00000  Uiso   1.00
Zn277  Zn    0.52672   0.47327   0.28734   0.00000  Uiso   1.00
Zn278  Zn    0.46713   0.45791   0.21875   0.00000  Uiso   1.00
Zn279  Zn    0.54389   0.53109   0.20657   0.00000  Uiso   1.00
Zn280  Zn    0.46226   0.53773   0.28733   0.00000  Uiso   1.00
Br281  Br    0.88572   0.39558   0.09726   0.00000  Uiso   1.00
Br282  Br    0.76710   0.66107   0.31021   0.00000  Uiso   1.00
C283   C     0.71937   0.49289   0.26007   0.00000  Uiso   1.00
C284   C     0.84670   0.49894   0.05716   0.00000  Uiso   1.00
C285   C     0.86783   0.43162   0.06204   0.00000  Uiso   1.00
C286   C     0.94737   0.50711   0.24009   0.00000  Uiso   1.00
C287   C     0.81001   0.52747   0.41971   0.00000  Uiso   1.00
C288   C     0.99321   0.50986   0.23623   0.00000  Uiso   1.00
C289   C     0.67410   0.49036   0.26391   0.00000  Uiso   1.00
C290   C     0.84589   0.65561   0.23781   0.00000  Uiso   1.00
C291   C     0.81730   0.34585   0.26471   0.00000  Uiso   1.00
C292   C     0.82335   0.38932   0.25957   0.00000  Uiso   1.00
C293   C     0.84289   0.61116   0.24045   0.00000  Uiso   1.00
C294   C     0.80515   0.58116   0.48115   0.00000  Uiso   1.00
C295   C     0.85178   0.48119   0.12942   0.00000  Uiso   1.00
C296   C     0.81479   0.51754   0.37107   0.00000  Uiso   1.00
C297   C     0.86270   0.41843   0.01855   0.00000  Uiso   1.00
C298   C     0.85848   0.47138   0.08126   0.00000  Uiso   1.00
C299   C     0.80168   0.56766   0.43796   0.00000  Uiso   1.00
C300   C     0.87299   0.37571   0.49694   0.00000  Uiso   1.00
C301   C     0.81803   0.55532   0.00647   0.00000  Uiso   1.00
C302   C     0.82581   0.51404   0.48979   0.00000  Uiso   1.00
C303   C     0.81922   0.49955   0.44673   0.00000  Uiso   1.00
C304   C     0.84004   0.48674   0.01423   0.00000  Uiso   1.00
C305   C     0.84679   0.44541   0.49556   0.00000  Uiso   1.00
C306   C     0.83605   0.43130   0.45490   0.00000  Uiso   1.00
C307   C     0.82152   0.45742   0.43175   0.00000  Uiso   1.00
H308   H     0.98587   0.47227   0.28967   0.00000  Uiso   1.00
H309   H     0.89551   0.37872   0.46346   0.00000  Uiso   1.00
H310   H     0.88866   0.35896   0.01596   0.00000  Uiso   1.00
H311   H     0.84301   0.35600   0.49323   0.00000  Uiso   1.00
H312   H     0.87260   0.33654   0.21299   0.00000  Uiso   1.00
H313   H     0.83800   0.39958   0.44059   0.00000  Uiso   1.00
H314   H     0.84004   0.52877   0.07442   0.00000  Uiso   1.00
H315   H     0.79426   0.58941   0.41810   0.00000  Uiso   1.00
H316   H     0.82150   0.56887   0.03889   0.00000  Uiso   1.00
H317   H     0.79929   0.61252   0.49460   0.00000  Uiso   1.00
H318   H     0.81150   0.44369   0.40207   0.00000  Uiso   1.00
H319   H     0.68216   0.52781   0.21073   0.00000  Uiso   1.00
O320   O     0.83333   0.50000   0.25000   0.00000  Uiso   1.00
O321   O     0.82118   0.45970   0.15458   0.00000  Uiso   1.00
O322   O     0.79607   0.53724   0.34968   0.00000  Uiso   1.00
O323   O     0.87491   0.51092   0.14606   0.00000  Uiso   1.00
O324   O     0.84118   0.49213   0.34968   0.00000  Uiso   1.00
O325   O     0.84597   0.41352   0.28213   0.00000  Uiso   1.00
O326   O     0.81298   0.59418   0.27013   0.00000  Uiso   1.00
O327   O     0.74078   0.46625   0.23413   0.00000  Uiso   1.00
O328   O     0.93360   0.52605   0.21360   0.00000  Uiso   1.00
O329   O     0.73738   0.52211   0.28213   0.00000  Uiso   1.00
O330   O     0.92158   0.48559   0.27013   0.00000  Uiso   1.00
O331   O     0.80426   0.40277   0.23413   0.00000  Uiso   1.00
O332   O     0.87012   0.58953   0.21360   0.00000  Uiso   1.00
Zn333  Zn    0.86005   0.47327   0.28734   0.00000  Uiso   1.00
Zn334  Zn    0.80046   0.45791   0.21875   0.00000  Uiso   1.00
Zn335  Zn    0.87723   0.53109   0.20657   0.00000  Uiso   1.00
Zn336  Zn    0.79560   0.53773   0.28733   0.00000  Uiso   1.00
Br337  Br    0.21905   0.72891   0.09726   0.00000  Uiso   1.00
Br338  Br    0.10043   0.99441   0.31021   0.00000  Uiso   1.00
C339   C     0.05271   0.82622   0.26007   0.00000  Uiso   1.00
C340   C     0.18003   0.83227   0.05716   0.00000  Uiso   1.00
C341   C     0.20117   0.76495   0.06204   0.00000  Uiso   1.00
C342   C     0.28070   0.84045   0.24009   0.00000  Uiso   1.00
C343   C     0.14334   0.86080   0.41971   0.00000  Uiso   1.00
C344   C     0.32654   0.84320   0.23623   0.00000  Uiso   1.00
C345   C     0.00744   0.82370   0.26391   0.00000  Uiso   1.00
C346   C     0.17922   0.98894   0.23781   0.00000  Uiso   1.00
C347   C     0.15063   0.67918   0.26471   0.00000  Uiso   1.00
C348   C     0.15668   0.72265   0.25957   0.00000  Uiso   1.00
C349   C     0.17622   0.94449   0.24045   0.00000  Uiso   1.00
C350   C     0.13848   0.91450   0.48115   0.00000  Uiso   1.00
C351   C     0.18512   0.81453   0.12942   0.00000  Uiso   1.00
C352   C     0.14812   0.85088   0.37107   0.00000  Uiso   1.00
C353   C     0.19603   0.75176   0.01855   0.00000  Uiso   1.00
C354   C     0.19181   0.80471   0.08126   0.00000  Uiso   1.00
C355   C     0.13501   0.90099   0.43796   0.00000  Uiso   1.00
C356   C     0.20632   0.70905   0.49694   0.00000  Uiso   1.00
C357   C     0.15137   0.88865   0.00647   0.00000  Uiso   1.00
C358   C     0.15914   0.84737   0.48979   0.00000  Uiso   1.00
C359   C     0.15255   0.83289   0.44673   0.00000  Uiso   1.00
C360   C     0.17337   0.82007   0.01423   0.00000  Uiso   1.00
C361   C     0.18012   0.77874   0.49556   0.00000  Uiso   1.00
C362   C     0.16938   0.76464   0.45490   0.00000  Uiso   1.00
C363   C     0.15485   0.79075   0.43175   0.00000  Uiso   1.00
H364   H     0.31920   0.80561   0.28967   0.00000  Uiso   1.00
H365   H     0.22885   0.71206   0.46346   0.00000  Uiso   1.00
H366   H     0.22199   0.69229   0.01596   0.00000  Uiso   1.00
H367   H     0.17635   0.68934   0.49323   0.00000  Uiso   1.00
H368   H     0.20593   0.66988   0.21299   0.00000  Uiso   1.00
H369   H     0.17133   0.73291   0.44059   0.00000  Uiso   1.00
H370   H     0.17337   0.86210   0.07442   0.00000  Uiso   1.00
H371   H     0.12759   0.92274   0.41810   0.00000  Uiso   1.00
H372   H     0.15483   0.90220   0.03889   0.00000  Uiso   1.00
H373   H     0.13262   0.94585   0.49460   0.00000  Uiso   1.00
H374   H     0.14483   0.77702   0.40207   0.00000  Uiso   1.00
H375   H     0.01550   0.86114   0.21073   0.00000  Uiso   1.00
O376   O     0.16667   0.83333   0.25000   0.00000  Uiso   1.00
O377   O     0.15451   0.79304   0.15458   0.00000  Uiso   1.00
O378   O     0.12940   0.87058   0.34968   0.00000  Uiso   1.00
O379   O     0.20824   0.84425   0.14606   0.00000  Uiso   1.00
O380   O     0.17451   0.82546   0.34968   0.00000  Uiso   1.00
O381   O     0.17930   0.74686   0.28213   0.00000  Uiso   1.00
O382   O     0.14632   0.92751   0.27013   0.00000  Uiso   1.00
O383   O     0.07412   0.79958   0.23413   0.00000  Uiso   1.00
O384   O     0.26693   0.85939   0.21360   0.00000  Uiso   1.00
O385   O     0.07071   0.85544   0.28213   0.00000  Uiso   1.00
O386   O     0.25491   0.81892   0.27013   0.00000  Uiso   1.00
O387   O     0.13760   0.73610   0.23413   0.00000  Uiso   1.00
O388   O     0.20345   0.92286   0.21360   0.00000  Uiso   1.00
Zn389  Zn    0.19338   0.80661   0.28734   0.00000  Uiso   1.00
Zn390  Zn    0.13379   0.79124   0.21875   0.00000  Uiso   1.00
Zn391  Zn    0.21056   0.86442   0.20657   0.00000  Uiso   1.00
Zn392  Zn    0.12893   0.87106   0.28733   0.00000  Uiso   1.00
Br393  Br    0.55239   0.72891   0.09726   0.00000  Uiso   1.00
Br394  Br    0.43377   0.99441   0.31021   0.00000  Uiso   1.00
C395   C     0.38604   0.82622   0.26007   0.00000  Uiso   1.00
C396   C     0.51337   0.83227   0.05716   0.00000  Uiso   1.00
C397   C     0.53450   0.76495   0.06204   0.00000  Uiso   1.00
C398   C     0.61404   0.84045   0.24009   0.00000  Uiso   1.00
C399   C     0.47667   0.86080   0.41971   0.00000  Uiso   1.00
C400   C     0.65987   0.84320   0.23623   0.00000  Uiso   1.00
C401   C     0.34077   0.82370   0.26391   0.00000  Uiso   1.00
C402   C     0.51256   0.98894   0.23781   0.00000  Uiso   1.00
C403   C     0.48397   0.67918   0.26471   0.00000  Uiso   1.00
C404   C     0.49001   0.72265   0.25957   0.00000  Uiso   1.00
C405   C     0.50956   0.94449   0.24045   0.00000  Uiso   1.00
C406   C     0.47181   0.91450   0.48115   0.00000  Uiso   1.00
C407   C     0.51845   0.81453   0.12942   0.00000  Uiso   1.00
C408   C     0.48146   0.85088   0.37107   0.00000  Uiso   1.00
C409   C     0.52936   0.75176   0.01855   0.00000  Uiso   1.00
C410   C     0.52515   0.80471   0.08126   0.00000  Uiso   1.00
C411   C     0.46834   0.90099   0.43796   0.00000  Uiso   1.00
C412   C     0.53966   0.70905   0.49694   0.00000  Uiso   1.00
C413   C     0.48470   0.88865   0.00647   0.00000  Uiso   1.00
C414   C     0.49248   0.84737   0.48979   0.00000  Uiso   1.00
C415   C     0.48589   0.83289   0.44673   0.00000  Uiso   1.00
C416   C     0.50670   0.82007   0.01423   0.00000  Uiso   1.00
C417   C     0.51345   0.77874   0.49556   0.00000  Uiso   1.00
C418   C     0.50272   0.76464   0.45490   0.00000  Uiso   1.00
C419   C     0.48818   0.79075   0.43175   0.00000  Uiso   1.00
H420   H     0.65254   0.80561   0.28967   0.00000  Uiso   1.00
H421   H     0.56218   0.71206   0.46346   0.00000  Uiso   1.00
H422   H     0.55532   0.69229   0.01596   0.00000  Uiso   1.00
H423   H     0.50968   0.68934   0.49323   0.00000  Uiso   1.00
H424   H     0.53927   0.66988   0.21299   0.00000  Uiso   1.00
H425   H     0.50467   0.73291   0.44059   0.00000  Uiso   1.00
H426   H     0.50671   0.86210   0.07442   0.00000  Uiso   1.00
H427   H     0.46092   0.92274   0.41810   0.00000  Uiso   1.00
H428   H     0.48816   0.90220   0.03889   0.00000  Uiso   1.00
H429   H     0.46595   0.94585   0.49460   0.00000  Uiso   1.00
H430   H     0.47817   0.77702   0.40207   0.00000  Uiso   1.00
H431   H     0.34883   0.86114   0.21073   0.00000  Uiso   1.00
O432   O     0.50000   0.83333   0.25000   0.00000  Uiso   1.00
O433   O     0.48784   0.79304   0.15458   0.00000  Uiso   1.00
O434   O     0.46274   0.87058   0.34968   0.00000  Uiso   1.00
O435   O     0.54157   0.84425   0.14606   0.00000  Uiso   1.00
O436   O     0.50785   0.82546   0.34968   0.00000  Uiso   1.00
O437   O     0.51264   0.74686   0.28213   0.00000  Uiso   1.00
O438   O     0.47965   0.92751   0.27013   0.00000  Uiso   1.00
O439   O     0.40745   0.79958   0.23413   0.00000  Uiso   1.00
O440   O     0.60026   0.85939   0.21360   0.00000  Uiso   1.00
O441   O     0.40405   0.85544   0.28213   0.00000  Uiso   1.00
O442   O     0.58824   0.81892   0.27013   0.00000  Uiso   1.00
O443   O     0.47093   0.73610   0.23413   0.00000  Uiso   1.00
O444   O     0.53678   0.92286   0.21360   0.00000  Uiso   1.00
Zn445  Zn    0.52672   0.80661   0.28734   0.00000  Uiso   1.00
Zn446  Zn    0.46713   0.79124   0.21875   0.00000  Uiso   1.00
Zn447  Zn    0.54389   0.86442   0.20657   0.00000  Uiso   1.00
Zn448  Zn    0.46226   0.87106   0.28733   0.00000  Uiso   1.00
Br449  Br    0.88572   0.72891   0.09726   0.00000  Uiso   1.00
Br450  Br    0.76710   0.99441   0.31021   0.00000  Uiso   1.00
C451   C     0.71937   0.82622   0.26007   0.00000  Uiso   1.00
C452   C     0.84670   0.83227   0.05716   0.00000  Uiso   1.00
C453   C     0.86783   0.76495   0.06204   0.00000  Uiso   1.00
C454   C     0.94737   0.84045   0.24009   0.00000  Uiso   1.00
C455   C     0.81001   0.86080   0.41971   0.00000  Uiso   1.00
C456   C     0.99321   0.84320   0.23623   0.00000  Uiso   1.00
C457   C     0.67410   0.82370   0.26391   0.00000  Uiso   1.00
C458   C     0.84589   0.98894   0.23781   0.00000  Uiso   1.00
C459   C     0.81730   0.67918   0.26471   0.00000  Uiso   1.00
C460   C     0.82335   0.72265   0.25957   0.00000  Uiso   1.00
C461   C     0.84289   0.94449   0.24045   0.00000  Uiso   1.00
C462   C     0.80515   0.91450   0.48115   0.00000  Uiso   1.00
C463   C     0.85178   0.81453   0.12942   0.00000  Uiso   1.00
C464   C     0.81479   0.85088   0.37107   0.00000  Uiso   1.00
C465   C     0.86270   0.75176   0.01855   0.00000  Uiso   1.00
C466   C     0.85848   0.80471   0.08126   0.00000  Uiso   1.00
C467   C     0.80168   0.90099   0.43796   0.00000  Uiso   1.00
C468   C     0.87299   0.70905   0.49694   0.00000  Uiso   1.00
C469   C     0.81803   0.88865   0.00647   0.00000  Uiso   1.00
C470   C     0.82581   0.84737   0.48979   0.00000  Uiso   1.00
C471   C     0.81922   0.83289   0.44673   0.00000  Uiso   1.00
C472   C     0.84004   0.82007   0.01423   0.00000  Uiso   1.00
C473   C     0.84679   0.77874   0.49556   0.00000  Uiso   1.00
C474   C     0.83605   0.76464   0.45490   0.00000  Uiso   1.00
C475   C     0.82152   0.79075   0.43175   0.00000  Uiso   1.00
H476   H     0.98587   0.80561   0.28967   0.00000  Uiso   1.00
H477   H     0.89551   0.71206   0.46346   0.00000  Uiso   1.00
H478   H     0.88866   0.69229   0.01596   0.00000  Uiso   1.00
H479   H     0.84301   0.68934   0.49323   0.00000  Uiso   1.00
H480   H     0.87260   0.66988   0.21299   0.00000  Uiso   1.00
H481   H     0.83800   0.73291   0.44059   0.00000  Uiso   1.00
H482   H     0.84004   0.86210   0.07442   0.00000  Uiso   1.00
H483   H     0.79426   0.92274   0.41810   0.00000  Uiso   1.00
H484   H     0.82150   0.90220   0.03889   0.00000  Uiso   1.00
H485   H     0.79929   0.94585   0.49460   0.00000  Uiso   1.00
H486   H     0.81150   0.77702   0.40207   0.00000  Uiso   1.00
H487   H     0.68216   0.86114   0.21073   0.00000  Uiso   1.00
O488   O     0.83333   0.83333   0.25000   0.00000  Uiso   1.00
O489   O     0.82118   0.79304   0.15458   0.00000  Uiso   1.00
O490   O     0.79607   0.87058   0.34968   0.00000  Uiso   1.00
O491   O     0.87491   0.84425   0.14606   0.00000  Uiso   1.00
O492   O     0.84118   0.82546   0.34968   0.00000  Uiso   1.00
O493   O     0.84597   0.74686   0.28213   0.00000  Uiso   1.00
O494   O     0.81298   0.92751   0.27013   0.00000  Uiso   1.00
O495   O     0.74078   0.79958   0.23413   0.00000  Uiso   1.00
O496   O     0.93360   0.85939   0.21360   0.00000  Uiso   1.00
O497   O     0.73738   0.85544   0.28213   0.00000  Uiso   1.00
O498   O     0.92158   0.81892   0.27013   0.00000  Uiso   1.00
O499   O     0.80426   0.73610   0.23413   0.00000  Uiso   1.00
O500   O     0.87012   0.92286   0.21360   0.00000  Uiso   1.00
Zn501  Zn    0.86005   0.80661   0.28734   0.00000  Uiso   1.00
Zn502  Zn    0.80046   0.79124   0.21875   0.00000  Uiso   1.00
Zn503  Zn    0.87723   0.86442   0.20657   0.00000  Uiso   1.00
Zn504  Zn    0.79560   0.87106   0.28733   0.00000  Uiso   1.00
Br505  Br    0.21905   0.06225   0.59726   0.00000  Uiso   1.00
Br506  Br    0.10043   0.32774   0.81021   0.00000  Uiso   1.00
C507   C     0.05271   0.15956   0.76007   0.00000  Uiso   1.00
C508   C     0.18003   0.16561   0.55716   0.00000  Uiso   1.00
C509   C     0.20117   0.09828   0.56204   0.00000  Uiso   1.00
C510   C     0.28070   0.17378   0.74009   0.00000  Uiso   1.00
C511   C     0.14334   0.19414   0.91971   0.00000  Uiso   1.00
C512   C     0.32654   0.17653   0.73623   0.00000  Uiso   1.00
C513   C     0.00744   0.15703   0.76391   0.00000  Uiso   1.00
C514   C     0.17922   0.32227   0.73781   0.00000  Uiso   1.00
C515   C     0.15063   0.01251   0.76471   0.00000  Uiso   1.00
C516   C     0.15668   0.05599   0.75957   0.00000  Uiso   1.00
C517   C     0.17622   0.27783   0.74045   0.00000  Uiso   1.00
C518   C     0.13848   0.24783   0.98115   0.00000  Uiso   1.00
C519   C     0.18512   0.14786   0.62942   0.00000  Uiso   1.00
C520   C     0.14812   0.18421   0.87107   0.00000  Uiso   1.00
C521   C     0.19603   0.08509   0.51855   0.00000  Uiso   1.00
C522   C     0.19181   0.13805   0.58126   0.00000  Uiso   1.00
C523   C     0.13501   0.23433   0.93796   0.00000  Uiso   1.00
C524   C     0.20632   0.04238   0.99694   0.00000  Uiso   1.00
C525   C     0.15137   0.22198   0.50647   0.00000  Uiso   1.00
C526   C     0.15914   0.18070   0.98979   0.00000  Uiso   1.00
C527   C     0.15255   0.16622   0.94673   0.00000  Uiso   1.00
C528   C     0.17337   0.15341   0.51423   0.00000  Uiso   1.00
C529   C     0.18012   0.11207   0.99556   0.00000  Uiso   1.00
C530   C     0.16938   0.09797   0.95490   0.00000  Uiso   1.00
C531   C     0.15485   0.12409   0.93175   0.00000  Uiso   1.00
H532   H     0.31920   0.13894   0.78967   0.00000  Uiso   1.00
H533   H     0.22885   0.04539   0.96346   0.00000  Uiso   1.00
H534   H     0.22199   0.02563   0.51596   0.00000  Uiso   1.00
H535   H     0.17635   0.02267   0.99323   0.00000  Uiso   1.00
H536   H     0.20593   0.00321   0.71299   0.00000  Uiso   1.00
H537   H     0.17133   0.06624   0.94059   0.00000  Uiso   1.00
H538   H     0.17337   0.19543   0.57442   0.00000  Uiso   1.00
H539   H     0.12759   0.25608   0.91810   0.00000  Uiso   1.00
H540   H     0.15483   0.23553   0.53889   0.00000  Uiso   1.00
H541   H     0.13262   0.27919   0.99460   0.00000  Uiso   1.00
H542   H     0.14483   0.11036   0.90207   0.00000  Uiso   1.00
H543   H     0.01550   0.19448   0.71073   0.00000  Uiso   1.00
O544   O     0.16667   0.16667   0.75000   0.00000  Uiso   1.00
O545   O     0.15451   0.12637   0.65458   0.00000  Uiso   1.00
O546   O     0.12940   0.20391   0.84968   0.00000  Uiso   1.00
O547   O     0.20824   0.17759   0.64606   0.00000  Uiso   1.00
O548   O     0.17451   0.15880   0.84968   0.00000  Uiso   1.00
O549   O     0.17930   0.08019   0.78213   0.00000  Uiso   1.00
O550   O     0.14632   0.26085   0.77013   0.00000  Uiso   1.00
O551   O     0.07412   0.13291   0.73413   0.00000  Uiso   1.00
O552   O     0.26693   0.19272   0.71360   0.00000  Uiso   1.00
O553   O     0.07071   0.18878   0.78213   0.00000  Uiso   1.00
O554   O     0.25491   0.15226   0.77013   0.00000  Uiso   1.00
O555   O     0.13760   0.06944   0.73413   0.00000  Uiso   1.00
O556   O     0.20345   0.25620   0.71360   0.00000  Uiso   1.00
Zn557  Zn    0.19338   0.13994   0.78734   0.00000  Uiso   1.00
Zn558  Zn    0.13379   0.12458   0.71875   0.00000  Uiso   1.00
Zn559  Zn    0.21056   0.19775   0.70657   0.00000  Uiso   1.00
Zn560  Zn    0.12893   0.20439   0.78733   0.00000  Uiso   1.00
Br561  Br    0.55239   0.06225   0.59726   0.00000  Uiso   1.00
Br562  Br    0.43377   0.32774   0.81021   0.00000  Uiso   1.00
C563   C     0.38604   0.15956   0.76007   0.00000  Uiso   1.00
C564   C     0.51337   0.16561   0.55716   0.00000  Uiso   1.00
C565   C     0.53450   0.09828   0.56204   0.00000  Uiso   1.00
C566   C     0.61404   0.17378   0.74009   0.00000  Uiso   1.00
C567   C     0.47667   0.19414   0.91971   0.00000  Uiso   1.00
C568   C     0.65987   0.17653   0.73623   0.00000  Uiso   1.00
C569   C     0.34077   0.15703   0.76391   0.00000  Uiso   1.00
C570   C     0.51256   0.32227   0.73781   0.00000  Uiso   1.00
C571   C     0.48397   0.01251   0.76471   0.00000  Uiso   1.00
C572   C     0.49001   0.05599   0.75957   0.00000  Uiso   1.00
C573   C     0.50956   0.27783   0.74045   0.00000  Uiso   1.00
C574   C     0.47181   0.24783   0.98115   0.00000  Uiso   1.00
C575   C     0.51845   0.14786   0.62942   0.00000  Uiso   1.00
C576   C     0.48146   0.18421   0.87107   0.00000  Uiso   1.00
C577   C     0.52936   0.08509   0.51855   0.00000  Uiso   1.00
C578   C     0.52515   0.13805   0.58126   0.00000  Uiso   1.00
C579   C     0.46834   0.23433   0.93796   0.00000  Uiso   1.00
C580   C     0.53966   0.04238   0.99694   0.00000  Uiso   1.00
C581   C     0.48470   0.22198   0.50647   0.00000  Uiso   1.00
C582   C     0.49248   0.18070   0.98979   0.00000  Uiso   1.00
C583   C     0.48589   0.16622   0.94673   0.00000  Uiso   1.00
C584   C     0.50670   0.15341   0.51423   0.00000  Uiso   1.00
C585   C     0.51345   0.11207   0.99556   0.00000  Uiso   1.00
C586   C     0.50272   0.09797   0.95490   0.00000  Uiso   1.00
C587   C     0.48818   0.12409   0.93175   0.00000  Uiso   1.00
H588   H     0.65254   0.13894   0.78967   0.00000  Uiso   1.00
H589   H     0.56218   0.04539   0.96346   0.00000  Uiso   1.00
H590   H     0.55532   0.02563   0.51596   0.00000  Uiso   1.00
H591   H     0.50968   0.02267   0.99323   0.00000  Uiso   1.00
H592   H     0.53927   0.00321   0.71299   0.00000  Uiso   1.00
H593   H     0.50467   0.06624   0.94059   0.00000  Uiso   1.00
H594   H     0.50671   0.19543   0.57442   0.00000  Uiso   1.00
H595   H     0.46092   0.25608   0.91810   0.00000  Uiso   1.00
H596   H     0.48816   0.23553   0.53889   0.00000  Uiso   1.00
H597   H     0.46595   0.27919   0.99460   0.00000  Uiso   1.00
H598   H     0.47817   0.11036   0.90207   0.00000  Uiso   1.00
H599   H     0.34883   0.19448   0.71073   0.00000  Uiso   1.00
O600   O     0.50000   0.16667   0.75000   0.00000  Uiso   1.00
O601   O     0.48784   0.12637   0.65458   0.00000  Uiso   1.00
O602   O     0.46274   0.20391   0.84968   0.00000  Uiso   1.00
O603   O     0.54157   0.17759   0.64606   0.00000  Uiso   1.00
O604   O     0.50785   0.15880   0.84968   0.00000  Uiso   1.00
O605   O     0.51264   0.08019   0.78213   0.00000  Uiso   1.00
O606   O     0.47965   0.26085   0.77013   0.00000  Uiso   1.00
O607   O     0.40745   0.13291   0.73413   0.00000  Uiso   1.00
O608   O     0.60026   0.19272   0.71360   0.00000  Uiso   1.00
O609   O     0.40405   0.18878   0.78213   0.00000  Uiso   1.00
O610   O     0.58824   0.15226   0.77013   0.00000  Uiso   1.00
O611   O     0.47093   0.06944   0.73413   0.00000  Uiso   1.00
O612   O     0.53678   0.25620   0.71360   0.00000  Uiso   1.00
Zn613  Zn    0.52672   0.13994   0.78734   0.00000  Uiso   1.00
Zn614  Zn    0.46713   0.12458   0.71875   0.00000  Uiso   1.00
Zn615  Zn    0.54389   0.19775   0.70657   0.00000  Uiso   1.00
Zn616  Zn    0.46226   0.20439   0.78733   0.00000  Uiso   1.00
Br617  Br    0.88572   0.06225   0.59726   0.00000  Uiso   1.00
Br618  Br    0.76710   0.32774   0.81021   0.00000  Uiso   1.00
C619   C     0.71937   0.15956   0.76007   0.00000  Uiso   1.00
C620   C     0.84670   0.16561   0.55716   0.00000  Uiso   1.00
C621   C     0.86783   0.09828   0.56204   0.00000  Uiso   1.00
C622   C     0.94737   0.17378   0.74009   0.00000  Uiso   1.00
C623   C     0.81001   0.19414   0.91971   0.00000  Uiso   1.00
C624   C     0.99321   0.17653   0.73623   0.00000  Uiso   1.00
C625   C     0.67410   0.15703   0.76391   0.00000  Uiso   1.00
C626   C     0.84589   0.32227   0.73781   0.00000  Uiso   1.00
C627   C     0.81730   0.01251   0.76471   0.00000  Uiso   1.00
C628   C     0.82335   0.05599   0.75957   0.00000  Uiso   1.00
C629   C     0.84289   0.27783   0.74045   0.00000  Uiso   1.00
C630   C     0.80515   0.24783   0.98115   0.00000  Uiso   1.00
C631   C     0.85178   0.14786   0.62942   0.00000  Uiso   1.00
C632   C     0.81479   0.18421   0.87107   0.00000  Uiso   1.00
C633   C     0.86270   0.08509   0.51855   0.00000  Uiso   1.00
C634   C     0.85848   0.13805   0.58126   0.00000  Uiso   1.00
C635   C     0.80168   0.23433   0.93796   0.00000  Uiso   1.00
C636   C     0.87299   0.04238   0.99694   0.00000  Uiso   1.00
C637   C     0.81803   0.22198   0.50647   0.00000  Uiso   1.00
C638   C     0.82581   0.18070   0.98979   0.00000  Uiso   1.00
C639   C     0.81922   0.16622   0.94673   0.00000  Uiso   1.00
C640   C     0.84004   0.15341   0.51423   0.00000  Uiso   1.00
C641   C     0.84679   0.11207   0.99556   0.00000  Uiso   1.00
C642   C     0.83605   0.09797   0.95490   0.00000  Uiso   1.00
C643   C     0.82152   0.12409   0.93175   0.00000  Uiso   1.00
H644   H     0.98587   0.13894   0.78967   0.00000  Uiso   1.00
H645   H     0.89551   0.04539   0.96346   0.00000  Uiso   1.00
H646   H     0.88866   0.02563   0.51596   0.00000  Uiso   1.00
H647   H     0.84301   0.02267   0.99323   0.00000  Uiso   1.00
H648   H     0.87260   0.00321   0.71299   0.00000  Uiso   1.00
H649   H     0.83800   0.06624   0.94059   0.00000  Uiso   1.00
H650   H     0.84004   0.19543   0.57442   0.00000  Uiso   1.00
H651   H     0.79426   0.25608   0.91810   0.00000  Uiso   1.00
H652   H     0.82150   0.23553   0.53889   0.00000  Uiso   1.00
H653   H     0.79929   0.27919   0.99460   0.00000  Uiso   1.00
H654   H     0.81150   0.11036   0.90207   0.00000  Uiso   1.00
H655   H     0.68216   0.19448   0.71073   0.00000  Uiso   1.00
O656   O     0.83333   0.16667   0.75000   0.00000  Uiso   1.00
O657   O     0.82118   0.12637   0.65458   0.00000  Uiso   1.00
O658   O     0.79607   0.20391   0.84968   0.00000  Uiso   1.00
O659   O     0.87491   0.17759   0.64606   0.00000  Uiso   1.00
O660   O     0.84118   0.15880   0.84968   0.00000  Uiso   1.00
O661   O     0.84597   0.08019   0.78213   0.00000  Uiso   1.00
O662   O     0.81298   0.26085   0.77013   0.00000  Uiso   1.00
O663   O     0.74078   0.13291   0.73413   0.00000  Uiso   1.00
O664   O     0.93360   0.19272   0.71360   0.00000  Uiso   1.00
O665   O     0.73738   0.18878   0.78213   0.00000  Uiso   1.00
O666   O     0.92158   0.15226   0.77013   0.00000  Uiso   1.00
O667   O     0.80426   0.06944   0.73413   0.00000  Uiso   1.00
O668   O     0.87012   0.25620   0.71360   0.00000  Uiso   1.00
Zn669  Zn    0.86005   0.13994   0.78734   0.00000  Uiso   1.00
Zn670  Zn    0.80046   0.12458   0.71875   0.00000  Uiso   1.00
Zn671  Zn    0.87723   0.19775   0.70657   0.00000  Uiso   1.00
Zn672  Zn    0.79560   0.20439   0.78733   0.00000  Uiso   1.00
Br673  Br    0.21905   0.39558   0.59726   0.00000  Uiso   1.00
Br674  Br    0.10043   0.66107   0.81021   0.00000  Uiso   1.00
C675   C     0.05271   0.49289   0.76007   0.00000  Uiso   1.00
C676   C     0.18003   0.49894   0.55716   0.00000  Uiso   1.00
C677   C     0.20117   0.43162   0.56204   0.00000  Uiso   1.00
C678   C     0.28070   0.50711   0.74009   0.00000  Uiso   1.00
C679   C     0.14334   0.52747   0.91971   0.00000  Uiso   1.00
C680   C     0.32654   0.50986   0.73623   0.00000  Uiso   1.00
C681   C     0.00744   0.49036   0.76391   0.00000  Uiso   1.00
C682   C     0.17922   0.65561   0.73781   0.00000  Uiso   1.00
C683   C     0.15063   0.34585   0.76471   0.00000  Uiso   1.00
C684   C     0.15668   0.38932   0.75957   0.00000  Uiso   1.00
C685   C     0.17622   0.61116   0.74045   0.00000  Uiso   1.00
C686   C     0.13848   0.58116   0.98115   0.00000  Uiso   1.00
C687   C     0.18512   0.48119   0.62942   0.00000  Uiso   1.00
C688   C     0.14812   0.51754   0.87107   0.00000  Uiso   1.00
C689   C     0.19603   0.41843   0.51855   0.00000  Uiso   1.00
C690   C     0.19181   0.47138   0.58126   0.00000  Uiso   1.00
C691   C     0.13501   0.56766   0.93796   0.00000  Uiso   1.00
C692   C     0.20632   0.37571   0.99694   0.00000  Uiso   1.00
C693   C     0.15137   0.55532   0.50647   0.00000  Uiso   1.00
C694   C     0.15914   0.51404   0.98979   0.00000  Uiso   1.00
C695   C     0.15255   0.49955   0.94673   0.00000  Uiso   1.00
C696   C     0.17337   0.48674   0.51423   0.00000  Uiso   1.00
C697   C     0.18012   0.44541   0.99556   0.00000  Uiso   1.00
C698   C     0.16938   0.43130   0.95490   0.00000  Uiso   1.00
C699   C     0.15485   0.45742   0.93175   0.00000  Uiso   1.00
H700   H     0.31920   0.47227   0.78967   0.00000  Uiso   1.00
H701   H     0.22885   0.37872   0.96346   0.00000  Uiso   1.00
H702   H     0.22199   0.35896   0.51596   0.00000  Uiso   1.00
H703   H     0.17635   0.35600   0.99323   0.00000  Uiso   1.00
H704   H     0.20593   0.33654   0.71299   0.00000  Uiso   1.00
H705   H     0.17133   0.39958   0.94059   0.00000  Uiso   1.00
H706   H     0.17337   0.52877   0.57442   0.00000  Uiso   1.00
H707   H     0.12759   0.58941   0.91810   0.00000  Uiso   1.00
H708   H     0.15483   0.56887   0.53889   0.00000  Uiso   1.00
H709   H     0.13262   0.61252   0.99460   0.00000  Uiso   1.00
H710   H     0.14483   0.44369   0.90207   0.00000  Uiso   1.00
H711   H     0.01550   0.52781   0.71073   0.00000  Uiso   1.00
O712   O     0.16667   0.50000   0.75000   0.00000  Uiso   1.00
O713   O     0.15451   0.45970   0.65458   0.00000  Uiso   1.00
O714   O     0.12940   0.53724   0.84968   0.00000  Uiso   1.00
O715   O     0.20824   0.51092   0.64606   0.00000  Uiso   1.00
O716   O     0.17451   0.49213   0.84968   0.00000  Uiso   1.00
O717   O     0.17930   0.41352   0.78213   0.00000  Uiso   1.00
O718   O     0.14632   0.59418   0.77013   0.00000  Uiso   1.00
O719   O     0.07412   0.46625   0.73413   0.00000  Uiso   1.00
O720   O     0.26693   0.52605   0.71360   0.00000  Uiso   1.00
O721   O     0.07071   0.52211   0.78213   0.00000  Uiso   1.00
O722   O     0.25491   0.48559   0.77013   0.00000  Uiso   1.00
O723   O     0.13760   0.40277   0.73413   0.00000  Uiso   1.00
O724   O     0.20345   0.58953   0.71360   0.00000  Uiso   1.00
Zn725  Zn    0.19338   0.47327   0.78734   0.00000  Uiso   1.00
Zn726  Zn    0.13379   0.45791   0.71875   0.00000  Uiso   1.00
Zn727  Zn    0.21056   0.53109   0.70657   0.00000  Uiso   1.00
Zn728  Zn    0.12893   0.53773   0.78733   0.00000  Uiso   1.00
Br729  Br    0.55239   0.39558   0.59726   0.00000  Uiso   1.00
Br730  Br    0.43377   0.66107   0.81021   0.00000  Uiso   1.00
C731   C     0.38604   0.49289   0.76007   0.00000  Uiso   1.00
C732   C     0.51337   0.49894   0.55716   0.00000  Uiso   1.00
C733   C     0.53450   0.43162   0.56204   0.00000  Uiso   1.00
C734   C     0.61404   0.50711   0.74009   0.00000  Uiso   1.00
C735   C     0.47667   0.52747   0.91971   0.00000  Uiso   1.00
C736   C     0.65987   0.50986   0.73623   0.00000  Uiso   1.00
C737   C     0.34077   0.49036   0.76391   0.00000  Uiso   1.00
C738   C     0.51256   0.65561   0.73781   0.00000  Uiso   1.00
C739   C     0.48397   0.34585   0.76471   0.00000  Uiso   1.00
C740   C     0.49001   0.38932   0.75957   0.00000  Uiso   1.00
C741   C     0.50956   0.61116   0.74045   0.00000  Uiso   1.00
C742   C     0.47181   0.58116   0.98115   0.00000  Uiso   1.00
C743   C     0.51845   0.48119   0.62942   0.00000  Uiso   1.00
C744   C     0.48146   0.51754   0.87107   0.00000  Uiso   1.00
C745   C     0.52936   0.41843   0.51855   0.00000  Uiso   1.00
C746   C     0.52515   0.47138   0.58126   0.00000  Uiso   1.00
C747   C     0.46834   0.56766   0.93796   0.00000  Uiso   1.00
C748   C     0.53966   0.37571   0.99694   0.00000  Uiso   1.00
C749   C     0.48470   0.55532   0.50647   0.00000  Uiso   1.00
C750   C     0.49248   0.51404   0.98979   0.00000  Uiso   1.00
C751   C     0.48589   0.49955   0.94673   0.00000  Uiso   1.00
C752   C     0.50670   0.48674   0.51423   0.00000  Uiso   1.00
C753   C     0.51345   0.44541   0.99556   0.00000  Uiso   1.00
C754   C     0.50272   0.43130   0.95490   0.00000  Uiso   1.00
C755   C     0.48818   0.45742   0.93175   0.00000  Uiso   1.00
H756   H     0.65254   0.47227   0.78967   0.00000  Uiso   1.00
H757   H     0.56218   0.37872   0.96346   0.00000  Uiso   1.00
H758   H     0.55532   0.35896   0.51596   0.00000  Uiso   1.00
H759   H     0.50968   0.35600   0.99323   0.00000  Uiso   1.00
H760   H     0.53927   0.33654   0.71299   0.00000  Uiso   1.00
H761   H     0.50467   0.39958   0.94059   0.00000  Uiso   1.00
H762   H     0.50671   0.52877   0.57442   0.00000  Uiso   1.00
H763   H     0.46092   0.58941   0.91810   0.00000  Uiso   1.00
H764   H     0.48816   0.56887   0.53889   0.00000  Uiso   1.00
H765   H     0.46595   0.61252   0.99460   0.00000  Uiso   1.00
H766   H     0.47817   0.44369   0.90207   0.00000  Uiso   1.00
H767   H     0.34883   0.52781   0.71073   0.00000  Uiso   1.00
O768   O     0.50000   0.50000   0.75000   0.00000  Uiso   1.00
O769   O     0.48784   0.45970   0.65458   0.00000  Uiso   1.00
O770   O     0.46274   0.53724   0.84968   0.00000  Uiso   1.00
O771   O     0.54157   0.51092   0.64606   0.00000  Uiso   1.00
O772   O     0.50785   0.49213   0.84968   0.00000  Uiso   1.00
O773   O     0.51264   0.41352   0.78213   0.00000  Uiso   1.00
O774   O     0.47965   0.59418   0.77013   0.00000  Uiso   1.00
O775   O     0.40745   0.46625   0.73413   0.00000  Uiso   1.00
O776   O     0.60026   0.52605   0.71360   0.00000  Uiso   1.00
O777   O     0.40405   0.52211   0.78213   0.00000  Uiso   1.00
O778   O     0.58824   0.48559   0.77013   0.00000  Uiso   1.00
O779   O     0.47093   0.40277   0.73413   0.00000  Uiso   1.00
O780   O     0.53678   0.58953   0.71360   0.00000  Uiso   1.00
Zn781  Zn    0.52672   0.47327   0.78734   0.00000  Uiso   1.00
Zn782  Zn    0.46713   0.45791   0.71875   0.00000  Uiso   1.00
Zn783  Zn    0.54389   0.53109   0.70657   0.00000  Uiso   1.00
Zn784  Zn    0.46226   0.53773   0.78733   0.00000  Uiso   1.00
Br785  Br    0.88572   0.39558   0.59726   0.00000  Uiso   1.00
Br786  Br    0.76710   0.66107   0.81021   0.00000  Uiso   1.00
C787   C     0.71937   0.49289   0.76007   0.00000  Uiso   1.00
C788   C     0.84670   0.49894   0.55716   0.00000  Uiso   1.00
C789   C     0.86783   0.43162   0.56204   0.00000  Uiso   1.00
C790   C     0.94737   0.50711   0.74009   0.00000  Uiso   1.00
C791   C     0.81001   0.52747   0.91971   0.00000  Uiso   1.00
C792   C     0.99321   0.50986   0.73623   0.00000  Uiso   1.00
C793   C     0.67410   0.49036   0.76391   0.00000  Uiso   1.00
C794   C     0.84589   0.65561   0.73781   0.00000  Uiso   1.00
C795   C     0.81730   0.34585   0.76471   0.00000  Uiso   1.00
C796   C     0.82335   0.38932   0.75957   0.00000  Uiso   1.00
C797   C     0.84289   0.61116   0.74045   0.00000  Uiso   1.00
C798   C     0.80515   0.58116   0.98115   0.00000  Uiso   1.00
C799   C     0.85178   0.48119   0.62942   0.00000  Uiso   1.00
C800   C     0.81479   0.51754   0.87107   0.00000  Uiso   1.00
C801   C     0.86270   0.41843   0.51855   0.00000  Uiso   1.00
C802   C     0.85848   0.47138   0.58126   0.00000  Uiso   1.00
C803   C     0.80168   0.56766   0.93796   0.00000  Uiso   1.00
C804   C     0.87299   0.37571   0.99694   0.00000  Uiso   1.00
C805   C     0.81803   0.55532   0.50647   0.00000  Uiso   1.00
C806   C     0.82581   0.51404   0.98979   0.00000  Uiso   1.00
C807   C     0.81922   0.49955   0.94673   0.00000  Uiso   1.00
C808   C     0.84004   0.48674   0.51423   0.00000  Uiso   1.00
C809   C     0.84679   0.44541   0.99556   0.00000  Uiso   1.00
C810   C     0.83605   0.43130   0.95490   0.00000  Uiso   1.00
C811   C     0.82152   0.45742   0.93175   0.00000  Uiso   1.00
H812   H     0.98587   0.47227   0.78967   0.00000  Uiso   1.00
H813   H     0.89551   0.37872   0.96346   0.00000  Uiso   1.00
H814   H     0.88866   0.35896   0.51596   0.00000  Uiso   1.00
H815   H     0.84301   0.35600   0.99323   0.00000  Uiso   1.00
H816   H     0.87260   0.33654   0.71299   0.00000  Uiso   1.00
H817   H     0.83800   0.39958   0.94059   0.00000  Uiso   1.00
H818   H     0.84004   0.52877   0.57442   0.00000  Uiso   1.00
H819   H     0.79426   0.58941   0.91810   0.00000  Uiso   1.00
H820   H     0.82150   0.56887   0.53889   0.00000  Uiso   1.00
H821   H     0.79929   0.61252   0.99460   0.00000  Uiso   1.00
H822   H     0.81150   0.44369   0.90207   0.00000  Uiso   1.00
H823   H     0.68216   0.52781   0.71073   0.00000  Uiso   1.00
O824   O     0.83333   0.50000   0.75000   0.00000  Uiso   1.00
O825   O     0.82118   0.45970   0.65458   0.00000  Uiso   1.00
O826   O     0.79607   0.53724   0.84968   0.00000  Uiso   1.00
O827   O     0.87491   0.51092   0.64606   0.00000  Uiso   1.00
O828   O     0.84118   0.49213   0.84968   0.00000  Uiso   1.00
O829   O     0.84597   0.41352   0.78213   0.00000  Uiso   1.00
O830   O     0.81298   0.59418   0.77013   0.00000  Uiso   1.00
O831   O     0.74078   0.46625   0.73413   0.00000  Uiso   1.00
O832   O     0.93360   0.52605   0.71360   0.00000  Uiso   1.00
O833   O     0.73738   0.52211   0.78213   0.00000  Uiso   1.00
O834   O     0.92158   0.48559   0.77013   0.00000  Uiso   1.00
O835   O     0.80426   0.40277   0.73413   0.00000  Uiso   1.00
O836   O     0.87012   0.58953   0.71360   0.00000  Uiso   1.00
Zn837  Zn    0.86005   0.47327   0.78734   0.00000  Uiso   1.00
Zn838  Zn    0.80046   0.45791   0.71875   0.00000  Uiso   1.00
Zn839  Zn    0.87723   0.53109   0.70657   0.00000  Uiso   1.00
Zn840  Zn    0.79560   0.53773   0.78733   0.00000  Uiso   1.00
Br841  Br    0.21905   0.72891   0.59726   0.00000  Uiso   1.00
Br842  Br    0.10043   0.99441   0.81021   0.00000  Uiso   1.00
C843   C     0.05271   0.82622   0.76007   0.00000  Uiso   1.00
C844   C     0.18003   0.83227   0.55716   0.00000  Uiso   1.00
C845   C     0.20117   0.76495   0.56204   0.00000  Uiso   1.00
C846   C     0.28070   0.84045   0.74009   0.00000  Uiso   1.00
C847   C     0.14334   0.86080   0.91971   0.00000  Uiso   1.00
C848   C     0.32654   0.84320   0.73623   0.00000  Uiso   1.00
C849   C     0.00744   0.82370   0.76391   0.00000  Uiso   1.00
C850   C     0.17922   0.98894   0.73781   0.00000  Uiso   1.00
C851   C     0.15063   0.67918   0.76471   0.00000  Uiso   1.00
C852   C     0.15668   0.72265   0.75957   0.00000  Uiso   1.00
C853   C     0.17622   0.94449   0.74045   0.00000  Uiso   1.00
C854   C     0.13848   0.91450   0.98115   0.00000  Uiso   1.00
C855   C     0.18512   0.81453   0.62942   0.00000  Uiso   1.00
C856   C     0.14812   0.85088   0.87107   0.00000  Uiso   1.00
C857   C     0.19603   0.75176   0.51855   0.00000  Uiso   1.00
C858   C     0.19181   0.80471   0.58126   0.00000  Uiso   1.00
C859   C     0.13501   0.90099   0.93796   0.00000  Uiso   1.00
C860   C     0.20632   0.70905   0.99694   0.00000  Uiso   1.00
C861   C     0.15137   0.88865   0.50647   0.00000  Uiso   1.00
C862   C     0.15914   0.84737   0.98979   0.00000  Uiso   1.00
C863   C     0.15255   0.83289   0.94673   0.00000  Uiso   1.00
C864   C     0.17337   0.82007   0.51423   0.00000  Uiso   1.00
C865   C     0.18012   0.77874   0.99556   0.00000  Uiso   1.00
C866   C     0.16938   0.76464   0.95490   0.00000  Uiso   1.00
C867   C     0.15485   0.79075   0.93175   0.00000  Uiso   1.00
H868   H     0.31920   0.80561   0.78967   0.00000  Uiso   1.00
H869   H     0.22885   0.71206   0.96346   0.00000  Uiso   1.00
H870   H     0.22199   0.69229   0.51596   0.00000  Uiso   1.00
H871   H     0.17635   0.68934   0.99323   0.00000  Uiso   1.00
H872   H     0.20593   0.66988   0.71299   0.00000  Uiso   1.00
H873   H     0.17133   0.73291   0.94059   0.00000  Uiso   1.00
H874   H     0.17337   0.86210   0.57442   0.00000  Uiso   1.00
H875   H     0.12759   0.92274   0.91810   0.00000  Uiso   1.00
H876   H     0.15483   0.90220   0.53889   0.00000  Uiso   1.00
H877   H     0.13262   0.94585   0.99460   0.00000  Uiso   1.00
H878   H     0.14483   0.77702   0.90207   0.00000  Uiso   1.00
H879   H     0.01550   0.86114   0.71073   0.00000  Uiso   1.00
O880   O     0.16667   0.83333   0.75000   0.00000  Uiso   1.00
O881   O     0.15451   0.79304   0.65458   0.00000  Uiso   1.00
O882   O     0.12940   0.87058   0.84968   0.00000  Uiso   1.00
O883   O     0.20824   0.84425   0.64606   0.00000  Uiso   1.00
O884   O     0.17451   0.82546   0.84968   0.00000  Uiso   1.00
O885   O     0.17930   0.74686   0.78213   0.00000  Uiso   1.00
O886   O     0.14632   0.92751   0.77013   0.00000  Uiso   1.00
O887   O     0.07412   0.79958   0.73413   0.00000  Uiso   1.00
O888   O     0.26693   0.85939   0.71360   0.00000  Uiso   1.00
O889   O     0.07071   0.85544   0.78213   0.00000  Uiso   1.00
O890   O     0.25491   0.81892   0.77013   0.00000  Uiso   1.00
O891   O     0.13760   0.73610   0.73413   0.00000  Uiso   1.00
O892   O     0.20345   0.92286   0.71360   0.00000  Uiso   1.00
Zn893  Zn    0.19338   0.80661   0.78734   0.00000  Uiso   1.00
Zn894  Zn    0.13379   0.79124   0.71875   0.00000  Uiso   1.00
Zn895  Zn    0.21056   0.86442   0.70657   0.00000  Uiso   1.00
Zn896  Zn    0.12893   0.87106   0.78733   0.00000  Uiso   1.00
Br897  Br    0.55239   0.72891   0.59726   0.00000  Uiso   1.00
Br898  Br    0.43377   0.99441   0.81021   0.00000  Uiso   1.00
C899   C     0.38604   0.82622   0.76007   0.00000  Uiso   1.00
C900   C     0.51337   0.83227   0.55716   0.00000  Uiso   1.00
C901   C     0.53450   0.76495   0.56204   0.00000  Uiso   1.00
C902   C     0.61404   0.84045   0.74009   0.00000  Uiso   1.00
C903   C     0.47667   0.86080   0.91971   0.00000  Uiso   1.00
C904   C     0.65987   0.84320   0.73623   0.00000  Uiso   1.00
C905   C     0.34077   0.82370   0.76391   0.00000  Uiso   1.00
C906   C     0.51256   0.98894   0.73781   0.00000  Uiso   1.00
C907   C     0.48397   0.67918   0.76471   0.00000  Uiso   1.00
C908   C     0.49001   0.72265   0.75957   0.00000  Uiso   1.00
C909   C     0.50956   0.94449   0.74045   0.00000  Uiso   1.00
C910   C     0.47181   0.91450   0.98115   0.00000  Uiso   1.00
C911   C     0.51845   0.81453   0.62942   0.00000  Uiso   1.00
C912   C     0.48146   0.85088   0.87107   0.00000  Uiso   1.00
C913   C     0.52936   0.75176   0.51855   0.00000  Uiso   1.00
C914   C     0.52515   0.80471   0.58126   0.00000  Uiso   1.00
C915   C     0.46834   0.90099   0.93796   0.00000  Uiso   1.00
C916   C     0.53966   0.70905   0.99694   0.00000  Uiso   1.00
C917   C     0.48470   0.88865   0.50647   0.00000  Uiso   1.00
C918   C     0.49248   0.84737   0.98979   0.00000  Uiso   1.00
C919   C     0.48589   0.83289   0.94673   0.00000  Uiso   1.00
C920   C     0.50670   0.82007   0.51423   0.00000  Uiso   1.00
C921   C     0.51345   0.77874   0.99556   0.00000  Uiso   1.00
C922   C     0.50272   0.76464   0.95490   0.00000  Uiso   1.00
C923   C     0.48818   0.79075   0.93175   0.00000  Uiso   1.00
H924   H     0.65254   0.80561   0.78967   0.00000  Uiso   1.00
H925   H     0.56218   0.71206   0.96346   0.00000  Uiso   1.00
H926   H     0.55532   0.69229   0.51596   0.00000  Uiso   1.00
H927   H     0.50968   0.68934   0.99323   0.00000  Uiso   1.00
H928   H     0.53927   0.66988   0.71299   0.00000  Uiso   1.00
H929   H     0.50467   0.73291   0.94059   0.00000  Uiso   1.00
H930   H     0.50671   0.86210   0.57442   0.00000  Uiso   1.00
H931   H     0.46092   0.92274   0.91810   0.00000  Uiso   1.00
H932   H     0.48816   0.90220   0.53889   0.00000  Uiso   1.00
H933   H     0.46595   0.94585   0.99460   0.00000  Uiso   1.00
H934   H     0.47817   0.77702   0.90207   0.00000  Uiso   1.00
H935   H     0.34883   0.86114   0.71073   0.00000  Uiso   1.00
O936   O     0.50000   0.83333   0.75000   0.00000  Uiso   1.00
O937   O     0.48784   0.79304   0.65458   0.00000  Uiso   1.00
O938   O     0.46274   0.87058   0.84968   0.00000  Uiso   1.00
O939   O     0.54157   0.84425   0.64606   0.00000  Uiso   1.00
O940   O     0.50785   0.82546   0.84968   0.00000  Uiso   1.00
O941   O     0.51264   0.74686   0.78213   0.00000  Uiso   1.00
O942   O     0.47965   0.92751   0.77013   0.00000  Uiso   1.00
O943   O     0.40745   0.79958   0.73413   0.00000  Uiso   1.00
O944   O     0.60026   0.85939   0.71360   0.00000  Uiso   1.00
O945   O     0.40405   0.85544   0.78213   0.00000  Uiso   1.00
O946   O     0.58824   0.81892   0.77013   0.00000  Uiso   1.00
O947   O     0.47093   0.73610   0.73413   0.00000  Uiso   1.00
O948   O     0.53678   0.92286   0.71360   0.00000  Uiso   1.00
Zn949  Zn    0.52672   0.80661   0.78734   0.00000  Uiso   1.00
Zn950  Zn    0.46713   0.79124   0.71875   0.00000  Uiso   1.00
Zn951  Zn    0.54389   0.86442   0.70657   0.00000  Uiso   1.00
Zn952  Zn    0.46226   0.87106   0.78733   0.00000  Uiso   1.00
Br953  Br    0.88572   0.72891   0.59726   0.00000  Uiso   1.00
Br954  Br    0.76710   0.99441   0.81021   0.00000  Uiso   1.00
C955   C     0.71937   0.82622   0.76007   0.00000  Uiso   1.00
C956   C     0.84670   0.83227   0.55716   0.00000  Uiso   1.00
C957   C     0.86783   0.76495   0.56204   0.00000  Uiso   1.00
C958   C     0.94737   0.84045   0.74009   0.00000  Uiso   1.00
C959   C     0.81001   0.86080   0.91971   0.00000  Uiso   1.00
C960   C     0.99321   0.84320   0.73623   0.00000  Uiso   1.00
C961   C     0.67410   0.82370   0.76391   0.00000  Uiso   1.00
C962   C     0.84589   0.98894   0.73781   0.00000  Uiso   1.00
C963   C     0.81730   0.67918   0.76471   0.00000  Uiso   1.00
C964   C     0.82335   0.72265   0.75957   0.00000  Uiso   1.00
C965   C     0.84289   0.94449   0.74045   0.00000  Uiso   1.00
C966   C     0.80515   0.91450   0.98115   0.00000  Uiso   1.00
C967   C     0.85178   0.81453   0.62942   0.00000  Uiso   1.00
C968   C     0.81479   0.85088   0.87107   0.00000  Uiso   1.00
C969   C     0.86270   0.75176   0.51855   0.00000  Uiso   1.00
C970   C     0.85848   0.80471   0.58126   0.00000  Uiso   1.00
C971   C     0.80168   0.90099   0.93796   0.00000  Uiso   1.00
C972   C     0.87299   0.70905   0.99694   0.00000  Uiso   1.00
C973   C     0.81803   0.88865   0.50647   0.00000  Uiso   1.00
C974   C     0.82581   0.84737   0.98979   0.00000  Uiso   1.00
C975   C     0.81922   0.83289   0.94673   0.00000  Uiso   1.00
C976   C     0.84004   0.82007   0.51423   0.00000  Uiso   1.00
C977   C     0.84679   0.77874   0.99556   0.00000  Uiso   1.00
C978   C     0.83605   0.76464   0.95490   0.00000  Uiso   1.00
C979   C     0.82152   0.79075   0.93175   0.00000  Uiso   1.00
H980   H     0.98587   0.80561   0.78967   0.00000  Uiso   1.00
H981   H     0.89551   0.71206   0.96346   0.00000  Uiso   1.00
H982   H     0.88866   0.69229   0.51596   0.00000  Uiso   1.00
H983   H     0.84301   0.68934   0.99323   0.00000  Uiso   1.00
H984   H     0.87260   0.66988   0.71299   0.00000  Uiso   1.00
H985   H     0.83800   0.73291   0.94059   0.00000  Uiso   1.00
H986   H     0.84004   0.86210   0.57442   0.00000  Uiso   1.00
H987   H     0.79426   0.92274   0.91810   0.00000  Uiso   1.00
H988   H     0.82150   0.90220   0.53889   0.00000  Uiso   1.00
H989   H     0.79929   0.94585   0.99460   0.00000  Uiso   1.00
H990   H     0.81150   0.77702   0.90207   0.00000  Uiso   1.00
H991   H     0.68216   0.86114   0.71073   0.00000  Uiso   1.00
O992   O     0.83333   0.83333   0.75000   0.00000  Uiso   1.00
O993   O     0.82118   0.79304   0.65458   0.00000  Uiso   1.00
O994   O     0.79607   0.87058   0.84968   0.00000  Uiso   1.00
O995   O     0.87491   0.84425   0.64606   0.00000  Uiso   1.00
O996   O     0.84118   0.82546   0.84968   0.00000  Uiso   1.00
O997   O     0.84597   0.74686   0.78213   0.00000  Uiso   1.00
O998   O     0.81298   0.92751   0.77013   0.00000  Uiso   1.00
O999   O     0.74078   0.79958   0.73413   0.00000  Uiso   1.00
O1000  O     0.93360   0.85939   0.71360   0.00000  Uiso   1.00
O1001  O     0.73738   0.85544   0.78213   0.00000  Uiso   1.00
O1002  O     0.92158   0.81892   0.77013   0.00000  Uiso   1.00
O1003  O     0.80426   0.73610   0.73413   0.00000  Uiso   1.00
O1004  O     0.87012   0.92286   0.71360   0.00000  Uiso   1.00
Zn1005 Zn    0.86005   0.80661   0.78734   0.00000  Uiso   1.00
Zn1006 Zn    0.80046   0.79124   0.71875   0.00000  Uiso   1.00
Zn1007 Zn    0.87723   0.86442   0.70657   0.00000  Uiso   1.00
Zn1008 Zn    0.79560   0.87106   0.78733   0.00000  Uiso   1.00
loop_
_geom_bond_atom_site_label_1
_geom_bond_atom_site_label_2
_geom_bond_distance
_geom_bond_site_symmetry_2
_ccdc_geom_bond_type
Br1    C5      1.937   .     S
Br2    C179    1.930   .     S
C3     C9      1.436   .     S
C3     O49     1.268   .     A
C3     O47     1.268   .     A
C4     C18     1.388   .     A
C4     H34     1.077   .     S
C4     C24     1.405   .     A
C5     C17     1.410   .     A
C5     C18     1.404   .     A
C6     C8      1.453   .     S
C6     O50     1.282   .     A
C6     O48     1.285   .     A
C7     C19     1.401   .     A
C7     C23     1.420   .     A
C7     C16     1.477   .     S
C8     C65     1.334   .     S
C8     H95     1.088   .     S
C9     C120    1.334   1_455 S
C9     H140    1.086   1_455 S
C10    C13     1.451   .     S
C10    C179    1.344   .     S
C10    H200    1.088   .     S
C11    C12     1.427   .     S
C11    Br338   1.930   1_545 S
C11    C346    1.344   1_545 S
C12    O51     1.271   .     A
C12    O45     1.272   .     A
C13    O52     1.279   .     A
C13    O46     1.265   .     A
C14    H37     1.083   .     S
C14    C19     1.387   .     A
C14    C525    1.391   .     S
C15    C18     1.455   .     S
C15    O43     1.281   .     A
C15    O41     1.271   .     A
C16    O44     1.283   .     A
C16    O42     1.284   .     A
C17    C524    1.518   1_554 S
C17    C529    1.423   1_554 S
C19    H35     1.083   .     S
C20    H29     1.110   .     S
C20    H31     1.110   .     S
C20    C521    1.518   .     S
C20    H534    1.105   .     S
C21    H36     1.076   .     S
C21    C518    1.391   1_554 S
C21    C526    1.419   1_554 S
C22    C23     1.421   .     A
C22    C525    1.419   .     S
C22    C528    1.431   .     S
C23    C27     1.405   .     A
C24    C526    1.431   1_554 S
C24    C529    1.428   1_554 S
C25    C26     1.402   .     A
C25    C528    1.428   .     S
C25    C521    1.423   .     S
C26    H33     1.081   .     S
C26    C27     1.381   .     A
C27    H38     1.081   .     S
H28    C65     1.086   .     S
H30    C524    1.105   1_554 S
H32    C346    1.088   1_545 S
H39    C120    1.088   1_455 S
O40    Zn55    1.946   .     S
O40    Zn54    1.938   .     S
O40    Zn53    1.960   .     S
O40    Zn56    1.931   .     S
O41    Zn54    1.934   .     S
O42    Zn56    1.939   .     S
O43    Zn55    1.930   .     S
O44    Zn53    1.925   .     S
O45    Zn53    1.935   .     S
O46    Zn56    1.943   .     S
O47    Zn54    1.925   .     S
O48    Zn55    1.932   .     S
O49    Zn56    1.929   .     S
O50    Zn53    1.925   .     S
O51    Zn54    1.946   .     S
O52    Zn55    1.936   .     S
Br57   C61     1.937   .     S
Br58   C235    1.930   .     S
C59    C65     1.436   .     S
C59    O105    1.268   .     A
C59    O103    1.268   .     A
C60    C74     1.388   .     A
C60    H90     1.077   .     S
C60    C80     1.405   .     A
C61    C73     1.410   .     A
C61    C74     1.404   .     A
C62    C64     1.453   .     S
C62    O106    1.282   .     A
C62    O104    1.285   .     A
C63    C75     1.401   .     A
C63    C79     1.420   .     A
C63    C72     1.477   .     S
C64    C121    1.334   .     S
C64    H151    1.088   .     S
C66    C69     1.451   .     S
C66    C235    1.344   .     S
C66    H256    1.088   .     S
C67    C68     1.427   .     S
C67    Br394   1.930   1_545 S
C67    C402    1.344   1_545 S
C68    O107    1.271   .     A
C68    O101    1.272   .     A
C69    O108    1.279   .     A
C69    O102    1.265   .     A
C70    H93     1.083   .     S
C70    C75     1.387   .     A
C70    C581    1.391   .     S
C71    C74     1.455   .     S
C71    O99     1.281   .     A
C71    O97     1.271   .     A
C72    O100    1.283   .     A
C72    O98     1.284   .     A
C73    C580    1.518   1_554 S
C73    C585    1.423   1_554 S
C75    H91     1.083   .     S
C76    H85     1.110   .     S
C76    H87     1.110   .     S
C76    C577    1.518   .     S
C76    H590    1.105   .     S
C77    H92     1.076   .     S
C77    C574    1.391   1_554 S
C77    C582    1.419   1_554 S
C78    C79     1.421   .     A
C78    C581    1.419   .     S
C78    C584    1.431   .     S
C79    C83     1.405   .     A
C80    C582    1.431   1_554 S
C80    C585    1.428   1_554 S
C81    C82     1.402   .     A
C81    C584    1.428   .     S
C81    C577    1.423   .     S
C82    H89     1.081   .     S
C82    C83     1.381   .     A
C83    H94     1.081   .     S
H84    C121    1.086   .     S
H86    C580    1.105   1_554 S
H88    C402    1.088   1_545 S
O96    Zn111   1.946   .     S
O96    Zn110   1.938   .     S
O96    Zn109   1.960   .     S
O96    Zn112   1.931   .     S
O97    Zn110   1.934   .     S
O98    Zn112   1.939   .     S
O99    Zn111   1.930   .     S
O100   Zn109   1.925   .     S
O101   Zn109   1.935   .     S
O102   Zn112   1.943   .     S
O103   Zn110   1.925   .     S
O104   Zn111   1.932   .     S
O105   Zn112   1.929   .     S
O106   Zn109   1.925   .     S
O107   Zn110   1.946   .     S
O108   Zn111   1.936   .     S
Br113  C117    1.937   .     S
Br114  C291    1.930   .     S
C115   C121    1.436   .     S
C115   O161    1.268   .     A
C115   O159    1.268   .     A
C116   C130    1.388   .     A
C116   H146    1.077   .     S
C116   C136    1.405   .     A
C117   C129    1.410   .     A
C117   C130    1.404   .     A
C118   C120    1.453   .     S
C118   O162    1.282   .     A
C118   O160    1.285   .     A
C119   C131    1.401   .     A
C119   C135    1.420   .     A
C119   C128    1.477   .     S
C120   C9      1.334   1_655 S
C120   H39     1.088   1_655 S
C122   C125    1.451   .     S
C122   C291    1.344   .     S
C122   H312    1.088   .     S
C123   C124    1.427   .     S
C123   Br450   1.930   1_545 S
C123   C458    1.344   1_545 S
C124   O163    1.271   .     A
C124   O157    1.272   .     A
C125   O164    1.279   .     A
C125   O158    1.265   .     A
C126   H149    1.083   .     S
C126   C131    1.387   .     A
C126   C637    1.391   .     S
C127   C130    1.455   .     S
C127   O155    1.281   .     A
C127   O153    1.271   .     A
C128   O156    1.283   .     A
C128   O154    1.284   .     A
C129   C636    1.518   1_554 S
C129   C641    1.423   1_554 S
C131   H147    1.083   .     S
C132   H141    1.110   .     S
C132   H143    1.110   .     S
C132   C633    1.518   .     S
C132   H646    1.105   .     S
C133   H148    1.076   .     S
C133   C630    1.391   1_554 S
C133   C638    1.419   1_554 S
C134   C135    1.421   .     A
C134   C637    1.419   .     S
C134   C640    1.431   .     S
C135   C139    1.405   .     A
C136   C638    1.431   1_554 S
C136   C641    1.428   1_554 S
C137   C138    1.402   .     A
C137   C640    1.428   .     S
C137   C633    1.423   .     S
C138   H145    1.081   .     S
C138   C139    1.381   .     A
C139   H150    1.081   .     S
H140   C9      1.086   1_655 S
H142   C636    1.105   1_554 S
H144   C458    1.088   1_545 S
O152   Zn167   1.946   .     S
O152   Zn166   1.938   .     S
O152   Zn165   1.960   .     S
O152   Zn168   1.931   .     S
O153   Zn166   1.934   .     S
O154   Zn168   1.939   .     S
O155   Zn167   1.930   .     S
O156   Zn165   1.925   .     S
O157   Zn165   1.935   .     S
O158   Zn168   1.943   .     S
O159   Zn166   1.925   .     S
O160   Zn167   1.932   .     S
O161   Zn168   1.929   .     S
O162   Zn165   1.925   .     S
O163   Zn166   1.946   .     S
O164   Zn167   1.936   .     S
Br169  C173    1.937   .     S
Br170  C347    1.930   .     S
C171   C177    1.436   .     S
C171   O217    1.268   .     A
C171   O215    1.268   .     A
C172   C186    1.388   .     A
C172   H202    1.077   .     S
C172   C192    1.405   .     A
C173   C185    1.410   .     A
C173   C186    1.404   .     A
C174   C176    1.453   .     S
C174   O218    1.282   .     A
C174   O216    1.285   .     A
C175   C187    1.401   .     A
C175   C191    1.420   .     A
C175   C184    1.477   .     S
C176   C233    1.334   .     S
C176   H263    1.088   .     S
C177   C288    1.334   1_455 S
C177   H308    1.086   1_455 S
C178   C181    1.451   .     S
C178   C347    1.344   .     S
C178   H368    1.088   .     S
C179   C180    1.427   .     S
C180   O219    1.271   .     A
C180   O213    1.272   .     A
C181   O220    1.279   .     A
C181   O214    1.265   .     A
C182   H205    1.083   .     S
C182   C187    1.387   .     A
C182   C693    1.391   .     S
C183   C186    1.455   .     S
C183   O211    1.281   .     A
C183   O209    1.271   .     A
C184   O212    1.283   .     A
C184   O210    1.284   .     A
C185   C692    1.518   1_554 S
C185   C697    1.423   1_554 S
C187   H203    1.083   .     S
C188   H197    1.110   .     S
C188   H199    1.110   .     S
C188   C689    1.518   .     S
C188   H702    1.105   .     S
C189   H204    1.076   .     S
C189   C686    1.391   1_554 S
C189   C694    1.419   1_554 S
C190   C191    1.421   .     A
C190   C693    1.419   .     S
C190   C696    1.431   .     S
C191   C195    1.405   .     A
C192   C694    1.431   1_554 S
C192   C697    1.428   1_554 S
C193   C194    1.402   .     A
C193   C696    1.428   .     S
C193   C689    1.423   .     S
C194   H201    1.081   .     S
C194   C195    1.381   .     A
C195   H206    1.081   .     S
H196   C233    1.086   .     S
H198   C692    1.105   1_554 S
H207   C288    1.088   1_455 S
O208   Zn223   1.946   .     S
O208   Zn222   1.938   .     S
O208   Zn221   1.960   .     S
O208   Zn224   1.931   .     S
O209   Zn222   1.934   .     S
O210   Zn224   1.939   .     S
O211   Zn223   1.930   .     S
O212   Zn221   1.925   .     S
O213   Zn221   1.935   .     S
O214   Zn224   1.943   .     S
O215   Zn222   1.925   .     S
O216   Zn223   1.932   .     S
O217   Zn224   1.929   .     S
O218   Zn221   1.925   .     S
O219   Zn222   1.946   .     S
O220   Zn223   1.936   .     S
Br225  C229    1.937   .     S
Br226  C403    1.930   .     S
C227   C233    1.436   .     S
C227   O273    1.268   .     A
C227   O271    1.268   .     A
C228   C242    1.388   .     A
C228   H258    1.077   .     S
C228   C248    1.405   .     A
C229   C241    1.410   .     A
C229   C242    1.404   .     A
C230   C232    1.453   .     S
C230   O274    1.282   .     A
C230   O272    1.285   .     A
C231   C243    1.401   .     A
C231   C247    1.420   .     A
C231   C240    1.477   .     S
C232   C289    1.334   .     S
C232   H319    1.088   .     S
C234   C237    1.451   .     S
C234   C403    1.344   .     S
C234   H424    1.088   .     S
C235   C236    1.427   .     S
C236   O275    1.271   .     A
C236   O269    1.272   .     A
C237   O276    1.279   .     A
C237   O270    1.265   .     A
C238   H261    1.083   .     S
C238   C243    1.387   .     A
C238   C749    1.391   .     S
C239   C242    1.455   .     S
C239   O267    1.281   .     A
C239   O265    1.271   .     A
C240   O268    1.283   .     A
C240   O266    1.284   .     A
C241   C748    1.518   1_554 S
C241   C753    1.423   1_554 S
C243   H259    1.083   .     S
C244   H253    1.110   .     S
C244   H255    1.110   .     S
C244   C745    1.518   .     S
C244   H758    1.105   .     S
C245   H260    1.076   .     S
C245   C742    1.391   1_554 S
C245   C750    1.419   1_554 S
C246   C247    1.421   .     A
C246   C749    1.419   .     S
C246   C752    1.431   .     S
C247   C251    1.405   .     A
C248   C750    1.431   1_554 S
C248   C753    1.428   1_554 S
C249   C250    1.402   .     A
C249   C752    1.428   .     S
C249   C745    1.423   .     S
C250   H257    1.081   .     S
C250   C251    1.381   .     A
C251   H262    1.081   .     S
H252   C289    1.086   .     S
H254   C748    1.105   1_554 S
O264   Zn279   1.946   .     S
O264   Zn278   1.938   .     S
O264   Zn277   1.960   .     S
O264   Zn280   1.931   .     S
O265   Zn278   1.934   .     S
O266   Zn280   1.939   .     S
O267   Zn279   1.930   .     S
O268   Zn277   1.925   .     S
O269   Zn277   1.935   .     S
O270   Zn280   1.943   .     S
O271   Zn278   1.925   .     S
O272   Zn279   1.932   .     S
O273   Zn280   1.929   .     S
O274   Zn277   1.925   .     S
O275   Zn278   1.946   .     S
O276   Zn279   1.936   .     S
Br281  C285    1.937   .     S
Br282  C459    1.930   .     S
C283   C289    1.436   .     S
C283   O329    1.268   .     A
C283   O327    1.268   .     A
C284   C298    1.388   .     A
C284   H314    1.077   .     S
C284   C304    1.405   .     A
C285   C297    1.410   .     A
C285   C298    1.404   .     A
C286   C288    1.453   .     S
C286   O330    1.282   .     A
C286   O328    1.285   .     A
C287   C299    1.401   .     A
C287   C303    1.420   .     A
C287   C296    1.477   .     S
C288   C177    1.334   1_655 S
C288   H207    1.088   1_655 S
C290   C293    1.451   .     S
C290   C459    1.344   .     S
C290   H480    1.088   .     S
C291   C292    1.427   .     S
C292   O331    1.271   .     A
C292   O325    1.272   .     A
C293   O332    1.279   .     A
C293   O326    1.265   .     A
C294   H317    1.083   .     S
C294   C299    1.387   .     A
C294   C805    1.391   .     S
C295   C298    1.455   .     S
C295   O323    1.281   .     A
C295   O321    1.271   .     A
C296   O324    1.283   .     A
C296   O322    1.284   .     A
C297   C804    1.518   1_554 S
C297   C809    1.423   1_554 S
C299   H315    1.083   .     S
C300   H309    1.110   .     S
C300   H311    1.110   .     S
C300   C801    1.518   .     S
C300   H814    1.105   .     S
C301   H316    1.076   .     S
C301   C798    1.391   1_554 S
C301   C806    1.419   1_554 S
C302   C303    1.421   .     A
C302   C805    1.419   .     S
C302   C808    1.431   .     S
C303   C307    1.405   .     A
C304   C806    1.431   1_554 S
C304   C809    1.428   1_554 S
C305   C306    1.402   .     A
C305   C808    1.428   .     S
C305   C801    1.423   .     S
C306   H313    1.081   .     S
C306   C307    1.381   .     A
C307   H318    1.081   .     S
H308   C177    1.086   1_655 S
H310   C804    1.105   1_554 S
O320   Zn335   1.946   .     S
O320   Zn334   1.938   .     S
O320   Zn333   1.960   .     S
O320   Zn336   1.931   .     S
O321   Zn334   1.934   .     S
O322   Zn336   1.939   .     S
O323   Zn335   1.930   .     S
O324   Zn333   1.925   .     S
O325   Zn333   1.935   .     S
O326   Zn336   1.943   .     S
O327   Zn334   1.925   .     S
O328   Zn335   1.932   .     S
O329   Zn336   1.929   .     S
O330   Zn333   1.925   .     S
O331   Zn334   1.946   .     S
O332   Zn335   1.936   .     S
Br337  C341    1.937   .     S
Br338  C11     1.930   1_565 S
C339   C345    1.436   .     S
C339   O385    1.268   .     A
C339   O383    1.268   .     A
C340   C354    1.388   .     A
C340   H370    1.077   .     S
C340   C360    1.405   .     A
C341   C353    1.410   .     A
C341   C354    1.404   .     A
C342   C344    1.453   .     S
C342   O386    1.282   .     A
C342   O384    1.285   .     A
C343   C355    1.401   .     A
C343   C359    1.420   .     A
C343   C352    1.477   .     S
C344   C401    1.334   .     S
C344   H431    1.088   .     S
C345   C456    1.334   1_455 S
C345   H476    1.086   1_455 S
C346   C349    1.451   .     S
C346   C11     1.344   1_565 S
C346   H32     1.088   1_565 S
C347   C348    1.427   .     S
C348   O387    1.271   .     A
C348   O381    1.272   .     A
C349   O388    1.279   .     A
C349   O382    1.265   .     A
C350   H373    1.083   .     S
C350   C355    1.387   .     A
C350   C861    1.391   .     S
C351   C354    1.455   .     S
C351   O379    1.281   .     A
C351   O377    1.271   .     A
C352   O380    1.283   .     A
C352   O378    1.284   .     A
C353   C860    1.518   1_554 S
C353   C865    1.423   1_554 S
C355   H371    1.083   .     S
C356   H365    1.110   .     S
C356   H367    1.110   .     S
C356   C857    1.518   .     S
C356   H870    1.105   .     S
C357   H372    1.076   .     S
C357   C854    1.391   1_554 S
C357   C862    1.419   1_554 S
C358   C359    1.421   .     A
C358   C861    1.419   .     S
C358   C864    1.431   .     S
C359   C363    1.405   .     A
C360   C862    1.431   1_554 S
C360   C865    1.428   1_554 S
C361   C362    1.402   .     A
C361   C864    1.428   .     S
C361   C857    1.423   .     S
C362   H369    1.081   .     S
C362   C363    1.381   .     A
C363   H374    1.081   .     S
H364   C401    1.086   .     S
H366   C860    1.105   1_554 S
H375   C456    1.088   1_455 S
O376   Zn391   1.946   .     S
O376   Zn390   1.938   .     S
O376   Zn389   1.960   .     S
O376   Zn392   1.931   .     S
O377   Zn390   1.934   .     S
O378   Zn392   1.939   .     S
O379   Zn391   1.930   .     S
O380   Zn389   1.925   .     S
O381   Zn389   1.935   .     S
O382   Zn392   1.943   .     S
O383   Zn390   1.925   .     S
O384   Zn391   1.932   .     S
O385   Zn392   1.929   .     S
O386   Zn389   1.925   .     S
O387   Zn390   1.946   .     S
O388   Zn391   1.936   .     S
Br393  C397    1.937   .     S
Br394  C67     1.930   1_565 S
C395   C401    1.436   .     S
C395   O441    1.268   .     A
C395   O439    1.268   .     A
C396   C410    1.388   .     A
C396   H426    1.077   .     S
C396   C416    1.405   .     A
C397   C409    1.410   .     A
C397   C410    1.404   .     A
C398   C400    1.453   .     S
C398   O442    1.282   .     A
C398   O440    1.285   .     A
C399   C411    1.401   .     A
C399   C415    1.420   .     A
C399   C408    1.477   .     S
C400   C457    1.334   .     S
C400   H487    1.088   .     S
C402   C405    1.451   .     S
C402   C67     1.344   1_565 S
C402   H88     1.088   1_565 S
C403   C404    1.427   .     S
C404   O443    1.271   .     A
C404   O437    1.272   .     A
C405   O444    1.279   .     A
C405   O438    1.265   .     A
C406   H429    1.083   .     S
C406   C411    1.387   .     A
C406   C917    1.391   .     S
C407   C410    1.455   .     S
C407   O435    1.281   .     A
C407   O433    1.271   .     A
C408   O436    1.283   .     A
C408   O434    1.284   .     A
C409   C916    1.518   1_554 S
C409   C921    1.423   1_554 S
C411   H427    1.083   .     S
C412   H421    1.110   .     S
C412   H423    1.110   .     S
C412   C913    1.518   .     S
C412   H926    1.105   .     S
C413   H428    1.076   .     S
C413   C910    1.391   1_554 S
C413   C918    1.419   1_554 S
C414   C415    1.421   .     A
C414   C917    1.419   .     S
C414   C920    1.431   .     S
C415   C419    1.405   .     A
C416   C918    1.431   1_554 S
C416   C921    1.428   1_554 S
C417   C418    1.402   .     A
C417   C920    1.428   .     S
C417   C913    1.423   .     S
C418   H425    1.081   .     S
C418   C419    1.381   .     A
C419   H430    1.081   .     S
H420   C457    1.086   .     S
H422   C916    1.105   1_554 S
O432   Zn447   1.946   .     S
O432   Zn446   1.938   .     S
O432   Zn445   1.960   .     S
O432   Zn448   1.931   .     S
O433   Zn446   1.934   .     S
O434   Zn448   1.939   .     S
O435   Zn447   1.930   .     S
O436   Zn445   1.925   .     S
O437   Zn445   1.935   .     S
O438   Zn448   1.943   .     S
O439   Zn446   1.925   .     S
O440   Zn447   1.932   .     S
O441   Zn448   1.929   .     S
O442   Zn445   1.925   .     S
O443   Zn446   1.946   .     S
O444   Zn447   1.936   .     S
Br449  C453    1.937   .     S
Br450  C123    1.930   1_565 S
C451   C457    1.436   .     S
C451   O497    1.268   .     A
C451   O495    1.268   .     A
C452   C466    1.388   .     A
C452   H482    1.077   .     S
C452   C472    1.405   .     A
C453   C465    1.410   .     A
C453   C466    1.404   .     A
C454   C456    1.453   .     S
C454   O498    1.282   .     A
C454   O496    1.285   .     A
C455   C467    1.401   .     A
C455   C471    1.420   .     A
C455   C464    1.477   .     S
C456   C345    1.334   1_655 S
C456   H375    1.088   1_655 S
C458   C461    1.451   .     S
C458   C123    1.344   1_565 S
C458   H144    1.088   1_565 S
C459   C460    1.427   .     S
C460   O499    1.271   .     A
C460   O493    1.272   .     A
C461   O500    1.279   .     A
C461   O494    1.265   .     A
C462   H485    1.083   .     S
C462   C467    1.387   .     A
C462   C973    1.391   .     S
C463   C466    1.455   .     S
C463   O491    1.281   .     A
C463   O489    1.271   .     A
C464   O492    1.283   .     A
C464   O490    1.284   .     A
C465   C972    1.518   1_554 S
C465   C977    1.423   1_554 S
C467   H483    1.083   .     S
C468   H477    1.110   .     S
C468   H479    1.110   .     S
C468   C969    1.518   .     S
C468   H982    1.105   .     S
C469   H484    1.076   .     S
C469   C966    1.391   1_554 S
C469   C974    1.419   1_554 S
C470   C471    1.421   .     A
C470   C973    1.419   .     S
C470   C976    1.431   .     S
C471   C475    1.405   .     A
C472   C974    1.431   1_554 S
C472   C977    1.428   1_554 S
C473   C474    1.402   .     A
C473   C976    1.428   .     S
C473   C969    1.423   .     S
C474   H481    1.081   .     S
C474   C475    1.381   .     A
C475   H486    1.081   .     S
H476   C345    1.086   1_655 S
H478   C972    1.105   1_554 S
O488   Zn503   1.946   .     S
O488   Zn502   1.938   .     S
O488   Zn501   1.960   .     S
O488   Zn504   1.931   .     S
O489   Zn502   1.934   .     S
O490   Zn504   1.939   .     S
O491   Zn503   1.930   .     S
O492   Zn501   1.925   .     S
O493   Zn501   1.935   .     S
O494   Zn504   1.943   .     S
O495   Zn502   1.925   .     S
O496   Zn503   1.932   .     S
O497   Zn504   1.929   .     S
O498   Zn501   1.925   .     S
O499   Zn502   1.946   .     S
O500   Zn503   1.936   .     S
Br505  C509    1.937   .     S
Br506  C683    1.930   .     S
C507   C513    1.436   .     S
C507   O553    1.268   .     A
C507   O551    1.268   .     A
C508   C522    1.388   .     A
C508   H538    1.077   .     S
C508   C528    1.405   .     A
C509   C521    1.410   .     A
C509   C522    1.404   .     A
C510   C512    1.453   .     S
C510   O554    1.282   .     A
C510   O552    1.285   .     A
C511   C523    1.401   .     A
C511   C527    1.420   .     A
C511   C520    1.477   .     S
C512   C569    1.334   .     S
C512   H599    1.088   .     S
C513   C624    1.334   1_455 S
C513   H644    1.086   1_455 S
C514   C517    1.451   .     S
C514   C683    1.344   .     S
C514   H704    1.088   .     S
C515   C516    1.427   .     S
C515   Br842   1.930   1_545 S
C515   C850    1.344   1_545 S
C516   O555    1.271   .     A
C516   O549    1.272   .     A
C517   O556    1.279   .     A
C517   O550    1.265   .     A
C518   H541    1.083   .     S
C518   C523    1.387   .     A
C518   C21     1.391   1_556 S
C519   C522    1.455   .     S
C519   O547    1.281   .     A
C519   O545    1.271   .     A
C520   O548    1.283   .     A
C520   O546    1.284   .     A
C523   H539    1.083   .     S
C524   H533    1.110   .     S
C524   H535    1.110   .     S
C524   C17     1.518   1_556 S
C524   H30     1.105   1_556 S
C525   H540    1.076   .     S
C526   C527    1.421   .     A
C526   C21     1.419   1_556 S
C526   C24     1.431   1_556 S
C527   C531    1.405   .     A
C529   C530    1.402   .     A
C529   C24     1.428   1_556 S
C529   C17     1.423   1_556 S
C530   H537    1.081   .     S
C530   C531    1.381   .     A
C531   H542    1.081   .     S
H532   C569    1.086   .     S
H536   C850    1.088   1_545 S
H543   C624    1.088   1_455 S
O544   Zn559   1.946   .     S
O544   Zn558   1.938   .     S
O544   Zn557   1.960   .     S
O544   Zn560   1.931   .     S
O545   Zn558   1.934   .     S
O546   Zn560   1.939   .     S
O547   Zn559   1.930   .     S
O548   Zn557   1.925   .     S
O549   Zn557   1.935   .     S
O550   Zn560   1.943   .     S
O551   Zn558   1.925   .     S
O552   Zn559   1.932   .     S
O553   Zn560   1.929   .     S
O554   Zn557   1.925   .     S
O555   Zn558   1.946   .     S
O556   Zn559   1.936   .     S
Br561  C565    1.937   .     S
Br562  C739    1.930   .     S
C563   C569    1.436   .     S
C563   O609    1.268   .     A
C563   O607    1.268   .     A
C564   C578    1.388   .     A
C564   H594    1.077   .     S
C564   C584    1.405   .     A
C565   C577    1.410   .     A
C565   C578    1.404   .     A
C566   C568    1.453   .     S
C566   O610    1.282   .     A
C566   O608    1.285   .     A
C567   C579    1.401   .     A
C567   C583    1.420   .     A
C567   C576    1.477   .     S
C568   C625    1.334   .     S
C568   H655    1.088   .     S
C570   C573    1.451   .     S
C570   C739    1.344   .     S
C570   H760    1.088   .     S
C571   C572    1.427   .     S
C571   Br898   1.930   1_545 S
C571   C906    1.344   1_545 S
C572   O611    1.271   .     A
C572   O605    1.272   .     A
C573   O612    1.279   .     A
C573   O606    1.265   .     A
C574   H597    1.083   .     S
C574   C579    1.387   .     A
C574   C77     1.391   1_556 S
C575   C578    1.455   .     S
C575   O603    1.281   .     A
C575   O601    1.271   .     A
C576   O604    1.283   .     A
C576   O602    1.284   .     A
C579   H595    1.083   .     S
C580   H589    1.110   .     S
C580   H591    1.110   .     S
C580   C73     1.518   1_556 S
C580   H86     1.105   1_556 S
C581   H596    1.076   .     S
C582   C583    1.421   .     A
C582   C77     1.419   1_556 S
C582   C80     1.431   1_556 S
C583   C587    1.405   .     A
C585   C586    1.402   .     A
C585   C80     1.428   1_556 S
C585   C73     1.423   1_556 S
C586   H593    1.081   .     S
C586   C587    1.381   .     A
C587   H598    1.081   .     S
H588   C625    1.086   .     S
H592   C906    1.088   1_545 S
O600   Zn615   1.946   .     S
O600   Zn614   1.938   .     S
O600   Zn613   1.960   .     S
O600   Zn616   1.931   .     S
O601   Zn614   1.934   .     S
O602   Zn616   1.939   .     S
O603   Zn615   1.930   .     S
O604   Zn613   1.925   .     S
O605   Zn613   1.935   .     S
O606   Zn616   1.943   .     S
O607   Zn614   1.925   .     S
O608   Zn615   1.932   .     S
O609   Zn616   1.929   .     S
O610   Zn613   1.925   .     S
O611   Zn614   1.946   .     S
O612   Zn615   1.936   .     S
Br617  C621    1.937   .     S
Br618  C795    1.930   .     S
C619   C625    1.436   .     S
C619   O665    1.268   .     A
C619   O663    1.268   .     A
C620   C634    1.388   .     A
C620   H650    1.077   .     S
C620   C640    1.405   .     A
C621   C633    1.410   .     A
C621   C634    1.404   .     A
C622   C624    1.453   .     S
C622   O666    1.282   .     A
C622   O664    1.285   .     A
C623   C635    1.401   .     A
C623   C639    1.420   .     A
C623   C632    1.477   .     S
C624   C513    1.334   1_655 S
C624   H543    1.088   1_655 S
C626   C629    1.451   .     S
C626   C795    1.344   .     S
C626   H816    1.088   .     S
C627   C628    1.427   .     S
C627   Br954   1.930   1_545 S
C627   C962    1.344   1_545 S
C628   O667    1.271   .     A
C628   O661    1.272   .     A
C629   O668    1.279   .     A
C629   O662    1.265   .     A
C630   H653    1.083   .     S
C630   C635    1.387   .     A
C630   C133    1.391   1_556 S
C631   C634    1.455   .     S
C631   O659    1.281   .     A
C631   O657    1.271   .     A
C632   O660    1.283   .     A
C632   O658    1.284   .     A
C635   H651    1.083   .     S
C636   H645    1.110   .     S
C636   H647    1.110   .     S
C636   C129    1.518   1_556 S
C636   H142    1.105   1_556 S
C637   H652    1.076   .     S
C638   C639    1.421   .     A
C638   C133    1.419   1_556 S
C638   C136    1.431   1_556 S
C639   C643    1.405   .     A
C641   C642    1.402   .     A
C641   C136    1.428   1_556 S
C641   C129    1.423   1_556 S
C642   H649    1.081   .     S
C642   C643    1.381   .     A
C643   H654    1.081   .     S
H644   C513    1.086   1_655 S
H648   C962    1.088   1_545 S
O656   Zn671   1.946   .     S
O656   Zn670   1.938   .     S
O656   Zn669   1.960   .     S
O656   Zn672   1.931   .     S
O657   Zn670   1.934   .     S
O658   Zn672   1.939   .     S
O659   Zn671   1.930   .     S
O660   Zn669   1.925   .     S
O661   Zn669   1.935   .     S
O662   Zn672   1.943   .     S
O663   Zn670   1.925   .     S
O664   Zn671   1.932   .     S
O665   Zn672   1.929   .     S
O666   Zn669   1.925   .     S
O667   Zn670   1.946   .     S
O668   Zn671   1.936   .     S
Br673  C677    1.937   .     S
Br674  C851    1.930   .     S
C675   C681    1.436   .     S
C675   O721    1.268   .     A
C675   O719    1.268   .     A
C676   C690    1.388   .     A
C676   H706    1.077   .     S
C676   C696    1.405   .     A
C677   C689    1.410   .     A
C677   C690    1.404   .     A
C678   C680    1.453   .     S
C678   O722    1.282   .     A
C678   O720    1.285   .     A
C679   C691    1.401   .     A
C679   C695    1.420   .     A
C679   C688    1.477   .     S
C680   C737    1.334   .     S
C680   H767    1.088   .     S
C681   C792    1.334   1_455 S
C681   H812    1.086   1_455 S
C682   C685    1.451   .     S
C682   C851    1.344   .     S
C682   H872    1.088   .     S
C683   C684    1.427   .     S
C684   O723    1.271   .     A
C684   O717    1.272   .     A
C685   O724    1.279   .     A
C685   O718    1.265   .     A
C686   H709    1.083   .     S
C686   C691    1.387   .     A
C686   C189    1.391   1_556 S
C687   C690    1.455   .     S
C687   O715    1.281   .     A
C687   O713    1.271   .     A
C688   O716    1.283   .     A
C688   O714    1.284   .     A
C691   H707    1.083   .     S
C692   H701    1.110   .     S
C692   H703    1.110   .     S
C692   C185    1.518   1_556 S
C692   H198    1.105   1_556 S
C693   H708    1.076   .     S
C694   C695    1.421   .     A
C694   C189    1.419   1_556 S
C694   C192    1.431   1_556 S
C695   C699    1.405   .     A
C697   C698    1.402   .     A
C697   C192    1.428   1_556 S
C697   C185    1.423   1_556 S
C698   H705    1.081   .     S
C698   C699    1.381   .     A
C699   H710    1.081   .     S
H700   C737    1.086   .     S
H711   C792    1.088   1_455 S
O712   Zn727   1.946   .     S
O712   Zn726   1.938   .     S
O712   Zn725   1.960   .     S
O712   Zn728   1.931   .     S
O713   Zn726   1.934   .     S
O714   Zn728   1.939   .     S
O715   Zn727   1.930   .     S
O716   Zn725   1.925   .     S
O717   Zn725   1.935   .     S
O718   Zn728   1.943   .     S
O719   Zn726   1.925   .     S
O720   Zn727   1.932   .     S
O721   Zn728   1.929   .     S
O722   Zn725   1.925   .     S
O723   Zn726   1.946   .     S
O724   Zn727   1.936   .     S
Br729  C733    1.937   .     S
Br730  C907    1.930   .     S
C731   C737    1.436   .     S
C731   O777    1.268   .     A
C731   O775    1.268   .     A
C732   C746    1.388   .     A
C732   H762    1.077   .     S
C732   C752    1.405   .     A
C733   C745    1.410   .     A
C733   C746    1.404   .     A
C734   C736    1.453   .     S
C734   O778    1.282   .     A
C734   O776    1.285   .     A
C735   C747    1.401   .     A
C735   C751    1.420   .     A
C735   C744    1.477   .     S
C736   C793    1.334   .     S
C736   H823    1.088   .     S
C738   C741    1.451   .     S
C738   C907    1.344   .     S
C738   H928    1.088   .     S
C739   C740    1.427   .     S
C740   O779    1.271   .     A
C740   O773    1.272   .     A
C741   O780    1.279   .     A
C741   O774    1.265   .     A
C742   H765    1.083   .     S
C742   C747    1.387   .     A
C742   C245    1.391   1_556 S
C743   C746    1.455   .     S
C743   O771    1.281   .     A
C743   O769    1.271   .     A
C744   O772    1.283   .     A
C744   O770    1.284   .     A
C747   H763    1.083   .     S
C748   H757    1.110   .     S
C748   H759    1.110   .     S
C748   C241    1.518   1_556 S
C748   H254    1.105   1_556 S
C749   H764    1.076   .     S
C750   C751    1.421   .     A
C750   C245    1.419   1_556 S
C750   C248    1.431   1_556 S
C751   C755    1.405   .     A
C753   C754    1.402   .     A
C753   C248    1.428   1_556 S
C753   C241    1.423   1_556 S
C754   H761    1.081   .     S
C754   C755    1.381   .     A
C755   H766    1.081   .     S
H756   C793    1.086   .     S
O768   Zn783   1.946   .     S
O768   Zn782   1.938   .     S
O768   Zn781   1.960   .     S
O768   Zn784   1.931   .     S
O769   Zn782   1.934   .     S
O770   Zn784   1.939   .     S
O771   Zn783   1.930   .     S
O772   Zn781   1.925   .     S
O773   Zn781   1.935   .     S
O774   Zn784   1.943   .     S
O775   Zn782   1.925   .     S
O776   Zn783   1.932   .     S
O777   Zn784   1.929   .     S
O778   Zn781   1.925   .     S
O779   Zn782   1.946   .     S
O780   Zn783   1.936   .     S
Br785  C789    1.937   .     S
Br786  C963    1.930   .     S
C787   C793    1.436   .     S
C787   O833    1.268   .     A
C787   O831    1.268   .     A
C788   C802    1.388   .     A
C788   H818    1.077   .     S
C788   C808    1.405   .     A
C789   C801    1.410   .     A
C789   C802    1.404   .     A
C790   C792    1.453   .     S
C790   O834    1.282   .     A
C790   O832    1.285   .     A
C791   C803    1.401   .     A
C791   C807    1.420   .     A
C791   C800    1.477   .     S
C792   C681    1.334   1_655 S
C792   H711    1.088   1_655 S
C794   C797    1.451   .     S
C794   C963    1.344   .     S
C794   H984    1.088   .     S
C795   C796    1.427   .     S
C796   O835    1.271   .     A
C796   O829    1.272   .     A
C797   O836    1.279   .     A
C797   O830    1.265   .     A
C798   H821    1.083   .     S
C798   C803    1.387   .     A
C798   C301    1.391   1_556 S
C799   C802    1.455   .     S
C799   O827    1.281   .     A
C799   O825    1.271   .     A
C800   O828    1.283   .     A
C800   O826    1.284   .     A
C803   H819    1.083   .     S
C804   H813    1.110   .     S
C804   H815    1.110   .     S
C804   C297    1.518   1_556 S
C804   H310    1.105   1_556 S
C805   H820    1.076   .     S
C806   C807    1.421   .     A
C806   C301    1.419   1_556 S
C806   C304    1.431   1_556 S
C807   C811    1.405   .     A
C809   C810    1.402   .     A
C809   C304    1.428   1_556 S
C809   C297    1.423   1_556 S
C810   H817    1.081   .     S
C810   C811    1.381   .     A
C811   H822    1.081   .     S
H812   C681    1.086   1_655 S
O824   Zn839   1.946   .     S
O824   Zn838   1.938   .     S
O824   Zn837   1.960   .     S
O824   Zn840   1.931   .     S
O825   Zn838   1.934   .     S
O826   Zn840   1.939   .     S
O827   Zn839   1.930   .     S
O828   Zn837   1.925   .     S
O829   Zn837   1.935   .     S
O830   Zn840   1.943   .     S
O831   Zn838   1.925   .     S
O832   Zn839   1.932   .     S
O833   Zn840   1.929   .     S
O834   Zn837   1.925   .     S
O835   Zn838   1.946   .     S
O836   Zn839   1.936   .     S
Br841  C845    1.937   .     S
Br842  C515    1.930   1_565 S
C843   C849    1.436   .     S
C843   O889    1.268   .     A
C843   O887    1.268   .     A
C844   C858    1.388   .     A
C844   H874    1.077   .     S
C844   C864    1.405   .     A
C845   C857    1.410   .     A
C845   C858    1.404   .     A
C846   C848    1.453   .     S
C846   O890    1.282   .     A
C846   O888    1.285   .     A
C847   C859    1.401   .     A
C847   C863    1.420   .     A
C847   C856    1.477   .     S
C848   C905    1.334   .     S
C848   H935    1.088   .     S
C849   C960    1.334   1_455 S
C849   H980    1.086   1_455 S
C850   C853    1.451   .     S
C850   C515    1.344   1_565 S
C850   H536    1.088   1_565 S
C851   C852    1.427   .     S
C852   O891    1.271   .     A
C852   O885    1.272   .     A
C853   O892    1.279   .     A
C853   O886    1.265   .     A
C854   H877    1.083   .     S
C854   C859    1.387   .     A
C854   C357    1.391   1_556 S
C855   C858    1.455   .     S
C855   O883    1.281   .     A
C855   O881    1.271   .     A
C856   O884    1.283   .     A
C856   O882    1.284   .     A
C859   H875    1.083   .     S
C860   H869    1.110   .     S
C860   H871    1.110   .     S
C860   C353    1.518   1_556 S
C860   H366    1.105   1_556 S
C861   H876    1.076   .     S
C862   C863    1.421   .     A
C862   C357    1.419   1_556 S
C862   C360    1.431   1_556 S
C863   C867    1.405   .     A
C865   C866    1.402   .     A
C865   C360    1.428   1_556 S
C865   C353    1.423   1_556 S
C866   H873    1.081   .     S
C866   C867    1.381   .     A
C867   H878    1.081   .     S
H868   C905    1.086   .     S
H879   C960    1.088   1_455 S
O880   Zn895   1.946   .     S
O880   Zn894   1.938   .     S
O880   Zn893   1.960   .     S
O880   Zn896   1.931   .     S
O881   Zn894   1.934   .     S
O882   Zn896   1.939   .     S
O883   Zn895   1.930   .     S
O884   Zn893   1.925   .     S
O885   Zn893   1.935   .     S
O886   Zn896   1.943   .     S
O887   Zn894   1.925   .     S
O888   Zn895   1.932   .     S
O889   Zn896   1.929   .     S
O890   Zn893   1.925   .     S
O891   Zn894   1.946   .     S
O892   Zn895   1.936   .     S
Br897  C901    1.937   .     S
Br898  C571    1.930   1_565 S
C899   C905    1.436   .     S
C899   O945    1.268   .     A
C899   O943    1.268   .     A
C900   C914    1.388   .     A
C900   H930    1.077   .     S
C900   C920    1.405   .     A
C901   C913    1.410   .     A
C901   C914    1.404   .     A
C902   C904    1.453   .     S
C902   O946    1.282   .     A
C902   O944    1.285   .     A
C903   C915    1.401   .     A
C903   C919    1.420   .     A
C903   C912    1.477   .     S
C904   C961    1.334   .     S
C904   H991    1.088   .     S
C906   C909    1.451   .     S
C906   C571    1.344   1_565 S
C906   H592    1.088   1_565 S
C907   C908    1.427   .     S
C908   O947    1.271   .     A
C908   O941    1.272   .     A
C909   O948    1.279   .     A
C909   O942    1.265   .     A
C910   H933    1.083   .     S
C910   C915    1.387   .     A
C910   C413    1.391   1_556 S
C911   C914    1.455   .     S
C911   O939    1.281   .     A
C911   O937    1.271   .     A
C912   O940    1.283   .     A
C912   O938    1.284   .     A
C915   H931    1.083   .     S
C916   H925    1.110   .     S
C916   H927    1.110   .     S
C916   C409    1.518   1_556 S
C916   H422    1.105   1_556 S
C917   H932    1.076   .     S
C918   C919    1.421   .     A
C918   C413    1.419   1_556 S
C918   C416    1.431   1_556 S
C919   C923    1.405   .     A
C921   C922    1.402   .     A
C921   C416    1.428   1_556 S
C921   C409    1.423   1_556 S
C922   H929    1.081   .     S
C922   C923    1.381   .     A
C923   H934    1.081   .     S
H924   C961    1.086   .     S
O936   Zn951   1.946   .     S
O936   Zn950   1.938   .     S
O936   Zn949   1.960   .     S
O936   Zn952   1.931   .     S
O937   Zn950   1.934   .     S
O938   Zn952   1.939   .     S
O939   Zn951   1.930   .     S
O940   Zn949   1.925   .     S
O941   Zn949   1.935   .     S
O942   Zn952   1.943   .     S
O943   Zn950   1.925   .     S
O944   Zn951   1.932   .     S
O945   Zn952   1.929   .     S
O946   Zn949   1.925   .     S
O947   Zn950   1.946   .     S
O948   Zn951   1.936   .     S
Br953  C957    1.937   .     S
Br954  C627    1.930   1_565 S
C955   C961    1.436   .     S
C955   O1001   1.268   .     A
C955   O999    1.268   .     A
C956   C970    1.388   .     A
C956   H986    1.077   .     S
C956   C976    1.405   .     A
C957   C969    1.410   .     A
C957   C970    1.404   .     A
C958   C960    1.453   .     S
C958   O1002   1.282   .     A
C958   O1000   1.285   .     A
C959   C971    1.401   .     A
C959   C975    1.420   .     A
C959   C968    1.477   .     S
C960   C849    1.334   1_655 S
C960   H879    1.088   1_655 S
C962   C965    1.451   .     S
C962   C627    1.344   1_565 S
C962   H648    1.088   1_565 S
C963   C964    1.427   .     S
C964   O1003   1.271   .     A
C964   O997    1.272   .     A
C965   O1004   1.279   .     A
C965   O998    1.265   .     A
C966   H989    1.083   .     S
C966   C971    1.387   .     A
C966   C469    1.391   1_556 S
C967   C970    1.455   .     S
C967   O995    1.281   .     A
C967   O993    1.271   .     A
C968   O996    1.283   .     A
C968   O994    1.284   .     A
C971   H987    1.083   .     S
C972   H981    1.110   .     S
C972   H983    1.110   .     S
C972   C465    1.518   1_556 S
C972   H478    1.105   1_556 S
C973   H988    1.076   .     S
C974   C975    1.421   .     A
C974   C469    1.419   1_556 S
C974   C472    1.431   1_556 S
C975   C979    1.405   .     A
C977   C978    1.402   .     A
C977   C472    1.428   1_556 S
C977   C465    1.423   1_556 S
C978   H985    1.081   .     S
C978   C979    1.381   .     A
C979   H990    1.081   .     S
H980   C849    1.086   1_655 S
O992   Zn1007  1.946   .     S
O992   Zn1006  1.938   .     S
O992   Zn1005  1.960   .     S
O992   Zn1008  1.931   .     S
O993   Zn1006  1.934   .     S
O994   Zn1008  1.939   .     S
O995   Zn1007  1.930   .     S
O996   Zn1005  1.925   .     S
O997   Zn1005  1.935   .     S
O998   Zn1008  1.943   .     S
O999   Zn1006  1.925   .     S
O1000  Zn1007  1.932   .     S
O1001  Zn1008  1.929   .     S
O1002  Zn1005  1.925   .     S
O1003  Zn1006  1.946   .     S
O1004  Zn1007  1.936   .     S
