data_str_m1_o10_o18_pcu_sym.212
_audit_creation_date              2020-01-03
_audit_creation_method            'Materials Studio'
_symmetry_space_group_name_H-M    'P1'
_symmetry_Int_Tables_number       1
_symmetry_cell_setting            triclinic
loop_
_symmetry_equiv_pos_as_xyz
  x,y,z
_cell_length_a                    32.5080
_cell_length_b                    32.6349
_cell_length_c                    35.6982
_cell_angle_alpha                 98.4069
_cell_angle_beta                  73.1081
_cell_angle_gamma                 98.3760
loop_
_atom_site_label
_atom_site_type_symbol
_atom_site_fract_x
_atom_site_fract_y
_atom_site_fract_z
_atom_site_U_iso_or_equiv
_atom_site_adp_type
_atom_site_occupancy
C1     C     0.05245   0.15988   0.25887   0.00000  Uiso   1.00
C2     C     0.19264   0.12799   0.46067   0.00000  Uiso   1.00
C3     C     0.20719   0.10332   0.48161   0.00000  Uiso   1.00
C4     C     0.28100   0.17356   0.24128   0.00000  Uiso   1.00
C5     C     0.20442   0.11501   0.02131   0.00000  Uiso   1.00
C6     C     0.18989   0.15394   0.03980   0.00000  Uiso   1.00
C7     C     0.21566   0.08786   0.04284   0.00000  Uiso   1.00
C8     C     0.21112   0.09811   0.08294   0.00000  Uiso   1.00
C9     C     0.18658   0.16400   0.08028   0.00000  Uiso   1.00
C10    C     0.32697   0.17624   0.23784   0.00000  Uiso   1.00
C11    C     0.00706   0.15758   0.26233   0.00000  Uiso   1.00
C12    C     0.13857   0.24280   0.41203   0.00000  Uiso   1.00
C13    C     0.17901   0.32188   0.23837   0.00000  Uiso   1.00
C14    C     0.15030   0.01250   0.26336   0.00000  Uiso   1.00
C15    C     0.15631   0.05622   0.25858   0.00000  Uiso   1.00
C16    C     0.17664   0.27767   0.24161   0.00000  Uiso   1.00
C17    C     0.18808   0.14522   0.14406   0.00000  Uiso   1.00
C18    C     0.14518   0.18752   0.35621   0.00000  Uiso   1.00
C19    C     0.14096   0.20048   0.39822   0.00000  Uiso   1.00
C20    C     0.19653   0.13607   0.10157   0.00000  Uiso   1.00
C21    C     0.14189   0.25770   0.44966   0.00000  Uiso   1.00
C22    C     0.07875   0.00947   0.30154   0.00000  Uiso   1.00
C23    C     0.14438   0.17245   0.42359   0.00000  Uiso   1.00
C24    C     0.06939   0.04595   0.33397   0.00000  Uiso   1.00
C25    C     0.02417   0.05843   0.34055   0.00000  Uiso   1.00
C26    C     0.12512   0.12804   0.41925   0.00000  Uiso   1.00
C27    C     0.15690   0.18904   0.45825   0.00000  Uiso   1.00
C28    C     0.15200   0.23141   0.47256   0.00000  Uiso   1.00
C29    C     0.17462   0.16514   0.47888   0.00000  Uiso   1.00
C30    C     0.17747   0.18041   0.01756   0.00000  Uiso   1.00
C31    C     0.16889   0.22184   0.03212   0.00000  Uiso   1.00
C32    C     0.15776   0.24721   0.00937   0.00000  Uiso   1.00
H33    H     0.15345   0.27944   0.02077   0.00000  Uiso   1.00
H34    H     0.13483   0.26460   0.39339   0.00000  Uiso   1.00
H35    H     0.17299   0.23635   0.06012   0.00000  Uiso   1.00
H36    H     0.19654   0.11795   0.42973   0.00000  Uiso   1.00
H37    H     0.05486   0.31568   0.31094   0.00000  Uiso   1.00
H38    H     0.07347   0.01676   0.27380   0.00000  Uiso   1.00
H39    H     0.07217   0.03688   0.36190   0.00000  Uiso   1.00
H40    H     0.09328   0.07337   0.32585   0.00000  Uiso   1.00
H41    H     0.02109   0.06863   0.31321   0.00000  Uiso   1.00
H42    H     0.01834   0.08470   0.36435   0.00000  Uiso   1.00
H43    H     0.33267   0.03181   0.34939   0.00000  Uiso   1.00
H44    H     0.22683   0.05818   0.02887   0.00000  Uiso   1.00
H45    H     0.09205   0.07841   0.44664   0.00000  Uiso   1.00
H46    H     0.01666   0.19341   0.21527   0.00000  Uiso   1.00
H47    H     0.31807   0.14031   0.28516   0.00000  Uiso   1.00
H48    H     0.20416   0.00174   0.21441   0.00000  Uiso   1.00
H49    H     0.17371   0.19198   0.09665   0.00000  Uiso   1.00
H50    H     0.21854   0.07629   0.09955   0.00000  Uiso   1.00
H51    H     0.21981   0.07446   0.46683   0.00000  Uiso   1.00
H52    H     0.13898   0.29036   0.45998   0.00000  Uiso   1.00
O53    O     0.16667   0.16667   0.25000   0.00000  Uiso   1.00
O54    O     0.15693   0.12393   0.16625   0.00000  Uiso   1.00
O55    O     0.12687   0.20646   0.33749   0.00000  Uiso   1.00
O56    O     0.21088   0.17493   0.15877   0.00000  Uiso   1.00
O57    O     0.17198   0.16135   0.33749   0.00000  Uiso   1.00
O58    O     0.12044   0.33097   0.29654   0.00000  Uiso   1.00
O59    O     0.12657   0.10903   0.38686   0.00000  Uiso   1.00
O60    O     0.10398   0.10827   0.45302   0.00000  Uiso   1.00
O61    O     0.17849   0.08101   0.27820   0.00000  Uiso   1.00
O62    O     0.14581   0.26136   0.26767   0.00000  Uiso   1.00
O63    O     0.07452   0.13251   0.23607   0.00000  Uiso   1.00
O64    O     0.26785   0.19179   0.21806   0.00000  Uiso   1.00
O65    O     0.06990   0.18960   0.27820   0.00000  Uiso   1.00
O66    O     0.25440   0.15277   0.26767   0.00000  Uiso   1.00
O67    O     0.13800   0.06903   0.23607   0.00000  Uiso   1.00
O68    O     0.20437   0.25527   0.21806   0.00000  Uiso   1.00
Zn69   Zn    0.19244   0.14090   0.28277   0.00000  Uiso   1.00
Zn70   Zn    0.13459   0.12378   0.22257   0.00000  Uiso   1.00
Zn71   Zn    0.21166   0.19664   0.21188   0.00000  Uiso   1.00
Zn72   Zn    0.12798   0.20535   0.28277   0.00000  Uiso   1.00
C73    C     0.38579   0.15988   0.25887   0.00000  Uiso   1.00
C74    C     0.52598   0.12799   0.46067   0.00000  Uiso   1.00
C75    C     0.54052   0.10332   0.48161   0.00000  Uiso   1.00
C76    C     0.61433   0.17356   0.24128   0.00000  Uiso   1.00
C77    C     0.53775   0.11501   0.02131   0.00000  Uiso   1.00
C78    C     0.52323   0.15394   0.03980   0.00000  Uiso   1.00
C79    C     0.54899   0.08786   0.04284   0.00000  Uiso   1.00
C80    C     0.54445   0.09811   0.08294   0.00000  Uiso   1.00
C81    C     0.51991   0.16400   0.08028   0.00000  Uiso   1.00
C82    C     0.66030   0.17624   0.23784   0.00000  Uiso   1.00
C83    C     0.34040   0.15758   0.26233   0.00000  Uiso   1.00
C84    C     0.47191   0.24280   0.41203   0.00000  Uiso   1.00
C85    C     0.51235   0.32188   0.23837   0.00000  Uiso   1.00
C86    C     0.48363   0.01250   0.26336   0.00000  Uiso   1.00
C87    C     0.48965   0.05622   0.25858   0.00000  Uiso   1.00
C88    C     0.50998   0.27767   0.24161   0.00000  Uiso   1.00
C89    C     0.52141   0.14522   0.14406   0.00000  Uiso   1.00
C90    C     0.47852   0.18752   0.35621   0.00000  Uiso   1.00
C91    C     0.47429   0.20048   0.39822   0.00000  Uiso   1.00
C92    C     0.52986   0.13607   0.10157   0.00000  Uiso   1.00
C93    C     0.47523   0.25770   0.44966   0.00000  Uiso   1.00
C94    C     0.41208   0.00947   0.30154   0.00000  Uiso   1.00
C95    C     0.47772   0.17245   0.42359   0.00000  Uiso   1.00
C96    C     0.40273   0.04595   0.33397   0.00000  Uiso   1.00
C97    C     0.35750   0.05843   0.34055   0.00000  Uiso   1.00
C98    C     0.45845   0.12804   0.41925   0.00000  Uiso   1.00
C99    C     0.49023   0.18904   0.45825   0.00000  Uiso   1.00
C100   C     0.48534   0.23141   0.47256   0.00000  Uiso   1.00
C101   C     0.50795   0.16514   0.47888   0.00000  Uiso   1.00
C102   C     0.51080   0.18041   0.01756   0.00000  Uiso   1.00
C103   C     0.50222   0.22184   0.03212   0.00000  Uiso   1.00
C104   C     0.49109   0.24721   0.00937   0.00000  Uiso   1.00
H105   H     0.48678   0.27944   0.02077   0.00000  Uiso   1.00
H106   H     0.46816   0.26460   0.39339   0.00000  Uiso   1.00
H107   H     0.50632   0.23635   0.06012   0.00000  Uiso   1.00
H108   H     0.52987   0.11795   0.42973   0.00000  Uiso   1.00
H109   H     0.38819   0.31568   0.31094   0.00000  Uiso   1.00
H110   H     0.40680   0.01676   0.27380   0.00000  Uiso   1.00
H111   H     0.40550   0.03688   0.36190   0.00000  Uiso   1.00
H112   H     0.42662   0.07337   0.32585   0.00000  Uiso   1.00
H113   H     0.35442   0.06863   0.31321   0.00000  Uiso   1.00
H114   H     0.35167   0.08470   0.36435   0.00000  Uiso   1.00
H115   H     0.66600   0.03181   0.34939   0.00000  Uiso   1.00
H116   H     0.56017   0.05818   0.02887   0.00000  Uiso   1.00
H117   H     0.42538   0.07841   0.44664   0.00000  Uiso   1.00
H118   H     0.35000   0.19341   0.21527   0.00000  Uiso   1.00
H119   H     0.65140   0.14031   0.28516   0.00000  Uiso   1.00
H120   H     0.53749   0.00174   0.21441   0.00000  Uiso   1.00
H121   H     0.50704   0.19198   0.09665   0.00000  Uiso   1.00
H122   H     0.55187   0.07629   0.09955   0.00000  Uiso   1.00
H123   H     0.55314   0.07446   0.46683   0.00000  Uiso   1.00
H124   H     0.47231   0.29036   0.45998   0.00000  Uiso   1.00
O125   O     0.50000   0.16667   0.25000   0.00000  Uiso   1.00
O126   O     0.49027   0.12393   0.16625   0.00000  Uiso   1.00
O127   O     0.46020   0.20646   0.33749   0.00000  Uiso   1.00
O128   O     0.54421   0.17493   0.15877   0.00000  Uiso   1.00
O129   O     0.50532   0.16135   0.33749   0.00000  Uiso   1.00
O130   O     0.45377   0.33097   0.29654   0.00000  Uiso   1.00
O131   O     0.45990   0.10903   0.38686   0.00000  Uiso   1.00
O132   O     0.43732   0.10827   0.45302   0.00000  Uiso   1.00
O133   O     0.51182   0.08101   0.27820   0.00000  Uiso   1.00
O134   O     0.47914   0.26136   0.26767   0.00000  Uiso   1.00
O135   O     0.40785   0.13251   0.23607   0.00000  Uiso   1.00
O136   O     0.60119   0.19179   0.21806   0.00000  Uiso   1.00
O137   O     0.40323   0.18960   0.27820   0.00000  Uiso   1.00
O138   O     0.58773   0.15277   0.26767   0.00000  Uiso   1.00
O139   O     0.47133   0.06903   0.23607   0.00000  Uiso   1.00
O140   O     0.53771   0.25527   0.21806   0.00000  Uiso   1.00
Zn141  Zn    0.52577   0.14090   0.28277   0.00000  Uiso   1.00
Zn142  Zn    0.46792   0.12378   0.22257   0.00000  Uiso   1.00
Zn143  Zn    0.54500   0.19664   0.21188   0.00000  Uiso   1.00
Zn144  Zn    0.46131   0.20535   0.28277   0.00000  Uiso   1.00
C145   C     0.71912   0.15988   0.25887   0.00000  Uiso   1.00
C146   C     0.85931   0.12799   0.46067   0.00000  Uiso   1.00
C147   C     0.87386   0.10332   0.48161   0.00000  Uiso   1.00
C148   C     0.94767   0.17356   0.24128   0.00000  Uiso   1.00
C149   C     0.87108   0.11501   0.02131   0.00000  Uiso   1.00
C150   C     0.85656   0.15394   0.03980   0.00000  Uiso   1.00
C151   C     0.88233   0.08786   0.04284   0.00000  Uiso   1.00
C152   C     0.87778   0.09811   0.08294   0.00000  Uiso   1.00
C153   C     0.85325   0.16400   0.08028   0.00000  Uiso   1.00
C154   C     0.99363   0.17624   0.23784   0.00000  Uiso   1.00
C155   C     0.67373   0.15758   0.26233   0.00000  Uiso   1.00
C156   C     0.80524   0.24280   0.41203   0.00000  Uiso   1.00
C157   C     0.84568   0.32188   0.23837   0.00000  Uiso   1.00
C158   C     0.81697   0.01250   0.26336   0.00000  Uiso   1.00
C159   C     0.82298   0.05622   0.25858   0.00000  Uiso   1.00
C160   C     0.84331   0.27767   0.24161   0.00000  Uiso   1.00
C161   C     0.85474   0.14522   0.14406   0.00000  Uiso   1.00
C162   C     0.81185   0.18752   0.35621   0.00000  Uiso   1.00
C163   C     0.80763   0.20048   0.39822   0.00000  Uiso   1.00
C164   C     0.86319   0.13607   0.10157   0.00000  Uiso   1.00
C165   C     0.80856   0.25770   0.44966   0.00000  Uiso   1.00
C166   C     0.74542   0.00947   0.30154   0.00000  Uiso   1.00
C167   C     0.81105   0.17245   0.42359   0.00000  Uiso   1.00
C168   C     0.73606   0.04595   0.33397   0.00000  Uiso   1.00
C169   C     0.69084   0.05843   0.34055   0.00000  Uiso   1.00
C170   C     0.79179   0.12804   0.41925   0.00000  Uiso   1.00
C171   C     0.82356   0.18904   0.45825   0.00000  Uiso   1.00
C172   C     0.81867   0.23141   0.47256   0.00000  Uiso   1.00
C173   C     0.84129   0.16514   0.47888   0.00000  Uiso   1.00
C174   C     0.84413   0.18041   0.01756   0.00000  Uiso   1.00
C175   C     0.83556   0.22184   0.03212   0.00000  Uiso   1.00
C176   C     0.82443   0.24721   0.00937   0.00000  Uiso   1.00
H177   H     0.82012   0.27944   0.02077   0.00000  Uiso   1.00
H178   H     0.80150   0.26460   0.39339   0.00000  Uiso   1.00
H179   H     0.83965   0.23635   0.06012   0.00000  Uiso   1.00
H180   H     0.86321   0.11795   0.42973   0.00000  Uiso   1.00
H181   H     0.72152   0.31568   0.31094   0.00000  Uiso   1.00
H182   H     0.74013   0.01676   0.27380   0.00000  Uiso   1.00
H183   H     0.73884   0.03688   0.36190   0.00000  Uiso   1.00
H184   H     0.75995   0.07337   0.32585   0.00000  Uiso   1.00
H185   H     0.68776   0.06863   0.31321   0.00000  Uiso   1.00
H186   H     0.68501   0.08470   0.36435   0.00000  Uiso   1.00
H187   H     0.99933   0.03181   0.34939   0.00000  Uiso   1.00
H188   H     0.89350   0.05818   0.02887   0.00000  Uiso   1.00
H189   H     0.75871   0.07841   0.44664   0.00000  Uiso   1.00
H190   H     0.68333   0.19341   0.21527   0.00000  Uiso   1.00
H191   H     0.98474   0.14031   0.28516   0.00000  Uiso   1.00
H192   H     0.87083   0.00174   0.21441   0.00000  Uiso   1.00
H193   H     0.84037   0.19198   0.09665   0.00000  Uiso   1.00
H194   H     0.88521   0.07629   0.09955   0.00000  Uiso   1.00
H195   H     0.88647   0.07446   0.46683   0.00000  Uiso   1.00
H196   H     0.80565   0.29036   0.45998   0.00000  Uiso   1.00
O197   O     0.83333   0.16667   0.25000   0.00000  Uiso   1.00
O198   O     0.82360   0.12393   0.16625   0.00000  Uiso   1.00
O199   O     0.79354   0.20646   0.33749   0.00000  Uiso   1.00
O200   O     0.87755   0.17493   0.15877   0.00000  Uiso   1.00
O201   O     0.83865   0.16135   0.33749   0.00000  Uiso   1.00
O202   O     0.78711   0.33097   0.29654   0.00000  Uiso   1.00
O203   O     0.79324   0.10903   0.38686   0.00000  Uiso   1.00
O204   O     0.77065   0.10827   0.45302   0.00000  Uiso   1.00
O205   O     0.84515   0.08101   0.27820   0.00000  Uiso   1.00
O206   O     0.81247   0.26136   0.26767   0.00000  Uiso   1.00
O207   O     0.74119   0.13251   0.23607   0.00000  Uiso   1.00
O208   O     0.93452   0.19179   0.21806   0.00000  Uiso   1.00
O209   O     0.73656   0.18960   0.27820   0.00000  Uiso   1.00
O210   O     0.92106   0.15277   0.26767   0.00000  Uiso   1.00
O211   O     0.80467   0.06903   0.23607   0.00000  Uiso   1.00
O212   O     0.87104   0.25527   0.21806   0.00000  Uiso   1.00
Zn213  Zn    0.85910   0.14090   0.28277   0.00000  Uiso   1.00
Zn214  Zn    0.80125   0.12378   0.22257   0.00000  Uiso   1.00
Zn215  Zn    0.87833   0.19664   0.21188   0.00000  Uiso   1.00
Zn216  Zn    0.79465   0.20535   0.28277   0.00000  Uiso   1.00
C217   C     0.05245   0.49321   0.25887   0.00000  Uiso   1.00
C218   C     0.19264   0.46132   0.46067   0.00000  Uiso   1.00
C219   C     0.20719   0.43666   0.48161   0.00000  Uiso   1.00
C220   C     0.28100   0.50690   0.24128   0.00000  Uiso   1.00
C221   C     0.20442   0.44835   0.02131   0.00000  Uiso   1.00
C222   C     0.18989   0.48727   0.03980   0.00000  Uiso   1.00
C223   C     0.21566   0.42119   0.04284   0.00000  Uiso   1.00
C224   C     0.21112   0.43144   0.08294   0.00000  Uiso   1.00
C225   C     0.18658   0.49733   0.08028   0.00000  Uiso   1.00
C226   C     0.32697   0.50957   0.23784   0.00000  Uiso   1.00
C227   C     0.00706   0.49092   0.26233   0.00000  Uiso   1.00
C228   C     0.13857   0.57614   0.41203   0.00000  Uiso   1.00
C229   C     0.17901   0.65522   0.23837   0.00000  Uiso   1.00
C230   C     0.15030   0.34584   0.26336   0.00000  Uiso   1.00
C231   C     0.15631   0.38956   0.25858   0.00000  Uiso   1.00
C232   C     0.17664   0.61100   0.24161   0.00000  Uiso   1.00
C233   C     0.18808   0.47855   0.14406   0.00000  Uiso   1.00
C234   C     0.14518   0.52086   0.35621   0.00000  Uiso   1.00
C235   C     0.14096   0.53381   0.39822   0.00000  Uiso   1.00
C236   C     0.19653   0.46940   0.10157   0.00000  Uiso   1.00
C237   C     0.14189   0.59103   0.44966   0.00000  Uiso   1.00
C238   C     0.07875   0.34281   0.30154   0.00000  Uiso   1.00
C239   C     0.14438   0.50579   0.42359   0.00000  Uiso   1.00
C240   C     0.06939   0.37928   0.33397   0.00000  Uiso   1.00
C241   C     0.02417   0.39176   0.34055   0.00000  Uiso   1.00
C242   C     0.12512   0.46138   0.41925   0.00000  Uiso   1.00
C243   C     0.15690   0.52238   0.45825   0.00000  Uiso   1.00
C244   C     0.15200   0.56474   0.47256   0.00000  Uiso   1.00
C245   C     0.17462   0.49847   0.47888   0.00000  Uiso   1.00
C246   C     0.17747   0.51374   0.01756   0.00000  Uiso   1.00
C247   C     0.16889   0.55518   0.03212   0.00000  Uiso   1.00
C248   C     0.15776   0.58055   0.00937   0.00000  Uiso   1.00
H249   H     0.15345   0.61277   0.02077   0.00000  Uiso   1.00
H250   H     0.13483   0.59794   0.39339   0.00000  Uiso   1.00
H251   H     0.17299   0.56969   0.06012   0.00000  Uiso   1.00
H252   H     0.19654   0.45129   0.42973   0.00000  Uiso   1.00
H253   H     0.05486   0.64902   0.31094   0.00000  Uiso   1.00
H254   H     0.07347   0.35009   0.27380   0.00000  Uiso   1.00
H255   H     0.07217   0.37022   0.36190   0.00000  Uiso   1.00
H256   H     0.09328   0.40670   0.32585   0.00000  Uiso   1.00
H257   H     0.02109   0.40196   0.31321   0.00000  Uiso   1.00
H258   H     0.01834   0.41803   0.36435   0.00000  Uiso   1.00
H259   H     0.33267   0.36514   0.34939   0.00000  Uiso   1.00
H260   H     0.22683   0.39151   0.02887   0.00000  Uiso   1.00
H261   H     0.09205   0.41174   0.44664   0.00000  Uiso   1.00
H262   H     0.01666   0.52675   0.21527   0.00000  Uiso   1.00
H263   H     0.31807   0.47364   0.28516   0.00000  Uiso   1.00
H264   H     0.20416   0.33508   0.21441   0.00000  Uiso   1.00
H265   H     0.17371   0.52531   0.09665   0.00000  Uiso   1.00
H266   H     0.21854   0.40962   0.09955   0.00000  Uiso   1.00
H267   H     0.21981   0.40779   0.46683   0.00000  Uiso   1.00
H268   H     0.13898   0.62369   0.45998   0.00000  Uiso   1.00
O269   O     0.16667   0.50000   0.25000   0.00000  Uiso   1.00
O270   O     0.15693   0.45726   0.16625   0.00000  Uiso   1.00
O271   O     0.12687   0.53979   0.33749   0.00000  Uiso   1.00
O272   O     0.21088   0.50826   0.15877   0.00000  Uiso   1.00
O273   O     0.17198   0.49468   0.33749   0.00000  Uiso   1.00
O274   O     0.12044   0.66431   0.29654   0.00000  Uiso   1.00
O275   O     0.12657   0.44237   0.38686   0.00000  Uiso   1.00
O276   O     0.10398   0.44160   0.45302   0.00000  Uiso   1.00
O277   O     0.17849   0.41434   0.27820   0.00000  Uiso   1.00
O278   O     0.14581   0.59469   0.26767   0.00000  Uiso   1.00
O279   O     0.07452   0.46584   0.23607   0.00000  Uiso   1.00
O280   O     0.26785   0.52512   0.21806   0.00000  Uiso   1.00
O281   O     0.06990   0.52293   0.27820   0.00000  Uiso   1.00
O282   O     0.25440   0.48610   0.26767   0.00000  Uiso   1.00
O283   O     0.13800   0.40236   0.23607   0.00000  Uiso   1.00
O284   O     0.20437   0.58860   0.21806   0.00000  Uiso   1.00
Zn285  Zn    0.19244   0.47423   0.28277   0.00000  Uiso   1.00
Zn286  Zn    0.13459   0.45711   0.22257   0.00000  Uiso   1.00
Zn287  Zn    0.21166   0.52997   0.21188   0.00000  Uiso   1.00
Zn288  Zn    0.12798   0.53868   0.28277   0.00000  Uiso   1.00
C289   C     0.38579   0.49321   0.25887   0.00000  Uiso   1.00
C290   C     0.52598   0.46132   0.46067   0.00000  Uiso   1.00
C291   C     0.54052   0.43666   0.48161   0.00000  Uiso   1.00
C292   C     0.61433   0.50690   0.24128   0.00000  Uiso   1.00
C293   C     0.53775   0.44835   0.02131   0.00000  Uiso   1.00
C294   C     0.52323   0.48727   0.03980   0.00000  Uiso   1.00
C295   C     0.54899   0.42119   0.04284   0.00000  Uiso   1.00
C296   C     0.54445   0.43144   0.08294   0.00000  Uiso   1.00
C297   C     0.51991   0.49733   0.08028   0.00000  Uiso   1.00
C298   C     0.66030   0.50957   0.23784   0.00000  Uiso   1.00
C299   C     0.34040   0.49092   0.26233   0.00000  Uiso   1.00
C300   C     0.47191   0.57614   0.41203   0.00000  Uiso   1.00
C301   C     0.51235   0.65522   0.23837   0.00000  Uiso   1.00
C302   C     0.48363   0.34584   0.26336   0.00000  Uiso   1.00
C303   C     0.48965   0.38956   0.25858   0.00000  Uiso   1.00
C304   C     0.50998   0.61100   0.24161   0.00000  Uiso   1.00
C305   C     0.52141   0.47855   0.14406   0.00000  Uiso   1.00
C306   C     0.47852   0.52086   0.35621   0.00000  Uiso   1.00
C307   C     0.47429   0.53381   0.39822   0.00000  Uiso   1.00
C308   C     0.52986   0.46940   0.10157   0.00000  Uiso   1.00
C309   C     0.47523   0.59103   0.44966   0.00000  Uiso   1.00
C310   C     0.41208   0.34281   0.30154   0.00000  Uiso   1.00
C311   C     0.47772   0.50579   0.42359   0.00000  Uiso   1.00
C312   C     0.40273   0.37928   0.33397   0.00000  Uiso   1.00
C313   C     0.35750   0.39176   0.34055   0.00000  Uiso   1.00
C314   C     0.45845   0.46138   0.41925   0.00000  Uiso   1.00
C315   C     0.49023   0.52238   0.45825   0.00000  Uiso   1.00
C316   C     0.48534   0.56474   0.47256   0.00000  Uiso   1.00
C317   C     0.50795   0.49847   0.47888   0.00000  Uiso   1.00
C318   C     0.51080   0.51374   0.01756   0.00000  Uiso   1.00
C319   C     0.50222   0.55518   0.03212   0.00000  Uiso   1.00
C320   C     0.49109   0.58055   0.00937   0.00000  Uiso   1.00
H321   H     0.48678   0.61277   0.02077   0.00000  Uiso   1.00
H322   H     0.46816   0.59794   0.39339   0.00000  Uiso   1.00
H323   H     0.50632   0.56969   0.06012   0.00000  Uiso   1.00
H324   H     0.52987   0.45129   0.42973   0.00000  Uiso   1.00
H325   H     0.38819   0.64902   0.31094   0.00000  Uiso   1.00
H326   H     0.40680   0.35009   0.27380   0.00000  Uiso   1.00
H327   H     0.40550   0.37022   0.36190   0.00000  Uiso   1.00
H328   H     0.42662   0.40670   0.32585   0.00000  Uiso   1.00
H329   H     0.35442   0.40196   0.31321   0.00000  Uiso   1.00
H330   H     0.35167   0.41803   0.36435   0.00000  Uiso   1.00
H331   H     0.66600   0.36514   0.34939   0.00000  Uiso   1.00
H332   H     0.56017   0.39151   0.02887   0.00000  Uiso   1.00
H333   H     0.42538   0.41174   0.44664   0.00000  Uiso   1.00
H334   H     0.35000   0.52675   0.21527   0.00000  Uiso   1.00
H335   H     0.65140   0.47364   0.28516   0.00000  Uiso   1.00
H336   H     0.53749   0.33508   0.21441   0.00000  Uiso   1.00
H337   H     0.50704   0.52531   0.09665   0.00000  Uiso   1.00
H338   H     0.55187   0.40962   0.09955   0.00000  Uiso   1.00
H339   H     0.55314   0.40779   0.46683   0.00000  Uiso   1.00
H340   H     0.47231   0.62369   0.45998   0.00000  Uiso   1.00
O341   O     0.50000   0.50000   0.25000   0.00000  Uiso   1.00
O342   O     0.49027   0.45726   0.16625   0.00000  Uiso   1.00
O343   O     0.46020   0.53979   0.33749   0.00000  Uiso   1.00
O344   O     0.54421   0.50826   0.15877   0.00000  Uiso   1.00
O345   O     0.50532   0.49468   0.33749   0.00000  Uiso   1.00
O346   O     0.45377   0.66431   0.29654   0.00000  Uiso   1.00
O347   O     0.45990   0.44237   0.38686   0.00000  Uiso   1.00
O348   O     0.43732   0.44160   0.45302   0.00000  Uiso   1.00
O349   O     0.51182   0.41434   0.27820   0.00000  Uiso   1.00
O350   O     0.47914   0.59469   0.26767   0.00000  Uiso   1.00
O351   O     0.40785   0.46584   0.23607   0.00000  Uiso   1.00
O352   O     0.60119   0.52512   0.21806   0.00000  Uiso   1.00
O353   O     0.40323   0.52293   0.27820   0.00000  Uiso   1.00
O354   O     0.58773   0.48610   0.26767   0.00000  Uiso   1.00
O355   O     0.47133   0.40236   0.23607   0.00000  Uiso   1.00
O356   O     0.53771   0.58860   0.21806   0.00000  Uiso   1.00
Zn357  Zn    0.52577   0.47423   0.28277   0.00000  Uiso   1.00
Zn358  Zn    0.46792   0.45711   0.22257   0.00000  Uiso   1.00
Zn359  Zn    0.54500   0.52997   0.21188   0.00000  Uiso   1.00
Zn360  Zn    0.46131   0.53868   0.28277   0.00000  Uiso   1.00
C361   C     0.71912   0.49321   0.25887   0.00000  Uiso   1.00
C362   C     0.85931   0.46132   0.46067   0.00000  Uiso   1.00
C363   C     0.87386   0.43666   0.48161   0.00000  Uiso   1.00
C364   C     0.94767   0.50690   0.24128   0.00000  Uiso   1.00
C365   C     0.87108   0.44835   0.02131   0.00000  Uiso   1.00
C366   C     0.85656   0.48727   0.03980   0.00000  Uiso   1.00
C367   C     0.88233   0.42119   0.04284   0.00000  Uiso   1.00
C368   C     0.87778   0.43144   0.08294   0.00000  Uiso   1.00
C369   C     0.85325   0.49733   0.08028   0.00000  Uiso   1.00
C370   C     0.99363   0.50957   0.23784   0.00000  Uiso   1.00
C371   C     0.67373   0.49092   0.26233   0.00000  Uiso   1.00
C372   C     0.80524   0.57614   0.41203   0.00000  Uiso   1.00
C373   C     0.84568   0.65522   0.23837   0.00000  Uiso   1.00
C374   C     0.81697   0.34584   0.26336   0.00000  Uiso   1.00
C375   C     0.82298   0.38956   0.25858   0.00000  Uiso   1.00
C376   C     0.84331   0.61100   0.24161   0.00000  Uiso   1.00
C377   C     0.85474   0.47855   0.14406   0.00000  Uiso   1.00
C378   C     0.81185   0.52086   0.35621   0.00000  Uiso   1.00
C379   C     0.80763   0.53381   0.39822   0.00000  Uiso   1.00
C380   C     0.86319   0.46940   0.10157   0.00000  Uiso   1.00
C381   C     0.80856   0.59103   0.44966   0.00000  Uiso   1.00
C382   C     0.74542   0.34281   0.30154   0.00000  Uiso   1.00
C383   C     0.81105   0.50579   0.42359   0.00000  Uiso   1.00
C384   C     0.73606   0.37928   0.33397   0.00000  Uiso   1.00
C385   C     0.69084   0.39176   0.34055   0.00000  Uiso   1.00
C386   C     0.79179   0.46138   0.41925   0.00000  Uiso   1.00
C387   C     0.82356   0.52238   0.45825   0.00000  Uiso   1.00
C388   C     0.81867   0.56474   0.47256   0.00000  Uiso   1.00
C389   C     0.84129   0.49847   0.47888   0.00000  Uiso   1.00
C390   C     0.84413   0.51374   0.01756   0.00000  Uiso   1.00
C391   C     0.83556   0.55518   0.03212   0.00000  Uiso   1.00
C392   C     0.82443   0.58055   0.00937   0.00000  Uiso   1.00
H393   H     0.82012   0.61277   0.02077   0.00000  Uiso   1.00
H394   H     0.80150   0.59794   0.39339   0.00000  Uiso   1.00
H395   H     0.83965   0.56969   0.06012   0.00000  Uiso   1.00
H396   H     0.86321   0.45129   0.42973   0.00000  Uiso   1.00
H397   H     0.72152   0.64902   0.31094   0.00000  Uiso   1.00
H398   H     0.74013   0.35009   0.27380   0.00000  Uiso   1.00
H399   H     0.73884   0.37022   0.36190   0.00000  Uiso   1.00
H400   H     0.75995   0.40670   0.32585   0.00000  Uiso   1.00
H401   H     0.68776   0.40196   0.31321   0.00000  Uiso   1.00
H402   H     0.68501   0.41803   0.36435   0.00000  Uiso   1.00
H403   H     0.99933   0.36514   0.34939   0.00000  Uiso   1.00
H404   H     0.89350   0.39151   0.02887   0.00000  Uiso   1.00
H405   H     0.75871   0.41174   0.44664   0.00000  Uiso   1.00
H406   H     0.68333   0.52675   0.21527   0.00000  Uiso   1.00
H407   H     0.98474   0.47364   0.28516   0.00000  Uiso   1.00
H408   H     0.87083   0.33508   0.21441   0.00000  Uiso   1.00
H409   H     0.84037   0.52531   0.09665   0.00000  Uiso   1.00
H410   H     0.88521   0.40962   0.09955   0.00000  Uiso   1.00
H411   H     0.88647   0.40779   0.46683   0.00000  Uiso   1.00
H412   H     0.80565   0.62369   0.45998   0.00000  Uiso   1.00
O413   O     0.83333   0.50000   0.25000   0.00000  Uiso   1.00
O414   O     0.82360   0.45726   0.16625   0.00000  Uiso   1.00
O415   O     0.79354   0.53979   0.33749   0.00000  Uiso   1.00
O416   O     0.87755   0.50826   0.15877   0.00000  Uiso   1.00
O417   O     0.83865   0.49468   0.33749   0.00000  Uiso   1.00
O418   O     0.78711   0.66431   0.29654   0.00000  Uiso   1.00
O419   O     0.79324   0.44237   0.38686   0.00000  Uiso   1.00
O420   O     0.77065   0.44160   0.45302   0.00000  Uiso   1.00
O421   O     0.84515   0.41434   0.27820   0.00000  Uiso   1.00
O422   O     0.81247   0.59469   0.26767   0.00000  Uiso   1.00
O423   O     0.74119   0.46584   0.23607   0.00000  Uiso   1.00
O424   O     0.93452   0.52512   0.21806   0.00000  Uiso   1.00
O425   O     0.73656   0.52293   0.27820   0.00000  Uiso   1.00
O426   O     0.92106   0.48610   0.26767   0.00000  Uiso   1.00
O427   O     0.80467   0.40236   0.23607   0.00000  Uiso   1.00
O428   O     0.87104   0.58860   0.21806   0.00000  Uiso   1.00
Zn429  Zn    0.85910   0.47423   0.28277   0.00000  Uiso   1.00
Zn430  Zn    0.80125   0.45711   0.22257   0.00000  Uiso   1.00
Zn431  Zn    0.87833   0.52997   0.21188   0.00000  Uiso   1.00
Zn432  Zn    0.79465   0.53868   0.28277   0.00000  Uiso   1.00
C433   C     0.05245   0.82655   0.25887   0.00000  Uiso   1.00
C434   C     0.19264   0.79465   0.46067   0.00000  Uiso   1.00
C435   C     0.20719   0.76999   0.48161   0.00000  Uiso   1.00
C436   C     0.28100   0.84023   0.24128   0.00000  Uiso   1.00
C437   C     0.20442   0.78168   0.02131   0.00000  Uiso   1.00
C438   C     0.18989   0.82061   0.03980   0.00000  Uiso   1.00
C439   C     0.21566   0.75453   0.04284   0.00000  Uiso   1.00
C440   C     0.21112   0.76478   0.08294   0.00000  Uiso   1.00
C441   C     0.18658   0.83066   0.08028   0.00000  Uiso   1.00
C442   C     0.32697   0.84291   0.23784   0.00000  Uiso   1.00
C443   C     0.00706   0.82425   0.26233   0.00000  Uiso   1.00
C444   C     0.13857   0.90947   0.41203   0.00000  Uiso   1.00
C445   C     0.17901   0.98855   0.23837   0.00000  Uiso   1.00
C446   C     0.15030   0.67917   0.26336   0.00000  Uiso   1.00
C447   C     0.15631   0.72289   0.25858   0.00000  Uiso   1.00
C448   C     0.17664   0.94433   0.24161   0.00000  Uiso   1.00
C449   C     0.18808   0.81189   0.14406   0.00000  Uiso   1.00
C450   C     0.14518   0.85419   0.35621   0.00000  Uiso   1.00
C451   C     0.14096   0.86715   0.39822   0.00000  Uiso   1.00
C452   C     0.19653   0.80273   0.10157   0.00000  Uiso   1.00
C453   C     0.14189   0.92437   0.44966   0.00000  Uiso   1.00
C454   C     0.07875   0.67614   0.30154   0.00000  Uiso   1.00
C455   C     0.14438   0.83912   0.42359   0.00000  Uiso   1.00
C456   C     0.06939   0.71262   0.33397   0.00000  Uiso   1.00
C457   C     0.02417   0.72510   0.34055   0.00000  Uiso   1.00
C458   C     0.12512   0.79471   0.41925   0.00000  Uiso   1.00
C459   C     0.15690   0.85571   0.45825   0.00000  Uiso   1.00
C460   C     0.15200   0.89807   0.47256   0.00000  Uiso   1.00
C461   C     0.17462   0.83181   0.47888   0.00000  Uiso   1.00
C462   C     0.17747   0.84707   0.01756   0.00000  Uiso   1.00
C463   C     0.16889   0.88851   0.03212   0.00000  Uiso   1.00
C464   C     0.15776   0.91388   0.00937   0.00000  Uiso   1.00
H465   H     0.15345   0.94610   0.02077   0.00000  Uiso   1.00
H466   H     0.13483   0.93127   0.39339   0.00000  Uiso   1.00
H467   H     0.17299   0.90302   0.06012   0.00000  Uiso   1.00
H468   H     0.19654   0.78462   0.42973   0.00000  Uiso   1.00
H469   H     0.05486   0.98235   0.31094   0.00000  Uiso   1.00
H470   H     0.07347   0.68343   0.27380   0.00000  Uiso   1.00
H471   H     0.07217   0.70355   0.36190   0.00000  Uiso   1.00
H472   H     0.09328   0.74004   0.32585   0.00000  Uiso   1.00
H473   H     0.02109   0.73529   0.31321   0.00000  Uiso   1.00
H474   H     0.01834   0.75136   0.36435   0.00000  Uiso   1.00
H475   H     0.33267   0.69848   0.34939   0.00000  Uiso   1.00
H476   H     0.22683   0.72485   0.02887   0.00000  Uiso   1.00
H477   H     0.09205   0.74508   0.44664   0.00000  Uiso   1.00
H478   H     0.01666   0.86008   0.21527   0.00000  Uiso   1.00
H479   H     0.31807   0.80698   0.28516   0.00000  Uiso   1.00
H480   H     0.20416   0.66841   0.21441   0.00000  Uiso   1.00
H481   H     0.17371   0.85865   0.09665   0.00000  Uiso   1.00
H482   H     0.21854   0.74295   0.09955   0.00000  Uiso   1.00
H483   H     0.21981   0.74113   0.46683   0.00000  Uiso   1.00
H484   H     0.13898   0.95703   0.45998   0.00000  Uiso   1.00
O485   O     0.16667   0.83333   0.25000   0.00000  Uiso   1.00
O486   O     0.15693   0.79060   0.16625   0.00000  Uiso   1.00
O487   O     0.12687   0.87313   0.33749   0.00000  Uiso   1.00
O488   O     0.21088   0.84159   0.15877   0.00000  Uiso   1.00
O489   O     0.17198   0.82802   0.33749   0.00000  Uiso   1.00
O490   O     0.12044   0.99764   0.29654   0.00000  Uiso   1.00
O491   O     0.12657   0.77570   0.38686   0.00000  Uiso   1.00
O492   O     0.10398   0.77493   0.45302   0.00000  Uiso   1.00
O493   O     0.17849   0.74768   0.27820   0.00000  Uiso   1.00
O494   O     0.14581   0.92803   0.26767   0.00000  Uiso   1.00
O495   O     0.07452   0.79917   0.23607   0.00000  Uiso   1.00
O496   O     0.26785   0.85845   0.21806   0.00000  Uiso   1.00
O497   O     0.06990   0.85627   0.27820   0.00000  Uiso   1.00
O498   O     0.25440   0.81944   0.26767   0.00000  Uiso   1.00
O499   O     0.13800   0.73570   0.23607   0.00000  Uiso   1.00
O500   O     0.20437   0.92193   0.21806   0.00000  Uiso   1.00
Zn501  Zn    0.19244   0.80756   0.28277   0.00000  Uiso   1.00
Zn502  Zn    0.13459   0.79044   0.22257   0.00000  Uiso   1.00
Zn503  Zn    0.21166   0.86331   0.21188   0.00000  Uiso   1.00
Zn504  Zn    0.12798   0.87202   0.28277   0.00000  Uiso   1.00
C505   C     0.38579   0.82655   0.25887   0.00000  Uiso   1.00
C506   C     0.52598   0.79465   0.46067   0.00000  Uiso   1.00
C507   C     0.54052   0.76999   0.48161   0.00000  Uiso   1.00
C508   C     0.61433   0.84023   0.24128   0.00000  Uiso   1.00
C509   C     0.53775   0.78168   0.02131   0.00000  Uiso   1.00
C510   C     0.52323   0.82061   0.03980   0.00000  Uiso   1.00
C511   C     0.54899   0.75453   0.04284   0.00000  Uiso   1.00
C512   C     0.54445   0.76478   0.08294   0.00000  Uiso   1.00
C513   C     0.51991   0.83066   0.08028   0.00000  Uiso   1.00
C514   C     0.66030   0.84291   0.23784   0.00000  Uiso   1.00
C515   C     0.34040   0.82425   0.26233   0.00000  Uiso   1.00
C516   C     0.47191   0.90947   0.41203   0.00000  Uiso   1.00
C517   C     0.51235   0.98855   0.23837   0.00000  Uiso   1.00
C518   C     0.48363   0.67917   0.26336   0.00000  Uiso   1.00
C519   C     0.48965   0.72289   0.25858   0.00000  Uiso   1.00
C520   C     0.50998   0.94433   0.24161   0.00000  Uiso   1.00
C521   C     0.52141   0.81189   0.14406   0.00000  Uiso   1.00
C522   C     0.47852   0.85419   0.35621   0.00000  Uiso   1.00
C523   C     0.47429   0.86715   0.39822   0.00000  Uiso   1.00
C524   C     0.52986   0.80273   0.10157   0.00000  Uiso   1.00
C525   C     0.47523   0.92437   0.44966   0.00000  Uiso   1.00
C526   C     0.41208   0.67614   0.30154   0.00000  Uiso   1.00
C527   C     0.47772   0.83912   0.42359   0.00000  Uiso   1.00
C528   C     0.40273   0.71262   0.33397   0.00000  Uiso   1.00
C529   C     0.35750   0.72510   0.34055   0.00000  Uiso   1.00
C530   C     0.45845   0.79471   0.41925   0.00000  Uiso   1.00
C531   C     0.49023   0.85571   0.45825   0.00000  Uiso   1.00
C532   C     0.48534   0.89807   0.47256   0.00000  Uiso   1.00
C533   C     0.50795   0.83181   0.47888   0.00000  Uiso   1.00
C534   C     0.51080   0.84707   0.01756   0.00000  Uiso   1.00
C535   C     0.50222   0.88851   0.03212   0.00000  Uiso   1.00
C536   C     0.49109   0.91388   0.00937   0.00000  Uiso   1.00
H537   H     0.48678   0.94610   0.02077   0.00000  Uiso   1.00
H538   H     0.46816   0.93127   0.39339   0.00000  Uiso   1.00
H539   H     0.50632   0.90302   0.06012   0.00000  Uiso   1.00
H540   H     0.52987   0.78462   0.42973   0.00000  Uiso   1.00
H541   H     0.38819   0.98235   0.31094   0.00000  Uiso   1.00
H542   H     0.40680   0.68343   0.27380   0.00000  Uiso   1.00
H543   H     0.40550   0.70355   0.36190   0.00000  Uiso   1.00
H544   H     0.42662   0.74004   0.32585   0.00000  Uiso   1.00
H545   H     0.35442   0.73529   0.31321   0.00000  Uiso   1.00
H546   H     0.35167   0.75136   0.36435   0.00000  Uiso   1.00
H547   H     0.66600   0.69848   0.34939   0.00000  Uiso   1.00
H548   H     0.56017   0.72485   0.02887   0.00000  Uiso   1.00
H549   H     0.42538   0.74508   0.44664   0.00000  Uiso   1.00
H550   H     0.35000   0.86008   0.21527   0.00000  Uiso   1.00
H551   H     0.65140   0.80698   0.28516   0.00000  Uiso   1.00
H552   H     0.53749   0.66841   0.21441   0.00000  Uiso   1.00
H553   H     0.50704   0.85865   0.09665   0.00000  Uiso   1.00
H554   H     0.55187   0.74295   0.09955   0.00000  Uiso   1.00
H555   H     0.55314   0.74113   0.46683   0.00000  Uiso   1.00
H556   H     0.47231   0.95703   0.45998   0.00000  Uiso   1.00
O557   O     0.50000   0.83333   0.25000   0.00000  Uiso   1.00
O558   O     0.49027   0.79060   0.16625   0.00000  Uiso   1.00
O559   O     0.46020   0.87313   0.33749   0.00000  Uiso   1.00
O560   O     0.54421   0.84159   0.15877   0.00000  Uiso   1.00
O561   O     0.50532   0.82802   0.33749   0.00000  Uiso   1.00
O562   O     0.45377   0.99764   0.29654   0.00000  Uiso   1.00
O563   O     0.45990   0.77570   0.38686   0.00000  Uiso   1.00
O564   O     0.43732   0.77493   0.45302   0.00000  Uiso   1.00
O565   O     0.51182   0.74768   0.27820   0.00000  Uiso   1.00
O566   O     0.47914   0.92803   0.26767   0.00000  Uiso   1.00
O567   O     0.40785   0.79917   0.23607   0.00000  Uiso   1.00
O568   O     0.60119   0.85845   0.21806   0.00000  Uiso   1.00
O569   O     0.40323   0.85627   0.27820   0.00000  Uiso   1.00
O570   O     0.58773   0.81944   0.26767   0.00000  Uiso   1.00
O571   O     0.47133   0.73570   0.23607   0.00000  Uiso   1.00
O572   O     0.53771   0.92193   0.21806   0.00000  Uiso   1.00
Zn573  Zn    0.52577   0.80756   0.28277   0.00000  Uiso   1.00
Zn574  Zn    0.46792   0.79044   0.22257   0.00000  Uiso   1.00
Zn575  Zn    0.54500   0.86331   0.21188   0.00000  Uiso   1.00
Zn576  Zn    0.46131   0.87202   0.28277   0.00000  Uiso   1.00
C577   C     0.71912   0.82655   0.25887   0.00000  Uiso   1.00
C578   C     0.85931   0.79465   0.46067   0.00000  Uiso   1.00
C579   C     0.87386   0.76999   0.48161   0.00000  Uiso   1.00
C580   C     0.94767   0.84023   0.24128   0.00000  Uiso   1.00
C581   C     0.87108   0.78168   0.02131   0.00000  Uiso   1.00
C582   C     0.85656   0.82061   0.03980   0.00000  Uiso   1.00
C583   C     0.88233   0.75453   0.04284   0.00000  Uiso   1.00
C584   C     0.87778   0.76478   0.08294   0.00000  Uiso   1.00
C585   C     0.85325   0.83066   0.08028   0.00000  Uiso   1.00
C586   C     0.99363   0.84291   0.23784   0.00000  Uiso   1.00
C587   C     0.67373   0.82425   0.26233   0.00000  Uiso   1.00
C588   C     0.80524   0.90947   0.41203   0.00000  Uiso   1.00
C589   C     0.84568   0.98855   0.23837   0.00000  Uiso   1.00
C590   C     0.81697   0.67917   0.26336   0.00000  Uiso   1.00
C591   C     0.82298   0.72289   0.25858   0.00000  Uiso   1.00
C592   C     0.84331   0.94433   0.24161   0.00000  Uiso   1.00
C593   C     0.85474   0.81189   0.14406   0.00000  Uiso   1.00
C594   C     0.81185   0.85419   0.35621   0.00000  Uiso   1.00
C595   C     0.80763   0.86715   0.39822   0.00000  Uiso   1.00
C596   C     0.86319   0.80273   0.10157   0.00000  Uiso   1.00
C597   C     0.80856   0.92437   0.44966   0.00000  Uiso   1.00
C598   C     0.74542   0.67614   0.30154   0.00000  Uiso   1.00
C599   C     0.81105   0.83912   0.42359   0.00000  Uiso   1.00
C600   C     0.73606   0.71262   0.33397   0.00000  Uiso   1.00
C601   C     0.69084   0.72510   0.34055   0.00000  Uiso   1.00
C602   C     0.79179   0.79471   0.41925   0.00000  Uiso   1.00
C603   C     0.82356   0.85571   0.45825   0.00000  Uiso   1.00
C604   C     0.81867   0.89807   0.47256   0.00000  Uiso   1.00
C605   C     0.84129   0.83181   0.47888   0.00000  Uiso   1.00
C606   C     0.84413   0.84707   0.01756   0.00000  Uiso   1.00
C607   C     0.83556   0.88851   0.03212   0.00000  Uiso   1.00
C608   C     0.82443   0.91388   0.00937   0.00000  Uiso   1.00
H609   H     0.82012   0.94610   0.02077   0.00000  Uiso   1.00
H610   H     0.80150   0.93127   0.39339   0.00000  Uiso   1.00
H611   H     0.83965   0.90302   0.06012   0.00000  Uiso   1.00
H612   H     0.86321   0.78462   0.42973   0.00000  Uiso   1.00
H613   H     0.72152   0.98235   0.31094   0.00000  Uiso   1.00
H614   H     0.74013   0.68343   0.27380   0.00000  Uiso   1.00
H615   H     0.73884   0.70355   0.36190   0.00000  Uiso   1.00
H616   H     0.75995   0.74004   0.32585   0.00000  Uiso   1.00
H617   H     0.68776   0.73529   0.31321   0.00000  Uiso   1.00
H618   H     0.68501   0.75136   0.36435   0.00000  Uiso   1.00
H619   H     0.99933   0.69848   0.34939   0.00000  Uiso   1.00
H620   H     0.89350   0.72485   0.02887   0.00000  Uiso   1.00
H621   H     0.75871   0.74508   0.44664   0.00000  Uiso   1.00
H622   H     0.68333   0.86008   0.21527   0.00000  Uiso   1.00
H623   H     0.98474   0.80698   0.28516   0.00000  Uiso   1.00
H624   H     0.87083   0.66841   0.21441   0.00000  Uiso   1.00
H625   H     0.84037   0.85865   0.09665   0.00000  Uiso   1.00
H626   H     0.88521   0.74295   0.09955   0.00000  Uiso   1.00
H627   H     0.88647   0.74113   0.46683   0.00000  Uiso   1.00
H628   H     0.80565   0.95703   0.45998   0.00000  Uiso   1.00
O629   O     0.83333   0.83333   0.25000   0.00000  Uiso   1.00
O630   O     0.82360   0.79060   0.16625   0.00000  Uiso   1.00
O631   O     0.79354   0.87313   0.33749   0.00000  Uiso   1.00
O632   O     0.87755   0.84159   0.15877   0.00000  Uiso   1.00
O633   O     0.83865   0.82802   0.33749   0.00000  Uiso   1.00
O634   O     0.78711   0.99764   0.29654   0.00000  Uiso   1.00
O635   O     0.79324   0.77570   0.38686   0.00000  Uiso   1.00
O636   O     0.77065   0.77493   0.45302   0.00000  Uiso   1.00
O637   O     0.84515   0.74768   0.27820   0.00000  Uiso   1.00
O638   O     0.81247   0.92803   0.26767   0.00000  Uiso   1.00
O639   O     0.74119   0.79917   0.23607   0.00000  Uiso   1.00
O640   O     0.93452   0.85845   0.21806   0.00000  Uiso   1.00
O641   O     0.73656   0.85627   0.27820   0.00000  Uiso   1.00
O642   O     0.92106   0.81944   0.26767   0.00000  Uiso   1.00
O643   O     0.80467   0.73570   0.23607   0.00000  Uiso   1.00
O644   O     0.87104   0.92193   0.21806   0.00000  Uiso   1.00
Zn645  Zn    0.85910   0.80756   0.28277   0.00000  Uiso   1.00
Zn646  Zn    0.80125   0.79044   0.22257   0.00000  Uiso   1.00
Zn647  Zn    0.87833   0.86331   0.21188   0.00000  Uiso   1.00
Zn648  Zn    0.79465   0.87202   0.28277   0.00000  Uiso   1.00
C649   C     0.05245   0.15988   0.75887   0.00000  Uiso   1.00
C650   C     0.19264   0.12799   0.96067   0.00000  Uiso   1.00
C651   C     0.20719   0.10332   0.98161   0.00000  Uiso   1.00
C652   C     0.28100   0.17356   0.74128   0.00000  Uiso   1.00
C653   C     0.20442   0.11501   0.52131   0.00000  Uiso   1.00
C654   C     0.18989   0.15394   0.53980   0.00000  Uiso   1.00
C655   C     0.21566   0.08786   0.54284   0.00000  Uiso   1.00
C656   C     0.21112   0.09811   0.58294   0.00000  Uiso   1.00
C657   C     0.18658   0.16400   0.58028   0.00000  Uiso   1.00
C658   C     0.32697   0.17624   0.73784   0.00000  Uiso   1.00
C659   C     0.00706   0.15758   0.76233   0.00000  Uiso   1.00
C660   C     0.13857   0.24280   0.91203   0.00000  Uiso   1.00
C661   C     0.17901   0.32188   0.73837   0.00000  Uiso   1.00
C662   C     0.15030   0.01250   0.76336   0.00000  Uiso   1.00
C663   C     0.15631   0.05622   0.75858   0.00000  Uiso   1.00
C664   C     0.17664   0.27767   0.74161   0.00000  Uiso   1.00
C665   C     0.18808   0.14522   0.64406   0.00000  Uiso   1.00
C666   C     0.14518   0.18752   0.85621   0.00000  Uiso   1.00
C667   C     0.14096   0.20048   0.89822   0.00000  Uiso   1.00
C668   C     0.19653   0.13607   0.60157   0.00000  Uiso   1.00
C669   C     0.14189   0.25770   0.94966   0.00000  Uiso   1.00
C670   C     0.07875   0.00947   0.80154   0.00000  Uiso   1.00
C671   C     0.14438   0.17245   0.92359   0.00000  Uiso   1.00
C672   C     0.06939   0.04595   0.83397   0.00000  Uiso   1.00
C673   C     0.02417   0.05843   0.84055   0.00000  Uiso   1.00
C674   C     0.12512   0.12804   0.91925   0.00000  Uiso   1.00
C675   C     0.15690   0.18904   0.95825   0.00000  Uiso   1.00
C676   C     0.15200   0.23141   0.97256   0.00000  Uiso   1.00
C677   C     0.17462   0.16514   0.97888   0.00000  Uiso   1.00
C678   C     0.17747   0.18041   0.51756   0.00000  Uiso   1.00
C679   C     0.16889   0.22184   0.53212   0.00000  Uiso   1.00
C680   C     0.15776   0.24721   0.50937   0.00000  Uiso   1.00
H681   H     0.15345   0.27944   0.52077   0.00000  Uiso   1.00
H682   H     0.13483   0.26460   0.89339   0.00000  Uiso   1.00
H683   H     0.17299   0.23635   0.56012   0.00000  Uiso   1.00
H684   H     0.19654   0.11795   0.92973   0.00000  Uiso   1.00
H685   H     0.05486   0.31568   0.81094   0.00000  Uiso   1.00
H686   H     0.07347   0.01676   0.77380   0.00000  Uiso   1.00
H687   H     0.07217   0.03688   0.86190   0.00000  Uiso   1.00
H688   H     0.09328   0.07337   0.82585   0.00000  Uiso   1.00
H689   H     0.02109   0.06863   0.81321   0.00000  Uiso   1.00
H690   H     0.01834   0.08470   0.86435   0.00000  Uiso   1.00
H691   H     0.33267   0.03181   0.84939   0.00000  Uiso   1.00
H692   H     0.22683   0.05818   0.52887   0.00000  Uiso   1.00
H693   H     0.09205   0.07841   0.94664   0.00000  Uiso   1.00
H694   H     0.01666   0.19341   0.71527   0.00000  Uiso   1.00
H695   H     0.31807   0.14031   0.78516   0.00000  Uiso   1.00
H696   H     0.20416   0.00174   0.71441   0.00000  Uiso   1.00
H697   H     0.17371   0.19198   0.59665   0.00000  Uiso   1.00
H698   H     0.21854   0.07629   0.59955   0.00000  Uiso   1.00
H699   H     0.21981   0.07446   0.96683   0.00000  Uiso   1.00
H700   H     0.13898   0.29036   0.95998   0.00000  Uiso   1.00
O701   O     0.16667   0.16667   0.75000   0.00000  Uiso   1.00
O702   O     0.15693   0.12393   0.66625   0.00000  Uiso   1.00
O703   O     0.12687   0.20646   0.83749   0.00000  Uiso   1.00
O704   O     0.21088   0.17493   0.65877   0.00000  Uiso   1.00
O705   O     0.17198   0.16135   0.83749   0.00000  Uiso   1.00
O706   O     0.12044   0.33097   0.79654   0.00000  Uiso   1.00
O707   O     0.12657   0.10903   0.88686   0.00000  Uiso   1.00
O708   O     0.10398   0.10827   0.95302   0.00000  Uiso   1.00
O709   O     0.17849   0.08101   0.77820   0.00000  Uiso   1.00
O710   O     0.14581   0.26136   0.76767   0.00000  Uiso   1.00
O711   O     0.07452   0.13251   0.73607   0.00000  Uiso   1.00
O712   O     0.26785   0.19179   0.71806   0.00000  Uiso   1.00
O713   O     0.06990   0.18960   0.77820   0.00000  Uiso   1.00
O714   O     0.25440   0.15277   0.76767   0.00000  Uiso   1.00
O715   O     0.13800   0.06903   0.73607   0.00000  Uiso   1.00
O716   O     0.20437   0.25527   0.71806   0.00000  Uiso   1.00
Zn717  Zn    0.19244   0.14090   0.78277   0.00000  Uiso   1.00
Zn718  Zn    0.13459   0.12378   0.72257   0.00000  Uiso   1.00
Zn719  Zn    0.21166   0.19664   0.71188   0.00000  Uiso   1.00
Zn720  Zn    0.12798   0.20535   0.78277   0.00000  Uiso   1.00
C721   C     0.38579   0.15988   0.75887   0.00000  Uiso   1.00
C722   C     0.52598   0.12799   0.96067   0.00000  Uiso   1.00
C723   C     0.54052   0.10332   0.98161   0.00000  Uiso   1.00
C724   C     0.61433   0.17356   0.74128   0.00000  Uiso   1.00
C725   C     0.53775   0.11501   0.52131   0.00000  Uiso   1.00
C726   C     0.52323   0.15394   0.53980   0.00000  Uiso   1.00
C727   C     0.54899   0.08786   0.54284   0.00000  Uiso   1.00
C728   C     0.54445   0.09811   0.58294   0.00000  Uiso   1.00
C729   C     0.51991   0.16400   0.58028   0.00000  Uiso   1.00
C730   C     0.66030   0.17624   0.73784   0.00000  Uiso   1.00
C731   C     0.34040   0.15758   0.76233   0.00000  Uiso   1.00
C732   C     0.47191   0.24280   0.91203   0.00000  Uiso   1.00
C733   C     0.51235   0.32188   0.73837   0.00000  Uiso   1.00
C734   C     0.48363   0.01250   0.76336   0.00000  Uiso   1.00
C735   C     0.48965   0.05622   0.75858   0.00000  Uiso   1.00
C736   C     0.50998   0.27767   0.74161   0.00000  Uiso   1.00
C737   C     0.52141   0.14522   0.64406   0.00000  Uiso   1.00
C738   C     0.47852   0.18752   0.85621   0.00000  Uiso   1.00
C739   C     0.47429   0.20048   0.89822   0.00000  Uiso   1.00
C740   C     0.52986   0.13607   0.60157   0.00000  Uiso   1.00
C741   C     0.47523   0.25770   0.94966   0.00000  Uiso   1.00
C742   C     0.41208   0.00947   0.80154   0.00000  Uiso   1.00
C743   C     0.47772   0.17245   0.92359   0.00000  Uiso   1.00
C744   C     0.40273   0.04595   0.83397   0.00000  Uiso   1.00
C745   C     0.35750   0.05843   0.84055   0.00000  Uiso   1.00
C746   C     0.45845   0.12804   0.91925   0.00000  Uiso   1.00
C747   C     0.49023   0.18904   0.95825   0.00000  Uiso   1.00
C748   C     0.48534   0.23141   0.97256   0.00000  Uiso   1.00
C749   C     0.50795   0.16514   0.97888   0.00000  Uiso   1.00
C750   C     0.51080   0.18041   0.51756   0.00000  Uiso   1.00
C751   C     0.50222   0.22184   0.53212   0.00000  Uiso   1.00
C752   C     0.49109   0.24721   0.50937   0.00000  Uiso   1.00
H753   H     0.48678   0.27944   0.52077   0.00000  Uiso   1.00
H754   H     0.46816   0.26460   0.89339   0.00000  Uiso   1.00
H755   H     0.50632   0.23635   0.56012   0.00000  Uiso   1.00
H756   H     0.52987   0.11795   0.92973   0.00000  Uiso   1.00
H757   H     0.38819   0.31568   0.81094   0.00000  Uiso   1.00
H758   H     0.40680   0.01676   0.77380   0.00000  Uiso   1.00
H759   H     0.40550   0.03688   0.86190   0.00000  Uiso   1.00
H760   H     0.42662   0.07337   0.82585   0.00000  Uiso   1.00
H761   H     0.35442   0.06863   0.81321   0.00000  Uiso   1.00
H762   H     0.35167   0.08470   0.86435   0.00000  Uiso   1.00
H763   H     0.66600   0.03181   0.84939   0.00000  Uiso   1.00
H764   H     0.56017   0.05818   0.52887   0.00000  Uiso   1.00
H765   H     0.42538   0.07841   0.94664   0.00000  Uiso   1.00
H766   H     0.35000   0.19341   0.71527   0.00000  Uiso   1.00
H767   H     0.65140   0.14031   0.78516   0.00000  Uiso   1.00
H768   H     0.53749   0.00174   0.71441   0.00000  Uiso   1.00
H769   H     0.50704   0.19198   0.59665   0.00000  Uiso   1.00
H770   H     0.55187   0.07629   0.59955   0.00000  Uiso   1.00
H771   H     0.55314   0.07446   0.96683   0.00000  Uiso   1.00
H772   H     0.47231   0.29036   0.95998   0.00000  Uiso   1.00
O773   O     0.50000   0.16667   0.75000   0.00000  Uiso   1.00
O774   O     0.49027   0.12393   0.66625   0.00000  Uiso   1.00
O775   O     0.46020   0.20646   0.83749   0.00000  Uiso   1.00
O776   O     0.54421   0.17493   0.65877   0.00000  Uiso   1.00
O777   O     0.50532   0.16135   0.83749   0.00000  Uiso   1.00
O778   O     0.45377   0.33097   0.79654   0.00000  Uiso   1.00
O779   O     0.45990   0.10903   0.88686   0.00000  Uiso   1.00
O780   O     0.43732   0.10827   0.95302   0.00000  Uiso   1.00
O781   O     0.51182   0.08101   0.77820   0.00000  Uiso   1.00
O782   O     0.47914   0.26136   0.76767   0.00000  Uiso   1.00
O783   O     0.40785   0.13251   0.73607   0.00000  Uiso   1.00
O784   O     0.60119   0.19179   0.71806   0.00000  Uiso   1.00
O785   O     0.40323   0.18960   0.77820   0.00000  Uiso   1.00
O786   O     0.58773   0.15277   0.76767   0.00000  Uiso   1.00
O787   O     0.47133   0.06903   0.73607   0.00000  Uiso   1.00
O788   O     0.53771   0.25527   0.71806   0.00000  Uiso   1.00
Zn789  Zn    0.52577   0.14090   0.78277   0.00000  Uiso   1.00
Zn790  Zn    0.46792   0.12378   0.72257   0.00000  Uiso   1.00
Zn791  Zn    0.54500   0.19664   0.71188   0.00000  Uiso   1.00
Zn792  Zn    0.46131   0.20535   0.78277   0.00000  Uiso   1.00
C793   C     0.71912   0.15988   0.75887   0.00000  Uiso   1.00
C794   C     0.85931   0.12799   0.96067   0.00000  Uiso   1.00
C795   C     0.87386   0.10332   0.98161   0.00000  Uiso   1.00
C796   C     0.94767   0.17356   0.74128   0.00000  Uiso   1.00
C797   C     0.87108   0.11501   0.52131   0.00000  Uiso   1.00
C798   C     0.85656   0.15394   0.53980   0.00000  Uiso   1.00
C799   C     0.88233   0.08786   0.54284   0.00000  Uiso   1.00
C800   C     0.87778   0.09811   0.58294   0.00000  Uiso   1.00
C801   C     0.85325   0.16400   0.58028   0.00000  Uiso   1.00
C802   C     0.99363   0.17624   0.73784   0.00000  Uiso   1.00
C803   C     0.67373   0.15758   0.76233   0.00000  Uiso   1.00
C804   C     0.80524   0.24280   0.91203   0.00000  Uiso   1.00
C805   C     0.84568   0.32188   0.73837   0.00000  Uiso   1.00
C806   C     0.81697   0.01250   0.76336   0.00000  Uiso   1.00
C807   C     0.82298   0.05622   0.75858   0.00000  Uiso   1.00
C808   C     0.84331   0.27767   0.74161   0.00000  Uiso   1.00
C809   C     0.85474   0.14522   0.64406   0.00000  Uiso   1.00
C810   C     0.81185   0.18752   0.85621   0.00000  Uiso   1.00
C811   C     0.80763   0.20048   0.89822   0.00000  Uiso   1.00
C812   C     0.86319   0.13607   0.60157   0.00000  Uiso   1.00
C813   C     0.80856   0.25770   0.94966   0.00000  Uiso   1.00
C814   C     0.74542   0.00947   0.80154   0.00000  Uiso   1.00
C815   C     0.81105   0.17245   0.92359   0.00000  Uiso   1.00
C816   C     0.73606   0.04595   0.83397   0.00000  Uiso   1.00
C817   C     0.69084   0.05843   0.84055   0.00000  Uiso   1.00
C818   C     0.79179   0.12804   0.91925   0.00000  Uiso   1.00
C819   C     0.82356   0.18904   0.95825   0.00000  Uiso   1.00
C820   C     0.81867   0.23141   0.97256   0.00000  Uiso   1.00
C821   C     0.84129   0.16514   0.97888   0.00000  Uiso   1.00
C822   C     0.84413   0.18041   0.51756   0.00000  Uiso   1.00
C823   C     0.83556   0.22184   0.53212   0.00000  Uiso   1.00
C824   C     0.82443   0.24721   0.50937   0.00000  Uiso   1.00
H825   H     0.82012   0.27944   0.52077   0.00000  Uiso   1.00
H826   H     0.80150   0.26460   0.89339   0.00000  Uiso   1.00
H827   H     0.83965   0.23635   0.56012   0.00000  Uiso   1.00
H828   H     0.86321   0.11795   0.92973   0.00000  Uiso   1.00
H829   H     0.72152   0.31568   0.81094   0.00000  Uiso   1.00
H830   H     0.74013   0.01676   0.77380   0.00000  Uiso   1.00
H831   H     0.73884   0.03688   0.86190   0.00000  Uiso   1.00
H832   H     0.75995   0.07337   0.82585   0.00000  Uiso   1.00
H833   H     0.68776   0.06863   0.81321   0.00000  Uiso   1.00
H834   H     0.68501   0.08470   0.86435   0.00000  Uiso   1.00
H835   H     0.99933   0.03181   0.84939   0.00000  Uiso   1.00
H836   H     0.89350   0.05818   0.52887   0.00000  Uiso   1.00
H837   H     0.75871   0.07841   0.94664   0.00000  Uiso   1.00
H838   H     0.68333   0.19341   0.71527   0.00000  Uiso   1.00
H839   H     0.98474   0.14031   0.78516   0.00000  Uiso   1.00
H840   H     0.87083   0.00174   0.71441   0.00000  Uiso   1.00
H841   H     0.84037   0.19198   0.59665   0.00000  Uiso   1.00
H842   H     0.88521   0.07629   0.59955   0.00000  Uiso   1.00
H843   H     0.88647   0.07446   0.96683   0.00000  Uiso   1.00
H844   H     0.80565   0.29036   0.95998   0.00000  Uiso   1.00
O845   O     0.83333   0.16667   0.75000   0.00000  Uiso   1.00
O846   O     0.82360   0.12393   0.66625   0.00000  Uiso   1.00
O847   O     0.79354   0.20646   0.83749   0.00000  Uiso   1.00
O848   O     0.87755   0.17493   0.65877   0.00000  Uiso   1.00
O849   O     0.83865   0.16135   0.83749   0.00000  Uiso   1.00
O850   O     0.78711   0.33097   0.79654   0.00000  Uiso   1.00
O851   O     0.79324   0.10903   0.88686   0.00000  Uiso   1.00
O852   O     0.77065   0.10827   0.95302   0.00000  Uiso   1.00
O853   O     0.84515   0.08101   0.77820   0.00000  Uiso   1.00
O854   O     0.81247   0.26136   0.76767   0.00000  Uiso   1.00
O855   O     0.74119   0.13251   0.73607   0.00000  Uiso   1.00
O856   O     0.93452   0.19179   0.71806   0.00000  Uiso   1.00
O857   O     0.73656   0.18960   0.77820   0.00000  Uiso   1.00
O858   O     0.92106   0.15277   0.76767   0.00000  Uiso   1.00
O859   O     0.80467   0.06903   0.73607   0.00000  Uiso   1.00
O860   O     0.87104   0.25527   0.71806   0.00000  Uiso   1.00
Zn861  Zn    0.85910   0.14090   0.78277   0.00000  Uiso   1.00
Zn862  Zn    0.80125   0.12378   0.72257   0.00000  Uiso   1.00
Zn863  Zn    0.87833   0.19664   0.71188   0.00000  Uiso   1.00
Zn864  Zn    0.79465   0.20535   0.78277   0.00000  Uiso   1.00
C865   C     0.05245   0.49321   0.75887   0.00000  Uiso   1.00
C866   C     0.19264   0.46132   0.96067   0.00000  Uiso   1.00
C867   C     0.20719   0.43666   0.98161   0.00000  Uiso   1.00
C868   C     0.28100   0.50690   0.74128   0.00000  Uiso   1.00
C869   C     0.20442   0.44835   0.52131   0.00000  Uiso   1.00
C870   C     0.18989   0.48727   0.53980   0.00000  Uiso   1.00
C871   C     0.21566   0.42119   0.54284   0.00000  Uiso   1.00
C872   C     0.21112   0.43144   0.58294   0.00000  Uiso   1.00
C873   C     0.18658   0.49733   0.58028   0.00000  Uiso   1.00
C874   C     0.32697   0.50957   0.73784   0.00000  Uiso   1.00
C875   C     0.00706   0.49092   0.76233   0.00000  Uiso   1.00
C876   C     0.13857   0.57614   0.91203   0.00000  Uiso   1.00
C877   C     0.17901   0.65522   0.73837   0.00000  Uiso   1.00
C878   C     0.15030   0.34584   0.76336   0.00000  Uiso   1.00
C879   C     0.15631   0.38956   0.75858   0.00000  Uiso   1.00
C880   C     0.17664   0.61100   0.74161   0.00000  Uiso   1.00
C881   C     0.18808   0.47855   0.64406   0.00000  Uiso   1.00
C882   C     0.14518   0.52086   0.85621   0.00000  Uiso   1.00
C883   C     0.14096   0.53381   0.89822   0.00000  Uiso   1.00
C884   C     0.19653   0.46940   0.60157   0.00000  Uiso   1.00
C885   C     0.14189   0.59103   0.94966   0.00000  Uiso   1.00
C886   C     0.07875   0.34281   0.80154   0.00000  Uiso   1.00
C887   C     0.14438   0.50579   0.92359   0.00000  Uiso   1.00
C888   C     0.06939   0.37928   0.83397   0.00000  Uiso   1.00
C889   C     0.02417   0.39176   0.84055   0.00000  Uiso   1.00
C890   C     0.12512   0.46138   0.91925   0.00000  Uiso   1.00
C891   C     0.15690   0.52238   0.95825   0.00000  Uiso   1.00
C892   C     0.15200   0.56474   0.97256   0.00000  Uiso   1.00
C893   C     0.17462   0.49847   0.97888   0.00000  Uiso   1.00
C894   C     0.17747   0.51374   0.51756   0.00000  Uiso   1.00
C895   C     0.16889   0.55518   0.53212   0.00000  Uiso   1.00
C896   C     0.15776   0.58055   0.50937   0.00000  Uiso   1.00
H897   H     0.15345   0.61277   0.52077   0.00000  Uiso   1.00
H898   H     0.13483   0.59794   0.89339   0.00000  Uiso   1.00
H899   H     0.17299   0.56969   0.56012   0.00000  Uiso   1.00
H900   H     0.19654   0.45129   0.92973   0.00000  Uiso   1.00
H901   H     0.05486   0.64902   0.81094   0.00000  Uiso   1.00
H902   H     0.07347   0.35009   0.77380   0.00000  Uiso   1.00
H903   H     0.07217   0.37022   0.86190   0.00000  Uiso   1.00
H904   H     0.09328   0.40670   0.82585   0.00000  Uiso   1.00
H905   H     0.02109   0.40196   0.81321   0.00000  Uiso   1.00
H906   H     0.01834   0.41803   0.86435   0.00000  Uiso   1.00
H907   H     0.33267   0.36514   0.84939   0.00000  Uiso   1.00
H908   H     0.22683   0.39151   0.52887   0.00000  Uiso   1.00
H909   H     0.09205   0.41174   0.94664   0.00000  Uiso   1.00
H910   H     0.01666   0.52675   0.71527   0.00000  Uiso   1.00
H911   H     0.31807   0.47364   0.78516   0.00000  Uiso   1.00
H912   H     0.20416   0.33508   0.71441   0.00000  Uiso   1.00
H913   H     0.17371   0.52531   0.59665   0.00000  Uiso   1.00
H914   H     0.21854   0.40962   0.59955   0.00000  Uiso   1.00
H915   H     0.21981   0.40779   0.96683   0.00000  Uiso   1.00
H916   H     0.13898   0.62369   0.95998   0.00000  Uiso   1.00
O917   O     0.16667   0.50000   0.75000   0.00000  Uiso   1.00
O918   O     0.15693   0.45726   0.66625   0.00000  Uiso   1.00
O919   O     0.12687   0.53979   0.83749   0.00000  Uiso   1.00
O920   O     0.21088   0.50826   0.65877   0.00000  Uiso   1.00
O921   O     0.17198   0.49468   0.83749   0.00000  Uiso   1.00
O922   O     0.12044   0.66431   0.79654   0.00000  Uiso   1.00
O923   O     0.12657   0.44237   0.88686   0.00000  Uiso   1.00
O924   O     0.10398   0.44160   0.95302   0.00000  Uiso   1.00
O925   O     0.17849   0.41434   0.77820   0.00000  Uiso   1.00
O926   O     0.14581   0.59469   0.76767   0.00000  Uiso   1.00
O927   O     0.07452   0.46584   0.73607   0.00000  Uiso   1.00
O928   O     0.26785   0.52512   0.71806   0.00000  Uiso   1.00
O929   O     0.06990   0.52293   0.77820   0.00000  Uiso   1.00
O930   O     0.25440   0.48610   0.76767   0.00000  Uiso   1.00
O931   O     0.13800   0.40236   0.73607   0.00000  Uiso   1.00
O932   O     0.20437   0.58860   0.71806   0.00000  Uiso   1.00
Zn933  Zn    0.19244   0.47423   0.78277   0.00000  Uiso   1.00
Zn934  Zn    0.13459   0.45711   0.72257   0.00000  Uiso   1.00
Zn935  Zn    0.21166   0.52997   0.71188   0.00000  Uiso   1.00
Zn936  Zn    0.12798   0.53868   0.78277   0.00000  Uiso   1.00
C937   C     0.38579   0.49321   0.75887   0.00000  Uiso   1.00
C938   C     0.52598   0.46132   0.96067   0.00000  Uiso   1.00
C939   C     0.54052   0.43666   0.98161   0.00000  Uiso   1.00
C940   C     0.61433   0.50690   0.74128   0.00000  Uiso   1.00
C941   C     0.53775   0.44835   0.52131   0.00000  Uiso   1.00
C942   C     0.52323   0.48727   0.53980   0.00000  Uiso   1.00
C943   C     0.54899   0.42119   0.54284   0.00000  Uiso   1.00
C944   C     0.54445   0.43144   0.58294   0.00000  Uiso   1.00
C945   C     0.51991   0.49733   0.58028   0.00000  Uiso   1.00
C946   C     0.66030   0.50957   0.73784   0.00000  Uiso   1.00
C947   C     0.34040   0.49092   0.76233   0.00000  Uiso   1.00
C948   C     0.47191   0.57614   0.91203   0.00000  Uiso   1.00
C949   C     0.51235   0.65522   0.73837   0.00000  Uiso   1.00
C950   C     0.48363   0.34584   0.76336   0.00000  Uiso   1.00
C951   C     0.48965   0.38956   0.75858   0.00000  Uiso   1.00
C952   C     0.50998   0.61100   0.74161   0.00000  Uiso   1.00
C953   C     0.52141   0.47855   0.64406   0.00000  Uiso   1.00
C954   C     0.47852   0.52086   0.85621   0.00000  Uiso   1.00
C955   C     0.47429   0.53381   0.89822   0.00000  Uiso   1.00
C956   C     0.52986   0.46940   0.60157   0.00000  Uiso   1.00
C957   C     0.47523   0.59103   0.94966   0.00000  Uiso   1.00
C958   C     0.41208   0.34281   0.80154   0.00000  Uiso   1.00
C959   C     0.47772   0.50579   0.92359   0.00000  Uiso   1.00
C960   C     0.40273   0.37928   0.83397   0.00000  Uiso   1.00
C961   C     0.35750   0.39176   0.84055   0.00000  Uiso   1.00
C962   C     0.45845   0.46138   0.91925   0.00000  Uiso   1.00
C963   C     0.49023   0.52238   0.95825   0.00000  Uiso   1.00
C964   C     0.48534   0.56474   0.97256   0.00000  Uiso   1.00
C965   C     0.50795   0.49847   0.97888   0.00000  Uiso   1.00
C966   C     0.51080   0.51374   0.51756   0.00000  Uiso   1.00
C967   C     0.50222   0.55518   0.53212   0.00000  Uiso   1.00
C968   C     0.49109   0.58055   0.50937   0.00000  Uiso   1.00
H969   H     0.48678   0.61277   0.52077   0.00000  Uiso   1.00
H970   H     0.46816   0.59794   0.89339   0.00000  Uiso   1.00
H971   H     0.50632   0.56969   0.56012   0.00000  Uiso   1.00
H972   H     0.52987   0.45129   0.92973   0.00000  Uiso   1.00
H973   H     0.38819   0.64902   0.81094   0.00000  Uiso   1.00
H974   H     0.40680   0.35009   0.77380   0.00000  Uiso   1.00
H975   H     0.40550   0.37022   0.86190   0.00000  Uiso   1.00
H976   H     0.42662   0.40670   0.82585   0.00000  Uiso   1.00
H977   H     0.35442   0.40196   0.81321   0.00000  Uiso   1.00
H978   H     0.35167   0.41803   0.86435   0.00000  Uiso   1.00
H979   H     0.66600   0.36514   0.84939   0.00000  Uiso   1.00
H980   H     0.56017   0.39151   0.52887   0.00000  Uiso   1.00
H981   H     0.42538   0.41174   0.94664   0.00000  Uiso   1.00
H982   H     0.35000   0.52675   0.71527   0.00000  Uiso   1.00
H983   H     0.65140   0.47364   0.78516   0.00000  Uiso   1.00
H984   H     0.53749   0.33508   0.71441   0.00000  Uiso   1.00
H985   H     0.50704   0.52531   0.59665   0.00000  Uiso   1.00
H986   H     0.55187   0.40962   0.59955   0.00000  Uiso   1.00
H987   H     0.55314   0.40779   0.96683   0.00000  Uiso   1.00
H988   H     0.47231   0.62369   0.95998   0.00000  Uiso   1.00
O989   O     0.50000   0.50000   0.75000   0.00000  Uiso   1.00
O990   O     0.49027   0.45726   0.66625   0.00000  Uiso   1.00
O991   O     0.46020   0.53979   0.83749   0.00000  Uiso   1.00
O992   O     0.54421   0.50826   0.65877   0.00000  Uiso   1.00
O993   O     0.50532   0.49468   0.83749   0.00000  Uiso   1.00
O994   O     0.45377   0.66431   0.79654   0.00000  Uiso   1.00
O995   O     0.45990   0.44237   0.88686   0.00000  Uiso   1.00
O996   O     0.43732   0.44160   0.95302   0.00000  Uiso   1.00
O997   O     0.51182   0.41434   0.77820   0.00000  Uiso   1.00
O998   O     0.47914   0.59469   0.76767   0.00000  Uiso   1.00
O999   O     0.40785   0.46584   0.73607   0.00000  Uiso   1.00
O1000  O     0.60119   0.52512   0.71806   0.00000  Uiso   1.00
O1001  O     0.40323   0.52293   0.77820   0.00000  Uiso   1.00
O1002  O     0.58773   0.48610   0.76767   0.00000  Uiso   1.00
O1003  O     0.47133   0.40236   0.73607   0.00000  Uiso   1.00
O1004  O     0.53771   0.58860   0.71806   0.00000  Uiso   1.00
Zn1005 Zn    0.52577   0.47423   0.78277   0.00000  Uiso   1.00
Zn1006 Zn    0.46792   0.45711   0.72257   0.00000  Uiso   1.00
Zn1007 Zn    0.54500   0.52997   0.71188   0.00000  Uiso   1.00
Zn1008 Zn    0.46131   0.53868   0.78277   0.00000  Uiso   1.00
C1009  C     0.71912   0.49321   0.75887   0.00000  Uiso   1.00
C1010  C     0.85931   0.46132   0.96067   0.00000  Uiso   1.00
C1011  C     0.87386   0.43666   0.98161   0.00000  Uiso   1.00
C1012  C     0.94767   0.50690   0.74128   0.00000  Uiso   1.00
C1013  C     0.87108   0.44835   0.52131   0.00000  Uiso   1.00
C1014  C     0.85656   0.48727   0.53980   0.00000  Uiso   1.00
C1015  C     0.88233   0.42119   0.54284   0.00000  Uiso   1.00
C1016  C     0.87778   0.43144   0.58294   0.00000  Uiso   1.00
C1017  C     0.85325   0.49733   0.58028   0.00000  Uiso   1.00
C1018  C     0.99363   0.50957   0.73784   0.00000  Uiso   1.00
C1019  C     0.67373   0.49092   0.76233   0.00000  Uiso   1.00
C1020  C     0.80524   0.57614   0.91203   0.00000  Uiso   1.00
C1021  C     0.84568   0.65522   0.73837   0.00000  Uiso   1.00
C1022  C     0.81697   0.34584   0.76336   0.00000  Uiso   1.00
C1023  C     0.82298   0.38956   0.75858   0.00000  Uiso   1.00
C1024  C     0.84331   0.61100   0.74161   0.00000  Uiso   1.00
C1025  C     0.85474   0.47855   0.64406   0.00000  Uiso   1.00
C1026  C     0.81185   0.52086   0.85621   0.00000  Uiso   1.00
C1027  C     0.80763   0.53381   0.89822   0.00000  Uiso   1.00
C1028  C     0.86319   0.46940   0.60157   0.00000  Uiso   1.00
C1029  C     0.80856   0.59103   0.94966   0.00000  Uiso   1.00
C1030  C     0.74542   0.34281   0.80154   0.00000  Uiso   1.00
C1031  C     0.81105   0.50579   0.92359   0.00000  Uiso   1.00
C1032  C     0.73606   0.37928   0.83397   0.00000  Uiso   1.00
C1033  C     0.69084   0.39176   0.84055   0.00000  Uiso   1.00
C1034  C     0.79179   0.46138   0.91925   0.00000  Uiso   1.00
C1035  C     0.82356   0.52238   0.95825   0.00000  Uiso   1.00
C1036  C     0.81867   0.56474   0.97256   0.00000  Uiso   1.00
C1037  C     0.84129   0.49847   0.97888   0.00000  Uiso   1.00
C1038  C     0.84413   0.51374   0.51756   0.00000  Uiso   1.00
C1039  C     0.83556   0.55518   0.53212   0.00000  Uiso   1.00
C1040  C     0.82443   0.58055   0.50937   0.00000  Uiso   1.00
H1041  H     0.82012   0.61277   0.52077   0.00000  Uiso   1.00
H1042  H     0.80150   0.59794   0.89339   0.00000  Uiso   1.00
H1043  H     0.83965   0.56969   0.56012   0.00000  Uiso   1.00
H1044  H     0.86321   0.45129   0.92973   0.00000  Uiso   1.00
H1045  H     0.72152   0.64902   0.81094   0.00000  Uiso   1.00
H1046  H     0.74013   0.35009   0.77380   0.00000  Uiso   1.00
H1047  H     0.73884   0.37022   0.86190   0.00000  Uiso   1.00
H1048  H     0.75995   0.40670   0.82585   0.00000  Uiso   1.00
H1049  H     0.68776   0.40196   0.81321   0.00000  Uiso   1.00
H1050  H     0.68501   0.41803   0.86435   0.00000  Uiso   1.00
H1051  H     0.99933   0.36514   0.84939   0.00000  Uiso   1.00
H1052  H     0.89350   0.39151   0.52887   0.00000  Uiso   1.00
H1053  H     0.75871   0.41174   0.94664   0.00000  Uiso   1.00
H1054  H     0.68333   0.52675   0.71527   0.00000  Uiso   1.00
H1055  H     0.98474   0.47364   0.78516   0.00000  Uiso   1.00
H1056  H     0.87083   0.33508   0.71441   0.00000  Uiso   1.00
H1057  H     0.84037   0.52531   0.59665   0.00000  Uiso   1.00
H1058  H     0.88521   0.40962   0.59955   0.00000  Uiso   1.00
H1059  H     0.88647   0.40779   0.96683   0.00000  Uiso   1.00
H1060  H     0.80565   0.62369   0.95998   0.00000  Uiso   1.00
O1061  O     0.83333   0.50000   0.75000   0.00000  Uiso   1.00
O1062  O     0.82360   0.45726   0.66625   0.00000  Uiso   1.00
O1063  O     0.79354   0.53979   0.83749   0.00000  Uiso   1.00
O1064  O     0.87755   0.50826   0.65877   0.00000  Uiso   1.00
O1065  O     0.83865   0.49468   0.83749   0.00000  Uiso   1.00
O1066  O     0.78711   0.66431   0.79654   0.00000  Uiso   1.00
O1067  O     0.79324   0.44237   0.88686   0.00000  Uiso   1.00
O1068  O     0.77065   0.44160   0.95302   0.00000  Uiso   1.00
O1069  O     0.84515   0.41434   0.77820   0.00000  Uiso   1.00
O1070  O     0.81247   0.59469   0.76767   0.00000  Uiso   1.00
O1071  O     0.74119   0.46584   0.73607   0.00000  Uiso   1.00
O1072  O     0.93452   0.52512   0.71806   0.00000  Uiso   1.00
O1073  O     0.73656   0.52293   0.77820   0.00000  Uiso   1.00
O1074  O     0.92106   0.48610   0.76767   0.00000  Uiso   1.00
O1075  O     0.80467   0.40236   0.73607   0.00000  Uiso   1.00
O1076  O     0.87104   0.58860   0.71806   0.00000  Uiso   1.00
Zn1077 Zn    0.85910   0.47423   0.78277   0.00000  Uiso   1.00
Zn1078 Zn    0.80125   0.45711   0.72257   0.00000  Uiso   1.00
Zn1079 Zn    0.87833   0.52997   0.71188   0.00000  Uiso   1.00
Zn1080 Zn    0.79465   0.53868   0.78277   0.00000  Uiso   1.00
C1081  C     0.05245   0.82655   0.75887   0.00000  Uiso   1.00
C1082  C     0.19264   0.79465   0.96067   0.00000  Uiso   1.00
C1083  C     0.20719   0.76999   0.98161   0.00000  Uiso   1.00
C1084  C     0.28100   0.84023   0.74128   0.00000  Uiso   1.00
C1085  C     0.20442   0.78168   0.52131   0.00000  Uiso   1.00
C1086  C     0.18989   0.82061   0.53980   0.00000  Uiso   1.00
C1087  C     0.21566   0.75453   0.54284   0.00000  Uiso   1.00
C1088  C     0.21112   0.76478   0.58294   0.00000  Uiso   1.00
C1089  C     0.18658   0.83066   0.58028   0.00000  Uiso   1.00
C1090  C     0.32697   0.84291   0.73784   0.00000  Uiso   1.00
C1091  C     0.00706   0.82425   0.76233   0.00000  Uiso   1.00
C1092  C     0.13857   0.90947   0.91203   0.00000  Uiso   1.00
C1093  C     0.17901   0.98855   0.73837   0.00000  Uiso   1.00
C1094  C     0.15030   0.67917   0.76336   0.00000  Uiso   1.00
C1095  C     0.15631   0.72289   0.75858   0.00000  Uiso   1.00
C1096  C     0.17664   0.94433   0.74161   0.00000  Uiso   1.00
C1097  C     0.18808   0.81189   0.64406   0.00000  Uiso   1.00
C1098  C     0.14518   0.85419   0.85621   0.00000  Uiso   1.00
C1099  C     0.14096   0.86715   0.89822   0.00000  Uiso   1.00
C1100  C     0.19653   0.80273   0.60157   0.00000  Uiso   1.00
C1101  C     0.14189   0.92437   0.94966   0.00000  Uiso   1.00
C1102  C     0.07875   0.67614   0.80154   0.00000  Uiso   1.00
C1103  C     0.14438   0.83912   0.92359   0.00000  Uiso   1.00
C1104  C     0.06939   0.71262   0.83397   0.00000  Uiso   1.00
C1105  C     0.02417   0.72510   0.84055   0.00000  Uiso   1.00
C1106  C     0.12512   0.79471   0.91925   0.00000  Uiso   1.00
C1107  C     0.15690   0.85571   0.95825   0.00000  Uiso   1.00
C1108  C     0.15200   0.89807   0.97256   0.00000  Uiso   1.00
C1109  C     0.17462   0.83181   0.97888   0.00000  Uiso   1.00
C1110  C     0.17747   0.84707   0.51756   0.00000  Uiso   1.00
C1111  C     0.16889   0.88851   0.53212   0.00000  Uiso   1.00
C1112  C     0.15776   0.91388   0.50937   0.00000  Uiso   1.00
H1113  H     0.15345   0.94610   0.52077   0.00000  Uiso   1.00
H1114  H     0.13483   0.93127   0.89339   0.00000  Uiso   1.00
H1115  H     0.17299   0.90302   0.56012   0.00000  Uiso   1.00
H1116  H     0.19654   0.78462   0.92973   0.00000  Uiso   1.00
H1117  H     0.05486   0.98235   0.81094   0.00000  Uiso   1.00
H1118  H     0.07347   0.68343   0.77380   0.00000  Uiso   1.00
H1119  H     0.07217   0.70355   0.86190   0.00000  Uiso   1.00
H1120  H     0.09328   0.74004   0.82585   0.00000  Uiso   1.00
H1121  H     0.02109   0.73529   0.81321   0.00000  Uiso   1.00
H1122  H     0.01834   0.75136   0.86435   0.00000  Uiso   1.00
H1123  H     0.33267   0.69848   0.84939   0.00000  Uiso   1.00
H1124  H     0.22683   0.72485   0.52887   0.00000  Uiso   1.00
H1125  H     0.09205   0.74508   0.94664   0.00000  Uiso   1.00
H1126  H     0.01666   0.86008   0.71527   0.00000  Uiso   1.00
H1127  H     0.31807   0.80698   0.78516   0.00000  Uiso   1.00
H1128  H     0.20416   0.66841   0.71441   0.00000  Uiso   1.00
H1129  H     0.17371   0.85865   0.59665   0.00000  Uiso   1.00
H1130  H     0.21854   0.74295   0.59955   0.00000  Uiso   1.00
H1131  H     0.21981   0.74113   0.96683   0.00000  Uiso   1.00
H1132  H     0.13898   0.95703   0.95998   0.00000  Uiso   1.00
O1133  O     0.16667   0.83333   0.75000   0.00000  Uiso   1.00
O1134  O     0.15693   0.79060   0.66625   0.00000  Uiso   1.00
O1135  O     0.12687   0.87313   0.83749   0.00000  Uiso   1.00
O1136  O     0.21088   0.84159   0.65877   0.00000  Uiso   1.00
O1137  O     0.17198   0.82802   0.83749   0.00000  Uiso   1.00
O1138  O     0.12044   0.99764   0.79654   0.00000  Uiso   1.00
O1139  O     0.12657   0.77570   0.88686   0.00000  Uiso   1.00
O1140  O     0.10398   0.77493   0.95302   0.00000  Uiso   1.00
O1141  O     0.17849   0.74768   0.77820   0.00000  Uiso   1.00
O1142  O     0.14581   0.92803   0.76767   0.00000  Uiso   1.00
O1143  O     0.07452   0.79917   0.73607   0.00000  Uiso   1.00
O1144  O     0.26785   0.85845   0.71806   0.00000  Uiso   1.00
O1145  O     0.06990   0.85627   0.77820   0.00000  Uiso   1.00
O1146  O     0.25440   0.81944   0.76767   0.00000  Uiso   1.00
O1147  O     0.13800   0.73570   0.73607   0.00000  Uiso   1.00
O1148  O     0.20437   0.92193   0.71806   0.00000  Uiso   1.00
Zn1149 Zn    0.19244   0.80756   0.78277   0.00000  Uiso   1.00
Zn1150 Zn    0.13459   0.79044   0.72257   0.00000  Uiso   1.00
Zn1151 Zn    0.21166   0.86331   0.71188   0.00000  Uiso   1.00
Zn1152 Zn    0.12798   0.87202   0.78277   0.00000  Uiso   1.00
C1153  C     0.38579   0.82655   0.75887   0.00000  Uiso   1.00
C1154  C     0.52598   0.79465   0.96067   0.00000  Uiso   1.00
C1155  C     0.54052   0.76999   0.98161   0.00000  Uiso   1.00
C1156  C     0.61433   0.84023   0.74128   0.00000  Uiso   1.00
C1157  C     0.53775   0.78168   0.52131   0.00000  Uiso   1.00
C1158  C     0.52323   0.82061   0.53980   0.00000  Uiso   1.00
C1159  C     0.54899   0.75453   0.54284   0.00000  Uiso   1.00
C1160  C     0.54445   0.76478   0.58294   0.00000  Uiso   1.00
C1161  C     0.51991   0.83066   0.58028   0.00000  Uiso   1.00
C1162  C     0.66030   0.84291   0.73784   0.00000  Uiso   1.00
C1163  C     0.34040   0.82425   0.76233   0.00000  Uiso   1.00
C1164  C     0.47191   0.90947   0.91203   0.00000  Uiso   1.00
C1165  C     0.51235   0.98855   0.73837   0.00000  Uiso   1.00
C1166  C     0.48363   0.67917   0.76336   0.00000  Uiso   1.00
C1167  C     0.48965   0.72289   0.75858   0.00000  Uiso   1.00
C1168  C     0.50998   0.94433   0.74161   0.00000  Uiso   1.00
C1169  C     0.52141   0.81189   0.64406   0.00000  Uiso   1.00
C1170  C     0.47852   0.85419   0.85621   0.00000  Uiso   1.00
C1171  C     0.47429   0.86715   0.89822   0.00000  Uiso   1.00
C1172  C     0.52986   0.80273   0.60157   0.00000  Uiso   1.00
C1173  C     0.47523   0.92437   0.94966   0.00000  Uiso   1.00
C1174  C     0.41208   0.67614   0.80154   0.00000  Uiso   1.00
C1175  C     0.47772   0.83912   0.92359   0.00000  Uiso   1.00
C1176  C     0.40273   0.71262   0.83397   0.00000  Uiso   1.00
C1177  C     0.35750   0.72510   0.84055   0.00000  Uiso   1.00
C1178  C     0.45845   0.79471   0.91925   0.00000  Uiso   1.00
C1179  C     0.49023   0.85571   0.95825   0.00000  Uiso   1.00
C1180  C     0.48534   0.89807   0.97256   0.00000  Uiso   1.00
C1181  C     0.50795   0.83181   0.97888   0.00000  Uiso   1.00
C1182  C     0.51080   0.84707   0.51756   0.00000  Uiso   1.00
C1183  C     0.50222   0.88851   0.53212   0.00000  Uiso   1.00
C1184  C     0.49109   0.91388   0.50937   0.00000  Uiso   1.00
H1185  H     0.48678   0.94610   0.52077   0.00000  Uiso   1.00
H1186  H     0.46816   0.93127   0.89339   0.00000  Uiso   1.00
H1187  H     0.50632   0.90302   0.56012   0.00000  Uiso   1.00
H1188  H     0.52987   0.78462   0.92973   0.00000  Uiso   1.00
H1189  H     0.38819   0.98235   0.81094   0.00000  Uiso   1.00
H1190  H     0.40680   0.68343   0.77380   0.00000  Uiso   1.00
H1191  H     0.40550   0.70355   0.86190   0.00000  Uiso   1.00
H1192  H     0.42662   0.74004   0.82585   0.00000  Uiso   1.00
H1193  H     0.35442   0.73529   0.81321   0.00000  Uiso   1.00
H1194  H     0.35167   0.75136   0.86435   0.00000  Uiso   1.00
H1195  H     0.66600   0.69848   0.84939   0.00000  Uiso   1.00
H1196  H     0.56017   0.72485   0.52887   0.00000  Uiso   1.00
H1197  H     0.42538   0.74508   0.94664   0.00000  Uiso   1.00
H1198  H     0.35000   0.86008   0.71527   0.00000  Uiso   1.00
H1199  H     0.65140   0.80698   0.78516   0.00000  Uiso   1.00
H1200  H     0.53749   0.66841   0.71441   0.00000  Uiso   1.00
H1201  H     0.50704   0.85865   0.59665   0.00000  Uiso   1.00
H1202  H     0.55187   0.74295   0.59955   0.00000  Uiso   1.00
H1203  H     0.55314   0.74113   0.96683   0.00000  Uiso   1.00
H1204  H     0.47231   0.95703   0.95998   0.00000  Uiso   1.00
O1205  O     0.50000   0.83333   0.75000   0.00000  Uiso   1.00
O1206  O     0.49027   0.79060   0.66625   0.00000  Uiso   1.00
O1207  O     0.46020   0.87313   0.83749   0.00000  Uiso   1.00
O1208  O     0.54421   0.84159   0.65877   0.00000  Uiso   1.00
O1209  O     0.50532   0.82802   0.83749   0.00000  Uiso   1.00
O1210  O     0.45377   0.99764   0.79654   0.00000  Uiso   1.00
O1211  O     0.45990   0.77570   0.88686   0.00000  Uiso   1.00
O1212  O     0.43732   0.77493   0.95302   0.00000  Uiso   1.00
O1213  O     0.51182   0.74768   0.77820   0.00000  Uiso   1.00
O1214  O     0.47914   0.92803   0.76767   0.00000  Uiso   1.00
O1215  O     0.40785   0.79917   0.73607   0.00000  Uiso   1.00
O1216  O     0.60119   0.85845   0.71806   0.00000  Uiso   1.00
O1217  O     0.40323   0.85627   0.77820   0.00000  Uiso   1.00
O1218  O     0.58773   0.81944   0.76767   0.00000  Uiso   1.00
O1219  O     0.47133   0.73570   0.73607   0.00000  Uiso   1.00
O1220  O     0.53771   0.92193   0.71806   0.00000  Uiso   1.00
Zn1221 Zn    0.52577   0.80756   0.78277   0.00000  Uiso   1.00
Zn1222 Zn    0.46792   0.79044   0.72257   0.00000  Uiso   1.00
Zn1223 Zn    0.54500   0.86331   0.71188   0.00000  Uiso   1.00
Zn1224 Zn    0.46131   0.87202   0.78277   0.00000  Uiso   1.00
C1225  C     0.71912   0.82655   0.75887   0.00000  Uiso   1.00
C1226  C     0.85931   0.79465   0.96067   0.00000  Uiso   1.00
C1227  C     0.87386   0.76999   0.98161   0.00000  Uiso   1.00
C1228  C     0.94767   0.84023   0.74128   0.00000  Uiso   1.00
C1229  C     0.87108   0.78168   0.52131   0.00000  Uiso   1.00
C1230  C     0.85656   0.82061   0.53980   0.00000  Uiso   1.00
C1231  C     0.88233   0.75453   0.54284   0.00000  Uiso   1.00
C1232  C     0.87778   0.76478   0.58294   0.00000  Uiso   1.00
C1233  C     0.85325   0.83066   0.58028   0.00000  Uiso   1.00
C1234  C     0.99363   0.84291   0.73784   0.00000  Uiso   1.00
C1235  C     0.67373   0.82425   0.76233   0.00000  Uiso   1.00
C1236  C     0.80524   0.90947   0.91203   0.00000  Uiso   1.00
C1237  C     0.84568   0.98855   0.73837   0.00000  Uiso   1.00
C1238  C     0.81697   0.67917   0.76336   0.00000  Uiso   1.00
C1239  C     0.82298   0.72289   0.75858   0.00000  Uiso   1.00
C1240  C     0.84331   0.94433   0.74161   0.00000  Uiso   1.00
C1241  C     0.85474   0.81189   0.64406   0.00000  Uiso   1.00
C1242  C     0.81185   0.85419   0.85621   0.00000  Uiso   1.00
C1243  C     0.80763   0.86715   0.89822   0.00000  Uiso   1.00
C1244  C     0.86319   0.80273   0.60157   0.00000  Uiso   1.00
C1245  C     0.80856   0.92437   0.94966   0.00000  Uiso   1.00
C1246  C     0.74542   0.67614   0.80154   0.00000  Uiso   1.00
C1247  C     0.81105   0.83912   0.92359   0.00000  Uiso   1.00
C1248  C     0.73606   0.71262   0.83397   0.00000  Uiso   1.00
C1249  C     0.69084   0.72510   0.84055   0.00000  Uiso   1.00
C1250  C     0.79179   0.79471   0.91925   0.00000  Uiso   1.00
C1251  C     0.82356   0.85571   0.95825   0.00000  Uiso   1.00
C1252  C     0.81867   0.89807   0.97256   0.00000  Uiso   1.00
C1253  C     0.84129   0.83181   0.97888   0.00000  Uiso   1.00
C1254  C     0.84413   0.84707   0.51756   0.00000  Uiso   1.00
C1255  C     0.83556   0.88851   0.53212   0.00000  Uiso   1.00
C1256  C     0.82443   0.91388   0.50937   0.00000  Uiso   1.00
H1257  H     0.82012   0.94610   0.52077   0.00000  Uiso   1.00
H1258  H     0.80150   0.93127   0.89339   0.00000  Uiso   1.00
H1259  H     0.83965   0.90302   0.56012   0.00000  Uiso   1.00
H1260  H     0.86321   0.78462   0.92973   0.00000  Uiso   1.00
H1261  H     0.72152   0.98235   0.81094   0.00000  Uiso   1.00
H1262  H     0.74013   0.68343   0.77380   0.00000  Uiso   1.00
H1263  H     0.73884   0.70355   0.86190   0.00000  Uiso   1.00
H1264  H     0.75995   0.74004   0.82585   0.00000  Uiso   1.00
H1265  H     0.68776   0.73529   0.81321   0.00000  Uiso   1.00
H1266  H     0.68501   0.75136   0.86435   0.00000  Uiso   1.00
H1267  H     0.99933   0.69848   0.84939   0.00000  Uiso   1.00
H1268  H     0.89350   0.72485   0.52887   0.00000  Uiso   1.00
H1269  H     0.75871   0.74508   0.94664   0.00000  Uiso   1.00
H1270  H     0.68333   0.86008   0.71527   0.00000  Uiso   1.00
H1271  H     0.98474   0.80698   0.78516   0.00000  Uiso   1.00
H1272  H     0.87083   0.66841   0.71441   0.00000  Uiso   1.00
H1273  H     0.84037   0.85865   0.59665   0.00000  Uiso   1.00
H1274  H     0.88521   0.74295   0.59955   0.00000  Uiso   1.00
H1275  H     0.88647   0.74113   0.96683   0.00000  Uiso   1.00
H1276  H     0.80565   0.95703   0.95998   0.00000  Uiso   1.00
O1277  O     0.83333   0.83333   0.75000   0.00000  Uiso   1.00
O1278  O     0.82360   0.79060   0.66625   0.00000  Uiso   1.00
O1279  O     0.79354   0.87313   0.83749   0.00000  Uiso   1.00
O1280  O     0.87755   0.84159   0.65877   0.00000  Uiso   1.00
O1281  O     0.83865   0.82802   0.83749   0.00000  Uiso   1.00
O1282  O     0.78711   0.99764   0.79654   0.00000  Uiso   1.00
O1283  O     0.79324   0.77570   0.88686   0.00000  Uiso   1.00
O1284  O     0.77065   0.77493   0.95302   0.00000  Uiso   1.00
O1285  O     0.84515   0.74768   0.77820   0.00000  Uiso   1.00
O1286  O     0.81247   0.92803   0.76767   0.00000  Uiso   1.00
O1287  O     0.74119   0.79917   0.73607   0.00000  Uiso   1.00
O1288  O     0.93452   0.85845   0.71806   0.00000  Uiso   1.00
O1289  O     0.73656   0.85627   0.77820   0.00000  Uiso   1.00
O1290  O     0.92106   0.81944   0.76767   0.00000  Uiso   1.00
O1291  O     0.80467   0.73570   0.73607   0.00000  Uiso   1.00
O1292  O     0.87104   0.92193   0.71806   0.00000  Uiso   1.00
Zn1293 Zn    0.85910   0.80756   0.78277   0.00000  Uiso   1.00
Zn1294 Zn    0.80125   0.79044   0.72257   0.00000  Uiso   1.00
Zn1295 Zn    0.87833   0.86331   0.71188   0.00000  Uiso   1.00
Zn1296 Zn    0.79465   0.87202   0.78277   0.00000  Uiso   1.00
loop_
_geom_bond_atom_site_label_1
_geom_bond_atom_site_label_2
_geom_bond_distance
_geom_bond_site_symmetry_2
_ccdc_geom_bond_type
C1     O65     1.269   .     A
C1     O63     1.269   .     A
C1     C11     1.436   .     S
C2     C3      1.386   .     A
C2     C29     1.411   .     A
C2     H36     1.081   .     S
C3     H51     1.084   .     S
C3     C653    1.393   .     S
C4     O64     1.284   .     A
C4     O66     1.280   .     A
C4     C10     1.454   .     S
C5     C6      1.422   .     A
C5     C7      1.402   .     A
C5     C651    1.393   1_554 S
C6     C9      1.410   .     A
C6     C30     1.424   .     A
C7     C8      1.391   .     A
C7     H44     1.084   .     S
C8     C20     1.396   .     A
C8     H50     1.083   .     S
C9     C20     1.394   .     A
C9     H49     1.079   .     S
C10    C83     1.334   .     S
C10    H118    1.088   .     S
C11    C154    1.334   1_455 S
C11    H191    1.086   1_455 S
C12    C19     1.402   .     A
C12    H34     1.083   .     S
C12    C21     1.390   .     A
C13    C16     1.454   .     S
C13    C230    1.343   .     S
C13    H264    1.088   .     S
C14    C15     1.440   .     S
C14    C445    1.343   1_545 S
C14    O490    1.394   1_545 S
C15    O67     1.274   .     A
C15    O61     1.274   .     A
C16    O68     1.275   .     A
C16    O62     1.265   .     A
C17    O56     1.278   .     A
C17    C20     1.454   .     S
C17    O54     1.275   .     A
C18    O55     1.281   .     A
C18    C19     1.469   .     S
C18    O57     1.283   .     A
C19    C23     1.414   .     A
C21    C28     1.399   .     A
C21    H52     1.084   .     S
C22    C24     1.532   .     S
C22    H38     1.116   .     S
C22    H469    1.111   1_545 S
C22    O490    1.418   1_545 S
C23    C27     1.422   .     A
C23    C26     1.498   .     S
C24    H40     1.109   .     S
C24    C25     1.526   .     S
C24    H39     1.112   .     S
C25    H42     1.110   .     S
C25    H41     1.111   .     S
C25    H187    1.111   1_455 S
C26    O59     1.221   .     D
C26    O60     1.399   .     S
C27    C29     1.424   .     A
C27    C28     1.417   .     A
C28    C680    1.394   .     S
C29    C678    1.422   .     S
C30    C31     1.413   .     A
C30    C677    1.422   1_554 S
C31    H35     1.078   .     S
C31    C32     1.390   .     A
C32    H33     1.084   .     S
C32    C676    1.394   1_554 S
H37    C238    1.111   .     S
H43    C97     1.111   .     S
H45    O60     1.014   .     S
H46    C154    1.088   1_455 S
H47    C83     1.086   .     S
H48    C445    1.088   1_545 S
O53    Zn69    1.960   .     S
O53    Zn70    1.942   .     S
O53    Zn71    1.940   .     S
O53    Zn72    1.929   .     S
O54    Zn70    1.930   .     S
O55    Zn72    1.938   .     S
O56    Zn71    1.931   .     S
O57    Zn69    1.923   .     S
O58    C230    1.394   .     S
O58    C238    1.418   .     S
O61    Zn69    1.935   .     S
O62    Zn72    1.940   .     S
O63    Zn70    1.924   .     S
O64    Zn71    1.934   .     S
O65    Zn72    1.931   .     S
O66    Zn69    1.924   .     S
O67    Zn70    1.943   .     S
O68    Zn71    1.935   .     S
C73    O137    1.269   .     A
C73    O135    1.269   .     A
C73    C83     1.436   .     S
C74    C75     1.386   .     A
C74    C101    1.411   .     A
C74    H108    1.081   .     S
C75    H123    1.084   .     S
C75    C725    1.393   .     S
C76    O136    1.284   .     A
C76    O138    1.280   .     A
C76    C82     1.454   .     S
C77    C78     1.422   .     A
C77    C79     1.402   .     A
C77    C723    1.393   1_554 S
C78    C81     1.410   .     A
C78    C102    1.424   .     A
C79    C80     1.391   .     A
C79    H116    1.084   .     S
C80    C92     1.396   .     A
C80    H122    1.083   .     S
C81    C92     1.394   .     A
C81    H121    1.079   .     S
C82    C155    1.334   .     S
C82    H190    1.088   .     S
C84    C91     1.402   .     A
C84    H106    1.083   .     S
C84    C93     1.390   .     A
C85    C88     1.454   .     S
C85    C302    1.343   .     S
C85    H336    1.088   .     S
C86    C87     1.440   .     S
C86    C517    1.343   1_545 S
C86    O562    1.394   1_545 S
C87    O139    1.274   .     A
C87    O133    1.274   .     A
C88    O140    1.275   .     A
C88    O134    1.265   .     A
C89    O128    1.278   .     A
C89    C92     1.454   .     S
C89    O126    1.275   .     A
C90    O127    1.281   .     A
C90    C91     1.469   .     S
C90    O129    1.283   .     A
C91    C95     1.414   .     A
C93    C100    1.399   .     A
C93    H124    1.084   .     S
C94    C96     1.532   .     S
C94    H110    1.116   .     S
C94    H541    1.111   1_545 S
C94    O562    1.418   1_545 S
C95    C99     1.422   .     A
C95    C98     1.498   .     S
C96    H112    1.109   .     S
C96    C97     1.526   .     S
C96    H111    1.112   .     S
C97    H114    1.110   .     S
C97    H113    1.111   .     S
C98    O131    1.221   .     D
C98    O132    1.399   .     S
C99    C101    1.424   .     A
C99    C100    1.417   .     A
C100   C752    1.394   .     S
C101   C750    1.422   .     S
C102   C103    1.413   .     A
C102   C749    1.422   1_554 S
C103   H107    1.078   .     S
C103   C104    1.390   .     A
C104   H105    1.084   .     S
C104   C748    1.394   1_554 S
H109   C310    1.111   .     S
H115   C169    1.111   .     S
H117   O132    1.014   .     S
H119   C155    1.086   .     S
H120   C517    1.088   1_545 S
O125   Zn141   1.960   .     S
O125   Zn142   1.942   .     S
O125   Zn143   1.940   .     S
O125   Zn144   1.929   .     S
O126   Zn142   1.930   .     S
O127   Zn144   1.938   .     S
O128   Zn143   1.931   .     S
O129   Zn141   1.923   .     S
O130   C302    1.394   .     S
O130   C310    1.418   .     S
O133   Zn141   1.935   .     S
O134   Zn144   1.940   .     S
O135   Zn142   1.924   .     S
O136   Zn143   1.934   .     S
O137   Zn144   1.931   .     S
O138   Zn141   1.924   .     S
O139   Zn142   1.943   .     S
O140   Zn143   1.935   .     S
C145   O209    1.269   .     A
C145   O207    1.269   .     A
C145   C155    1.436   .     S
C146   C147    1.386   .     A
C146   C173    1.411   .     A
C146   H180    1.081   .     S
C147   H195    1.084   .     S
C147   C797    1.393   .     S
C148   O208    1.284   .     A
C148   O210    1.280   .     A
C148   C154    1.454   .     S
C149   C150    1.422   .     A
C149   C151    1.402   .     A
C149   C795    1.393   1_554 S
C150   C153    1.410   .     A
C150   C174    1.424   .     A
C151   C152    1.391   .     A
C151   H188    1.084   .     S
C152   C164    1.396   .     A
C152   H194    1.083   .     S
C153   C164    1.394   .     A
C153   H193    1.079   .     S
C154   C11     1.334   1_655 S
C154   H46     1.088   1_655 S
C156   C163    1.402   .     A
C156   H178    1.083   .     S
C156   C165    1.390   .     A
C157   C160    1.454   .     S
C157   C374    1.343   .     S
C157   H408    1.088   .     S
C158   C159    1.440   .     S
C158   C589    1.343   1_545 S
C158   O634    1.394   1_545 S
C159   O211    1.274   .     A
C159   O205    1.274   .     A
C160   O212    1.275   .     A
C160   O206    1.265   .     A
C161   O200    1.278   .     A
C161   C164    1.454   .     S
C161   O198    1.275   .     A
C162   O199    1.281   .     A
C162   C163    1.469   .     S
C162   O201    1.283   .     A
C163   C167    1.414   .     A
C165   C172    1.399   .     A
C165   H196    1.084   .     S
C166   C168    1.532   .     S
C166   H182    1.116   .     S
C166   H613    1.111   1_545 S
C166   O634    1.418   1_545 S
C167   C171    1.422   .     A
C167   C170    1.498   .     S
C168   H184    1.109   .     S
C168   C169    1.526   .     S
C168   H183    1.112   .     S
C169   H186    1.110   .     S
C169   H185    1.111   .     S
C170   O203    1.221   .     D
C170   O204    1.399   .     S
C171   C173    1.424   .     A
C171   C172    1.417   .     A
C172   C824    1.394   .     S
C173   C822    1.422   .     S
C174   C175    1.413   .     A
C174   C821    1.422   1_554 S
C175   H179    1.078   .     S
C175   C176    1.390   .     A
C176   H177    1.084   .     S
C176   C820    1.394   1_554 S
H181   C382    1.111   .     S
H187   C25     1.111   1_655 S
H189   O204    1.014   .     S
H191   C11     1.086   1_655 S
H192   C589    1.088   1_545 S
O197   Zn213   1.960   .     S
O197   Zn214   1.942   .     S
O197   Zn215   1.940   .     S
O197   Zn216   1.929   .     S
O198   Zn214   1.930   .     S
O199   Zn216   1.938   .     S
O200   Zn215   1.931   .     S
O201   Zn213   1.923   .     S
O202   C374    1.394   .     S
O202   C382    1.418   .     S
O205   Zn213   1.935   .     S
O206   Zn216   1.940   .     S
O207   Zn214   1.924   .     S
O208   Zn215   1.934   .     S
O209   Zn216   1.931   .     S
O210   Zn213   1.924   .     S
O211   Zn214   1.943   .     S
O212   Zn215   1.935   .     S
C217   O281    1.269   .     A
C217   O279    1.269   .     A
C217   C227    1.436   .     S
C218   C219    1.386   .     A
C218   C245    1.411   .     A
C218   H252    1.081   .     S
C219   H267    1.084   .     S
C219   C869    1.393   .     S
C220   O280    1.284   .     A
C220   O282    1.280   .     A
C220   C226    1.454   .     S
C221   C222    1.422   .     A
C221   C223    1.402   .     A
C221   C867    1.393   1_554 S
C222   C225    1.410   .     A
C222   C246    1.424   .     A
C223   C224    1.391   .     A
C223   H260    1.084   .     S
C224   C236    1.396   .     A
C224   H266    1.083   .     S
C225   C236    1.394   .     A
C225   H265    1.079   .     S
C226   C299    1.334   .     S
C226   H334    1.088   .     S
C227   C370    1.334   1_455 S
C227   H407    1.086   1_455 S
C228   C235    1.402   .     A
C228   H250    1.083   .     S
C228   C237    1.390   .     A
C229   C232    1.454   .     S
C229   C446    1.343   .     S
C229   H480    1.088   .     S
C230   C231    1.440   .     S
C231   O283    1.274   .     A
C231   O277    1.274   .     A
C232   O284    1.275   .     A
C232   O278    1.265   .     A
C233   O272    1.278   .     A
C233   C236    1.454   .     S
C233   O270    1.275   .     A
C234   O271    1.281   .     A
C234   C235    1.469   .     S
C234   O273    1.283   .     A
C235   C239    1.414   .     A
C237   C244    1.399   .     A
C237   H268    1.084   .     S
C238   C240    1.532   .     S
C238   H254    1.116   .     S
C239   C243    1.422   .     A
C239   C242    1.498   .     S
C240   H256    1.109   .     S
C240   C241    1.526   .     S
C240   H255    1.112   .     S
C241   H258    1.110   .     S
C241   H257    1.111   .     S
C241   H403    1.111   1_455 S
C242   O275    1.221   .     D
C242   O276    1.399   .     S
C243   C245    1.424   .     A
C243   C244    1.417   .     A
C244   C896    1.394   .     S
C245   C894    1.422   .     S
C246   C247    1.413   .     A
C246   C893    1.422   1_554 S
C247   H251    1.078   .     S
C247   C248    1.390   .     A
C248   H249    1.084   .     S
C248   C892    1.394   1_554 S
H253   C454    1.111   .     S
H259   C313    1.111   .     S
H261   O276    1.014   .     S
H262   C370    1.088   1_455 S
H263   C299    1.086   .     S
O269   Zn285   1.960   .     S
O269   Zn286   1.942   .     S
O269   Zn287   1.940   .     S
O269   Zn288   1.929   .     S
O270   Zn286   1.930   .     S
O271   Zn288   1.938   .     S
O272   Zn287   1.931   .     S
O273   Zn285   1.923   .     S
O274   C446    1.394   .     S
O274   C454    1.418   .     S
O277   Zn285   1.935   .     S
O278   Zn288   1.940   .     S
O279   Zn286   1.924   .     S
O280   Zn287   1.934   .     S
O281   Zn288   1.931   .     S
O282   Zn285   1.924   .     S
O283   Zn286   1.943   .     S
O284   Zn287   1.935   .     S
C289   O353    1.269   .     A
C289   O351    1.269   .     A
C289   C299    1.436   .     S
C290   C291    1.386   .     A
C290   C317    1.411   .     A
C290   H324    1.081   .     S
C291   H339    1.084   .     S
C291   C941    1.393   .     S
C292   O352    1.284   .     A
C292   O354    1.280   .     A
C292   C298    1.454   .     S
C293   C294    1.422   .     A
C293   C295    1.402   .     A
C293   C939    1.393   1_554 S
C294   C297    1.410   .     A
C294   C318    1.424   .     A
C295   C296    1.391   .     A
C295   H332    1.084   .     S
C296   C308    1.396   .     A
C296   H338    1.083   .     S
C297   C308    1.394   .     A
C297   H337    1.079   .     S
C298   C371    1.334   .     S
C298   H406    1.088   .     S
C300   C307    1.402   .     A
C300   H322    1.083   .     S
C300   C309    1.390   .     A
C301   C304    1.454   .     S
C301   C518    1.343   .     S
C301   H552    1.088   .     S
C302   C303    1.440   .     S
C303   O355    1.274   .     A
C303   O349    1.274   .     A
C304   O356    1.275   .     A
C304   O350    1.265   .     A
C305   O344    1.278   .     A
C305   C308    1.454   .     S
C305   O342    1.275   .     A
C306   O343    1.281   .     A
C306   C307    1.469   .     S
C306   O345    1.283   .     A
C307   C311    1.414   .     A
C309   C316    1.399   .     A
C309   H340    1.084   .     S
C310   C312    1.532   .     S
C310   H326    1.116   .     S
C311   C315    1.422   .     A
C311   C314    1.498   .     S
C312   H328    1.109   .     S
C312   C313    1.526   .     S
C312   H327    1.112   .     S
C313   H330    1.110   .     S
C313   H329    1.111   .     S
C314   O347    1.221   .     D
C314   O348    1.399   .     S
C315   C317    1.424   .     A
C315   C316    1.417   .     A
C316   C968    1.394   .     S
C317   C966    1.422   .     S
C318   C319    1.413   .     A
C318   C965    1.422   1_554 S
C319   H323    1.078   .     S
C319   C320    1.390   .     A
C320   H321    1.084   .     S
C320   C964    1.394   1_554 S
H325   C526    1.111   .     S
H331   C385    1.111   .     S
H333   O348    1.014   .     S
H335   C371    1.086   .     S
O341   Zn357   1.960   .     S
O341   Zn358   1.942   .     S
O341   Zn359   1.940   .     S
O341   Zn360   1.929   .     S
O342   Zn358   1.930   .     S
O343   Zn360   1.938   .     S
O344   Zn359   1.931   .     S
O345   Zn357   1.923   .     S
O346   C518    1.394   .     S
O346   C526    1.418   .     S
O349   Zn357   1.935   .     S
O350   Zn360   1.940   .     S
O351   Zn358   1.924   .     S
O352   Zn359   1.934   .     S
O353   Zn360   1.931   .     S
O354   Zn357   1.924   .     S
O355   Zn358   1.943   .     S
O356   Zn359   1.935   .     S
C361   O425    1.269   .     A
C361   O423    1.269   .     A
C361   C371    1.436   .     S
C362   C363    1.386   .     A
C362   C389    1.411   .     A
C362   H396    1.081   .     S
C363   H411    1.084   .     S
C363   C1013   1.393   .     S
C364   O424    1.284   .     A
C364   O426    1.280   .     A
C364   C370    1.454   .     S
C365   C366    1.422   .     A
C365   C367    1.402   .     A
C365   C1011   1.393   1_554 S
C366   C369    1.410   .     A
C366   C390    1.424   .     A
C367   C368    1.391   .     A
C367   H404    1.084   .     S
C368   C380    1.396   .     A
C368   H410    1.083   .     S
C369   C380    1.394   .     A
C369   H409    1.079   .     S
C370   C227    1.334   1_655 S
C370   H262    1.088   1_655 S
C372   C379    1.402   .     A
C372   H394    1.083   .     S
C372   C381    1.390   .     A
C373   C376    1.454   .     S
C373   C590    1.343   .     S
C373   H624    1.088   .     S
C374   C375    1.440   .     S
C375   O427    1.274   .     A
C375   O421    1.274   .     A
C376   O428    1.275   .     A
C376   O422    1.265   .     A
C377   O416    1.278   .     A
C377   C380    1.454   .     S
C377   O414    1.275   .     A
C378   O415    1.281   .     A
C378   C379    1.469   .     S
C378   O417    1.283   .     A
C379   C383    1.414   .     A
C381   C388    1.399   .     A
C381   H412    1.084   .     S
C382   C384    1.532   .     S
C382   H398    1.116   .     S
C383   C387    1.422   .     A
C383   C386    1.498   .     S
C384   H400    1.109   .     S
C384   C385    1.526   .     S
C384   H399    1.112   .     S
C385   H402    1.110   .     S
C385   H401    1.111   .     S
C386   O419    1.221   .     D
C386   O420    1.399   .     S
C387   C389    1.424   .     A
C387   C388    1.417   .     A
C388   C1040   1.394   .     S
C389   C1038   1.422   .     S
C390   C391    1.413   .     A
C390   C1037   1.422   1_554 S
C391   H395    1.078   .     S
C391   C392    1.390   .     A
C392   H393    1.084   .     S
C392   C1036   1.394   1_554 S
H397   C598    1.111   .     S
H403   C241    1.111   1_655 S
H405   O420    1.014   .     S
H407   C227    1.086   1_655 S
O413   Zn429   1.960   .     S
O413   Zn430   1.942   .     S
O413   Zn431   1.940   .     S
O413   Zn432   1.929   .     S
O414   Zn430   1.930   .     S
O415   Zn432   1.938   .     S
O416   Zn431   1.931   .     S
O417   Zn429   1.923   .     S
O418   C590    1.394   .     S
O418   C598    1.418   .     S
O421   Zn429   1.935   .     S
O422   Zn432   1.940   .     S
O423   Zn430   1.924   .     S
O424   Zn431   1.934   .     S
O425   Zn432   1.931   .     S
O426   Zn429   1.924   .     S
O427   Zn430   1.943   .     S
O428   Zn431   1.935   .     S
C433   O497    1.269   .     A
C433   O495    1.269   .     A
C433   C443    1.436   .     S
C434   C435    1.386   .     A
C434   C461    1.411   .     A
C434   H468    1.081   .     S
C435   H483    1.084   .     S
C435   C1085   1.393   .     S
C436   O496    1.284   .     A
C436   O498    1.280   .     A
C436   C442    1.454   .     S
C437   C438    1.422   .     A
C437   C439    1.402   .     A
C437   C1083   1.393   1_554 S
C438   C441    1.410   .     A
C438   C462    1.424   .     A
C439   C440    1.391   .     A
C439   H476    1.084   .     S
C440   C452    1.396   .     A
C440   H482    1.083   .     S
C441   C452    1.394   .     A
C441   H481    1.079   .     S
C442   C515    1.334   .     S
C442   H550    1.088   .     S
C443   C586    1.334   1_455 S
C443   H623    1.086   1_455 S
C444   C451    1.402   .     A
C444   H466    1.083   .     S
C444   C453    1.390   .     A
C445   C448    1.454   .     S
C445   C14     1.343   1_565 S
C445   H48     1.088   1_565 S
C446   C447    1.440   .     S
C447   O499    1.274   .     A
C447   O493    1.274   .     A
C448   O500    1.275   .     A
C448   O494    1.265   .     A
C449   O488    1.278   .     A
C449   C452    1.454   .     S
C449   O486    1.275   .     A
C450   O487    1.281   .     A
C450   C451    1.469   .     S
C450   O489    1.283   .     A
C451   C455    1.414   .     A
C453   C460    1.399   .     A
C453   H484    1.084   .     S
C454   C456    1.532   .     S
C454   H470    1.116   .     S
C455   C459    1.422   .     A
C455   C458    1.498   .     S
C456   H472    1.109   .     S
C456   C457    1.526   .     S
C456   H471    1.112   .     S
C457   H474    1.110   .     S
C457   H473    1.111   .     S
C457   H619    1.111   1_455 S
C458   O491    1.221   .     D
C458   O492    1.399   .     S
C459   C461    1.424   .     A
C459   C460    1.417   .     A
C460   C1112   1.394   .     S
C461   C1110   1.422   .     S
C462   C463    1.413   .     A
C462   C1109   1.422   1_554 S
C463   H467    1.078   .     S
C463   C464    1.390   .     A
C464   H465    1.084   .     S
C464   C1108   1.394   1_554 S
H469   C22     1.111   1_565 S
H475   C529    1.111   .     S
H477   O492    1.014   .     S
H478   C586    1.088   1_455 S
H479   C515    1.086   .     S
O485   Zn501   1.960   .     S
O485   Zn502   1.942   .     S
O485   Zn503   1.940   .     S
O485   Zn504   1.929   .     S
O486   Zn502   1.930   .     S
O487   Zn504   1.938   .     S
O488   Zn503   1.931   .     S
O489   Zn501   1.923   .     S
O490   C14     1.394   1_565 S
O490   C22     1.418   1_565 S
O493   Zn501   1.935   .     S
O494   Zn504   1.940   .     S
O495   Zn502   1.924   .     S
O496   Zn503   1.934   .     S
O497   Zn504   1.931   .     S
O498   Zn501   1.924   .     S
O499   Zn502   1.943   .     S
O500   Zn503   1.935   .     S
C505   O569    1.269   .     A
C505   O567    1.269   .     A
C505   C515    1.436   .     S
C506   C507    1.386   .     A
C506   C533    1.411   .     A
C506   H540    1.081   .     S
C507   H555    1.084   .     S
C507   C1157   1.393   .     S
C508   O568    1.284   .     A
C508   O570    1.280   .     A
C508   C514    1.454   .     S
C509   C510    1.422   .     A
C509   C511    1.402   .     A
C509   C1155   1.393   1_554 S
C510   C513    1.410   .     A
C510   C534    1.424   .     A
C511   C512    1.391   .     A
C511   H548    1.084   .     S
C512   C524    1.396   .     A
C512   H554    1.083   .     S
C513   C524    1.394   .     A
C513   H553    1.079   .     S
C514   C587    1.334   .     S
C514   H622    1.088   .     S
C516   C523    1.402   .     A
C516   H538    1.083   .     S
C516   C525    1.390   .     A
C517   C520    1.454   .     S
C517   C86     1.343   1_565 S
C517   H120    1.088   1_565 S
C518   C519    1.440   .     S
C519   O571    1.274   .     A
C519   O565    1.274   .     A
C520   O572    1.275   .     A
C520   O566    1.265   .     A
C521   O560    1.278   .     A
C521   C524    1.454   .     S
C521   O558    1.275   .     A
C522   O559    1.281   .     A
C522   C523    1.469   .     S
C522   O561    1.283   .     A
C523   C527    1.414   .     A
C525   C532    1.399   .     A
C525   H556    1.084   .     S
C526   C528    1.532   .     S
C526   H542    1.116   .     S
C527   C531    1.422   .     A
C527   C530    1.498   .     S
C528   H544    1.109   .     S
C528   C529    1.526   .     S
C528   H543    1.112   .     S
C529   H546    1.110   .     S
C529   H545    1.111   .     S
C530   O563    1.221   .     D
C530   O564    1.399   .     S
C531   C533    1.424   .     A
C531   C532    1.417   .     A
C532   C1184   1.394   .     S
C533   C1182   1.422   .     S
C534   C535    1.413   .     A
C534   C1181   1.422   1_554 S
C535   H539    1.078   .     S
C535   C536    1.390   .     A
C536   H537    1.084   .     S
C536   C1180   1.394   1_554 S
H541   C94     1.111   1_565 S
H547   C601    1.111   .     S
H549   O564    1.014   .     S
H551   C587    1.086   .     S
O557   Zn573   1.960   .     S
O557   Zn574   1.942   .     S
O557   Zn575   1.940   .     S
O557   Zn576   1.929   .     S
O558   Zn574   1.930   .     S
O559   Zn576   1.938   .     S
O560   Zn575   1.931   .     S
O561   Zn573   1.923   .     S
O562   C86     1.394   1_565 S
O562   C94     1.418   1_565 S
O565   Zn573   1.935   .     S
O566   Zn576   1.940   .     S
O567   Zn574   1.924   .     S
O568   Zn575   1.934   .     S
O569   Zn576   1.931   .     S
O570   Zn573   1.924   .     S
O571   Zn574   1.943   .     S
O572   Zn575   1.935   .     S
C577   O641    1.269   .     A
C577   O639    1.269   .     A
C577   C587    1.436   .     S
C578   C579    1.386   .     A
C578   C605    1.411   .     A
C578   H612    1.081   .     S
C579   H627    1.084   .     S
C579   C1229   1.393   .     S
C580   O640    1.284   .     A
C580   O642    1.280   .     A
C580   C586    1.454   .     S
C581   C582    1.422   .     A
C581   C583    1.402   .     A
C581   C1227   1.393   1_554 S
C582   C585    1.410   .     A
C582   C606    1.424   .     A
C583   C584    1.391   .     A
C583   H620    1.084   .     S
C584   C596    1.396   .     A
C584   H626    1.083   .     S
C585   C596    1.394   .     A
C585   H625    1.079   .     S
C586   C443    1.334   1_655 S
C586   H478    1.088   1_655 S
C588   C595    1.402   .     A
C588   H610    1.083   .     S
C588   C597    1.390   .     A
C589   C592    1.454   .     S
C589   C158    1.343   1_565 S
C589   H192    1.088   1_565 S
C590   C591    1.440   .     S
C591   O643    1.274   .     A
C591   O637    1.274   .     A
C592   O644    1.275   .     A
C592   O638    1.265   .     A
C593   O632    1.278   .     A
C593   C596    1.454   .     S
C593   O630    1.275   .     A
C594   O631    1.281   .     A
C594   C595    1.469   .     S
C594   O633    1.283   .     A
C595   C599    1.414   .     A
C597   C604    1.399   .     A
C597   H628    1.084   .     S
C598   C600    1.532   .     S
C598   H614    1.116   .     S
C599   C603    1.422   .     A
C599   C602    1.498   .     S
C600   H616    1.109   .     S
C600   C601    1.526   .     S
C600   H615    1.112   .     S
C601   H618    1.110   .     S
C601   H617    1.111   .     S
C602   O635    1.221   .     D
C602   O636    1.399   .     S
C603   C605    1.424   .     A
C603   C604    1.417   .     A
C604   C1256   1.394   .     S
C605   C1254   1.422   .     S
C606   C607    1.413   .     A
C606   C1253   1.422   1_554 S
C607   H611    1.078   .     S
C607   C608    1.390   .     A
C608   H609    1.084   .     S
C608   C1252   1.394   1_554 S
H613   C166    1.111   1_565 S
H619   C457    1.111   1_655 S
H621   O636    1.014   .     S
H623   C443    1.086   1_655 S
O629   Zn645   1.960   .     S
O629   Zn646   1.942   .     S
O629   Zn647   1.940   .     S
O629   Zn648   1.929   .     S
O630   Zn646   1.930   .     S
O631   Zn648   1.938   .     S
O632   Zn647   1.931   .     S
O633   Zn645   1.923   .     S
O634   C158    1.394   1_565 S
O634   C166    1.418   1_565 S
O637   Zn645   1.935   .     S
O638   Zn648   1.940   .     S
O639   Zn646   1.924   .     S
O640   Zn647   1.934   .     S
O641   Zn648   1.931   .     S
O642   Zn645   1.924   .     S
O643   Zn646   1.943   .     S
O644   Zn647   1.935   .     S
C649   O713    1.269   .     A
C649   O711    1.269   .     A
C649   C659    1.436   .     S
C650   C651    1.386   .     A
C650   C677    1.411   .     A
C650   H684    1.081   .     S
C651   H699    1.084   .     S
C651   C5      1.393   1_556 S
C652   O712    1.284   .     A
C652   O714    1.280   .     A
C652   C658    1.454   .     S
C653   C654    1.422   .     A
C653   C655    1.402   .     A
C654   C657    1.410   .     A
C654   C678    1.424   .     A
C655   C656    1.391   .     A
C655   H692    1.084   .     S
C656   C668    1.396   .     A
C656   H698    1.083   .     S
C657   C668    1.394   .     A
C657   H697    1.079   .     S
C658   C731    1.334   .     S
C658   H766    1.088   .     S
C659   C802    1.334   1_455 S
C659   H839    1.086   1_455 S
C660   C667    1.402   .     A
C660   H682    1.083   .     S
C660   C669    1.390   .     A
C661   C664    1.454   .     S
C661   C878    1.343   .     S
C661   H912    1.088   .     S
C662   C663    1.440   .     S
C662   C1093   1.343   1_545 S
C662   O1138   1.394   1_545 S
C663   O715    1.274   .     A
C663   O709    1.274   .     A
C664   O716    1.275   .     A
C664   O710    1.265   .     A
C665   O704    1.278   .     A
C665   C668    1.454   .     S
C665   O702    1.275   .     A
C666   O703    1.281   .     A
C666   C667    1.469   .     S
C666   O705    1.283   .     A
C667   C671    1.414   .     A
C669   C676    1.399   .     A
C669   H700    1.084   .     S
C670   C672    1.532   .     S
C670   H686    1.116   .     S
C670   H1117   1.111   1_545 S
C670   O1138   1.418   1_545 S
C671   C675    1.422   .     A
C671   C674    1.498   .     S
C672   H688    1.109   .     S
C672   C673    1.526   .     S
C672   H687    1.112   .     S
C673   H690    1.110   .     S
C673   H689    1.111   .     S
C673   H835    1.111   1_455 S
C674   O707    1.221   .     D
C674   O708    1.399   .     S
C675   C677    1.424   .     A
C675   C676    1.417   .     A
C676   C32     1.394   1_556 S
C677   C30     1.422   1_556 S
C678   C679    1.413   .     A
C679   H683    1.078   .     S
C679   C680    1.390   .     A
C680   H681    1.084   .     S
H685   C886    1.111   .     S
H691   C745    1.111   .     S
H693   O708    1.014   .     S
H694   C802    1.088   1_455 S
H695   C731    1.086   .     S
H696   C1093   1.088   1_545 S
O701   Zn717   1.960   .     S
O701   Zn718   1.942   .     S
O701   Zn719   1.940   .     S
O701   Zn720   1.929   .     S
O702   Zn718   1.930   .     S
O703   Zn720   1.938   .     S
O704   Zn719   1.931   .     S
O705   Zn717   1.923   .     S
O706   C878    1.394   .     S
O706   C886    1.418   .     S
O709   Zn717   1.935   .     S
O710   Zn720   1.940   .     S
O711   Zn718   1.924   .     S
O712   Zn719   1.934   .     S
O713   Zn720   1.931   .     S
O714   Zn717   1.924   .     S
O715   Zn718   1.943   .     S
O716   Zn719   1.935   .     S
C721   O785    1.269   .     A
C721   O783    1.269   .     A
C721   C731    1.436   .     S
C722   C723    1.386   .     A
C722   C749    1.411   .     A
C722   H756    1.081   .     S
C723   H771    1.084   .     S
C723   C77     1.393   1_556 S
C724   O784    1.284   .     A
C724   O786    1.280   .     A
C724   C730    1.454   .     S
C725   C726    1.422   .     A
C725   C727    1.402   .     A
C726   C729    1.410   .     A
C726   C750    1.424   .     A
C727   C728    1.391   .     A
C727   H764    1.084   .     S
C728   C740    1.396   .     A
C728   H770    1.083   .     S
C729   C740    1.394   .     A
C729   H769    1.079   .     S
C730   C803    1.334   .     S
C730   H838    1.088   .     S
C732   C739    1.402   .     A
C732   H754    1.083   .     S
C732   C741    1.390   .     A
C733   C736    1.454   .     S
C733   C950    1.343   .     S
C733   H984    1.088   .     S
C734   C735    1.440   .     S
C734   C1165   1.343   1_545 S
C734   O1210   1.394   1_545 S
C735   O787    1.274   .     A
C735   O781    1.274   .     A
C736   O788    1.275   .     A
C736   O782    1.265   .     A
C737   O776    1.278   .     A
C737   C740    1.454   .     S
C737   O774    1.275   .     A
C738   O775    1.281   .     A
C738   C739    1.469   .     S
C738   O777    1.283   .     A
C739   C743    1.414   .     A
C741   C748    1.399   .     A
C741   H772    1.084   .     S
C742   C744    1.532   .     S
C742   H758    1.116   .     S
C742   H1189   1.111   1_545 S
C742   O1210   1.418   1_545 S
C743   C747    1.422   .     A
C743   C746    1.498   .     S
C744   H760    1.109   .     S
C744   C745    1.526   .     S
C744   H759    1.112   .     S
C745   H762    1.110   .     S
C745   H761    1.111   .     S
C746   O779    1.221   .     D
C746   O780    1.399   .     S
C747   C749    1.424   .     A
C747   C748    1.417   .     A
C748   C104    1.394   1_556 S
C749   C102    1.422   1_556 S
C750   C751    1.413   .     A
C751   H755    1.078   .     S
C751   C752    1.390   .     A
C752   H753    1.084   .     S
H757   C958    1.111   .     S
H763   C817    1.111   .     S
H765   O780    1.014   .     S
H767   C803    1.086   .     S
H768   C1165   1.088   1_545 S
O773   Zn789   1.960   .     S
O773   Zn790   1.942   .     S
O773   Zn791   1.940   .     S
O773   Zn792   1.929   .     S
O774   Zn790   1.930   .     S
O775   Zn792   1.938   .     S
O776   Zn791   1.931   .     S
O777   Zn789   1.923   .     S
O778   C950    1.394   .     S
O778   C958    1.418   .     S
O781   Zn789   1.935   .     S
O782   Zn792   1.940   .     S
O783   Zn790   1.924   .     S
O784   Zn791   1.934   .     S
O785   Zn792   1.931   .     S
O786   Zn789   1.924   .     S
O787   Zn790   1.943   .     S
O788   Zn791   1.935   .     S
C793   O857    1.269   .     A
C793   O855    1.269   .     A
C793   C803    1.436   .     S
C794   C795    1.386   .     A
C794   C821    1.411   .     A
C794   H828    1.081   .     S
C795   H843    1.084   .     S
C795   C149    1.393   1_556 S
C796   O856    1.284   .     A
C796   O858    1.280   .     A
C796   C802    1.454   .     S
C797   C798    1.422   .     A
C797   C799    1.402   .     A
C798   C801    1.410   .     A
C798   C822    1.424   .     A
C799   C800    1.391   .     A
C799   H836    1.084   .     S
C800   C812    1.396   .     A
C800   H842    1.083   .     S
C801   C812    1.394   .     A
C801   H841    1.079   .     S
C802   C659    1.334   1_655 S
C802   H694    1.088   1_655 S
C804   C811    1.402   .     A
C804   H826    1.083   .     S
C804   C813    1.390   .     A
C805   C808    1.454   .     S
C805   C1022   1.343   .     S
C805   H1056   1.088   .     S
C806   C807    1.440   .     S
C806   C1237   1.343   1_545 S
C806   O1282   1.394   1_545 S
C807   O859    1.274   .     A
C807   O853    1.274   .     A
C808   O860    1.275   .     A
C808   O854    1.265   .     A
C809   O848    1.278   .     A
C809   C812    1.454   .     S
C809   O846    1.275   .     A
C810   O847    1.281   .     A
C810   C811    1.469   .     S
C810   O849    1.283   .     A
C811   C815    1.414   .     A
C813   C820    1.399   .     A
C813   H844    1.084   .     S
C814   C816    1.532   .     S
C814   H830    1.116   .     S
C814   H1261   1.111   1_545 S
C814   O1282   1.418   1_545 S
C815   C819    1.422   .     A
C815   C818    1.498   .     S
C816   H832    1.109   .     S
C816   C817    1.526   .     S
C816   H831    1.112   .     S
C817   H834    1.110   .     S
C817   H833    1.111   .     S
C818   O851    1.221   .     D
C818   O852    1.399   .     S
C819   C821    1.424   .     A
C819   C820    1.417   .     A
C820   C176    1.394   1_556 S
C821   C174    1.422   1_556 S
C822   C823    1.413   .     A
C823   H827    1.078   .     S
C823   C824    1.390   .     A
C824   H825    1.084   .     S
H829   C1030   1.111   .     S
H835   C673    1.111   1_655 S
H837   O852    1.014   .     S
H839   C659    1.086   1_655 S
H840   C1237   1.088   1_545 S
O845   Zn861   1.960   .     S
O845   Zn862   1.942   .     S
O845   Zn863   1.940   .     S
O845   Zn864   1.929   .     S
O846   Zn862   1.930   .     S
O847   Zn864   1.938   .     S
O848   Zn863   1.931   .     S
O849   Zn861   1.923   .     S
O850   C1022   1.394   .     S
O850   C1030   1.418   .     S
O853   Zn861   1.935   .     S
O854   Zn864   1.940   .     S
O855   Zn862   1.924   .     S
O856   Zn863   1.934   .     S
O857   Zn864   1.931   .     S
O858   Zn861   1.924   .     S
O859   Zn862   1.943   .     S
O860   Zn863   1.935   .     S
C865   O929    1.269   .     A
C865   O927    1.269   .     A
C865   C875    1.436   .     S
C866   C867    1.386   .     A
C866   C893    1.411   .     A
C866   H900    1.081   .     S
C867   H915    1.084   .     S
C867   C221    1.393   1_556 S
C868   O928    1.284   .     A
C868   O930    1.280   .     A
C868   C874    1.454   .     S
C869   C870    1.422   .     A
C869   C871    1.402   .     A
C870   C873    1.410   .     A
C870   C894    1.424   .     A
C871   C872    1.391   .     A
C871   H908    1.084   .     S
C872   C884    1.396   .     A
C872   H914    1.083   .     S
C873   C884    1.394   .     A
C873   H913    1.079   .     S
C874   C947    1.334   .     S
C874   H982    1.088   .     S
C875   C1018   1.334   1_455 S
C875   H1055   1.086   1_455 S
C876   C883    1.402   .     A
C876   H898    1.083   .     S
C876   C885    1.390   .     A
C877   C880    1.454   .     S
C877   C1094   1.343   .     S
C877   H1128   1.088   .     S
C878   C879    1.440   .     S
C879   O931    1.274   .     A
C879   O925    1.274   .     A
C880   O932    1.275   .     A
C880   O926    1.265   .     A
C881   O920    1.278   .     A
C881   C884    1.454   .     S
C881   O918    1.275   .     A
C882   O919    1.281   .     A
C882   C883    1.469   .     S
C882   O921    1.283   .     A
C883   C887    1.414   .     A
C885   C892    1.399   .     A
C885   H916    1.084   .     S
C886   C888    1.532   .     S
C886   H902    1.116   .     S
C887   C891    1.422   .     A
C887   C890    1.498   .     S
C888   H904    1.109   .     S
C888   C889    1.526   .     S
C888   H903    1.112   .     S
C889   H906    1.110   .     S
C889   H905    1.111   .     S
C889   H1051   1.111   1_455 S
C890   O923    1.221   .     D
C890   O924    1.399   .     S
C891   C893    1.424   .     A
C891   C892    1.417   .     A
C892   C248    1.394   1_556 S
C893   C246    1.422   1_556 S
C894   C895    1.413   .     A
C895   H899    1.078   .     S
C895   C896    1.390   .     A
C896   H897    1.084   .     S
H901   C1102   1.111   .     S
H907   C961    1.111   .     S
H909   O924    1.014   .     S
H910   C1018   1.088   1_455 S
H911   C947    1.086   .     S
O917   Zn933   1.960   .     S
O917   Zn934   1.942   .     S
O917   Zn935   1.940   .     S
O917   Zn936   1.929   .     S
O918   Zn934   1.930   .     S
O919   Zn936   1.938   .     S
O920   Zn935   1.931   .     S
O921   Zn933   1.923   .     S
O922   C1094   1.394   .     S
O922   C1102   1.418   .     S
O925   Zn933   1.935   .     S
O926   Zn936   1.940   .     S
O927   Zn934   1.924   .     S
O928   Zn935   1.934   .     S
O929   Zn936   1.931   .     S
O930   Zn933   1.924   .     S
O931   Zn934   1.943   .     S
O932   Zn935   1.935   .     S
C937   O1001   1.269   .     A
C937   O999    1.269   .     A
C937   C947    1.436   .     S
C938   C939    1.386   .     A
C938   C965    1.411   .     A
C938   H972    1.081   .     S
C939   H987    1.084   .     S
C939   C293    1.393   1_556 S
C940   O1000   1.284   .     A
C940   O1002   1.280   .     A
C940   C946    1.454   .     S
C941   C942    1.422   .     A
C941   C943    1.402   .     A
C942   C945    1.410   .     A
C942   C966    1.424   .     A
C943   C944    1.391   .     A
C943   H980    1.084   .     S
C944   C956    1.396   .     A
C944   H986    1.083   .     S
C945   C956    1.394   .     A
C945   H985    1.079   .     S
C946   C1019   1.334   .     S
C946   H1054   1.088   .     S
C948   C955    1.402   .     A
C948   H970    1.083   .     S
C948   C957    1.390   .     A
C949   C952    1.454   .     S
C949   C1166   1.343   .     S
C949   H1200   1.088   .     S
C950   C951    1.440   .     S
C951   O1003   1.274   .     A
C951   O997    1.274   .     A
C952   O1004   1.275   .     A
C952   O998    1.265   .     A
C953   O992    1.278   .     A
C953   C956    1.454   .     S
C953   O990    1.275   .     A
C954   O991    1.281   .     A
C954   C955    1.469   .     S
C954   O993    1.283   .     A
C955   C959    1.414   .     A
C957   C964    1.399   .     A
C957   H988    1.084   .     S
C958   C960    1.532   .     S
C958   H974    1.116   .     S
C959   C963    1.422   .     A
C959   C962    1.498   .     S
C960   H976    1.109   .     S
C960   C961    1.526   .     S
C960   H975    1.112   .     S
C961   H978    1.110   .     S
C961   H977    1.111   .     S
C962   O995    1.221   .     D
C962   O996    1.399   .     S
C963   C965    1.424   .     A
C963   C964    1.417   .     A
C964   C320    1.394   1_556 S
C965   C318    1.422   1_556 S
C966   C967    1.413   .     A
C967   H971    1.078   .     S
C967   C968    1.390   .     A
C968   H969    1.084   .     S
H973   C1174   1.111   .     S
H979   C1033   1.111   .     S
H981   O996    1.014   .     S
H983   C1019   1.086   .     S
O989   Zn1005  1.960   .     S
O989   Zn1006  1.942   .     S
O989   Zn1007  1.940   .     S
O989   Zn1008  1.929   .     S
O990   Zn1006  1.930   .     S
O991   Zn1008  1.938   .     S
O992   Zn1007  1.931   .     S
O993   Zn1005  1.923   .     S
O994   C1166   1.394   .     S
O994   C1174   1.418   .     S
O997   Zn1005  1.935   .     S
O998   Zn1008  1.940   .     S
O999   Zn1006  1.924   .     S
O1000  Zn1007  1.934   .     S
O1001  Zn1008  1.931   .     S
O1002  Zn1005  1.924   .     S
O1003  Zn1006  1.943   .     S
O1004  Zn1007  1.935   .     S
C1009  O1073   1.269   .     A
C1009  O1071   1.269   .     A
C1009  C1019   1.436   .     S
C1010  C1011   1.386   .     A
C1010  C1037   1.411   .     A
C1010  H1044   1.081   .     S
C1011  H1059   1.084   .     S
C1011  C365    1.393   1_556 S
C1012  O1072   1.284   .     A
C1012  O1074   1.280   .     A
C1012  C1018   1.454   .     S
C1013  C1014   1.422   .     A
C1013  C1015   1.402   .     A
C1014  C1017   1.410   .     A
C1014  C1038   1.424   .     A
C1015  C1016   1.391   .     A
C1015  H1052   1.084   .     S
C1016  C1028   1.396   .     A
C1016  H1058   1.083   .     S
C1017  C1028   1.394   .     A
C1017  H1057   1.079   .     S
C1018  C875    1.334   1_655 S
C1018  H910    1.088   1_655 S
C1020  C1027   1.402   .     A
C1020  H1042   1.083   .     S
C1020  C1029   1.390   .     A
C1021  C1024   1.454   .     S
C1021  C1238   1.343   .     S
C1021  H1272   1.088   .     S
C1022  C1023   1.440   .     S
C1023  O1075   1.274   .     A
C1023  O1069   1.274   .     A
C1024  O1076   1.275   .     A
C1024  O1070   1.265   .     A
C1025  O1064   1.278   .     A
C1025  C1028   1.454   .     S
C1025  O1062   1.275   .     A
C1026  O1063   1.281   .     A
C1026  C1027   1.469   .     S
C1026  O1065   1.283   .     A
C1027  C1031   1.414   .     A
C1029  C1036   1.399   .     A
C1029  H1060   1.084   .     S
C1030  C1032   1.532   .     S
C1030  H1046   1.116   .     S
C1031  C1035   1.422   .     A
C1031  C1034   1.498   .     S
C1032  H1048   1.109   .     S
C1032  C1033   1.526   .     S
C1032  H1047   1.112   .     S
C1033  H1050   1.110   .     S
C1033  H1049   1.111   .     S
C1034  O1067   1.221   .     D
C1034  O1068   1.399   .     S
C1035  C1037   1.424   .     A
C1035  C1036   1.417   .     A
C1036  C392    1.394   1_556 S
C1037  C390    1.422   1_556 S
C1038  C1039   1.413   .     A
C1039  H1043   1.078   .     S
C1039  C1040   1.390   .     A
C1040  H1041   1.084   .     S
H1045  C1246   1.111   .     S
H1051  C889    1.111   1_655 S
H1053  O1068   1.014   .     S
H1055  C875    1.086   1_655 S
O1061  Zn1077  1.960   .     S
O1061  Zn1078  1.942   .     S
O1061  Zn1079  1.940   .     S
O1061  Zn1080  1.929   .     S
O1062  Zn1078  1.930   .     S
O1063  Zn1080  1.938   .     S
O1064  Zn1079  1.931   .     S
O1065  Zn1077  1.923   .     S
O1066  C1238   1.394   .     S
O1066  C1246   1.418   .     S
O1069  Zn1077  1.935   .     S
O1070  Zn1080  1.940   .     S
O1071  Zn1078  1.924   .     S
O1072  Zn1079  1.934   .     S
O1073  Zn1080  1.931   .     S
O1074  Zn1077  1.924   .     S
O1075  Zn1078  1.943   .     S
O1076  Zn1079  1.935   .     S
C1081  O1145   1.269   .     A
C1081  O1143   1.269   .     A
C1081  C1091   1.436   .     S
C1082  C1083   1.386   .     A
C1082  C1109   1.411   .     A
C1082  H1116   1.081   .     S
C1083  H1131   1.084   .     S
C1083  C437    1.393   1_556 S
C1084  O1144   1.284   .     A
C1084  O1146   1.280   .     A
C1084  C1090   1.454   .     S
C1085  C1086   1.422   .     A
C1085  C1087   1.402   .     A
C1086  C1089   1.410   .     A
C1086  C1110   1.424   .     A
C1087  C1088   1.391   .     A
C1087  H1124   1.084   .     S
C1088  C1100   1.396   .     A
C1088  H1130   1.083   .     S
C1089  C1100   1.394   .     A
C1089  H1129   1.079   .     S
C1090  C1163   1.334   .     S
C1090  H1198   1.088   .     S
C1091  C1234   1.334   1_455 S
C1091  H1271   1.086   1_455 S
C1092  C1099   1.402   .     A
C1092  H1114   1.083   .     S
C1092  C1101   1.390   .     A
C1093  C1096   1.454   .     S
C1093  C662    1.343   1_565 S
C1093  H696    1.088   1_565 S
C1094  C1095   1.440   .     S
C1095  O1147   1.274   .     A
C1095  O1141   1.274   .     A
C1096  O1148   1.275   .     A
C1096  O1142   1.265   .     A
C1097  O1136   1.278   .     A
C1097  C1100   1.454   .     S
C1097  O1134   1.275   .     A
C1098  O1135   1.281   .     A
C1098  C1099   1.469   .     S
C1098  O1137   1.283   .     A
C1099  C1103   1.414   .     A
C1101  C1108   1.399   .     A
C1101  H1132   1.084   .     S
C1102  C1104   1.532   .     S
C1102  H1118   1.116   .     S
C1103  C1107   1.422   .     A
C1103  C1106   1.498   .     S
C1104  H1120   1.109   .     S
C1104  C1105   1.526   .     S
C1104  H1119   1.112   .     S
C1105  H1122   1.110   .     S
C1105  H1121   1.111   .     S
C1105  H1267   1.111   1_455 S
C1106  O1139   1.221   .     D
C1106  O1140   1.399   .     S
C1107  C1109   1.424   .     A
C1107  C1108   1.417   .     A
C1108  C464    1.394   1_556 S
C1109  C462    1.422   1_556 S
C1110  C1111   1.413   .     A
C1111  H1115   1.078   .     S
C1111  C1112   1.390   .     A
C1112  H1113   1.084   .     S
H1117  C670    1.111   1_565 S
H1123  C1177   1.111   .     S
H1125  O1140   1.014   .     S
H1126  C1234   1.088   1_455 S
H1127  C1163   1.086   .     S
O1133  Zn1149  1.960   .     S
O1133  Zn1150  1.942   .     S
O1133  Zn1151  1.940   .     S
O1133  Zn1152  1.929   .     S
O1134  Zn1150  1.930   .     S
O1135  Zn1152  1.938   .     S
O1136  Zn1151  1.931   .     S
O1137  Zn1149  1.923   .     S
O1138  C662    1.394   1_565 S
O1138  C670    1.418   1_565 S
O1141  Zn1149  1.935   .     S
O1142  Zn1152  1.940   .     S
O1143  Zn1150  1.924   .     S
O1144  Zn1151  1.934   .     S
O1145  Zn1152  1.931   .     S
O1146  Zn1149  1.924   .     S
O1147  Zn1150  1.943   .     S
O1148  Zn1151  1.935   .     S
C1153  O1217   1.269   .     A
C1153  O1215   1.269   .     A
C1153  C1163   1.436   .     S
C1154  C1155   1.386   .     A
C1154  C1181   1.411   .     A
C1154  H1188   1.081   .     S
C1155  H1203   1.084   .     S
C1155  C509    1.393   1_556 S
C1156  O1216   1.284   .     A
C1156  O1218   1.280   .     A
C1156  C1162   1.454   .     S
C1157  C1158   1.422   .     A
C1157  C1159   1.402   .     A
C1158  C1161   1.410   .     A
C1158  C1182   1.424   .     A
C1159  C1160   1.391   .     A
C1159  H1196   1.084   .     S
C1160  C1172   1.396   .     A
C1160  H1202   1.083   .     S
C1161  C1172   1.394   .     A
C1161  H1201   1.079   .     S
C1162  C1235   1.334   .     S
C1162  H1270   1.088   .     S
C1164  C1171   1.402   .     A
C1164  H1186   1.083   .     S
C1164  C1173   1.390   .     A
C1165  C1168   1.454   .     S
C1165  C734    1.343   1_565 S
C1165  H768    1.088   1_565 S
C1166  C1167   1.440   .     S
C1167  O1219   1.274   .     A
C1167  O1213   1.274   .     A
C1168  O1220   1.275   .     A
C1168  O1214   1.265   .     A
C1169  O1208   1.278   .     A
C1169  C1172   1.454   .     S
C1169  O1206   1.275   .     A
C1170  O1207   1.281   .     A
C1170  C1171   1.469   .     S
C1170  O1209   1.283   .     A
C1171  C1175   1.414   .     A
C1173  C1180   1.399   .     A
C1173  H1204   1.084   .     S
C1174  C1176   1.532   .     S
C1174  H1190   1.116   .     S
C1175  C1179   1.422   .     A
C1175  C1178   1.498   .     S
C1176  H1192   1.109   .     S
C1176  C1177   1.526   .     S
C1176  H1191   1.112   .     S
C1177  H1194   1.110   .     S
C1177  H1193   1.111   .     S
C1178  O1211   1.221   .     D
C1178  O1212   1.399   .     S
C1179  C1181   1.424   .     A
C1179  C1180   1.417   .     A
C1180  C536    1.394   1_556 S
C1181  C534    1.422   1_556 S
C1182  C1183   1.413   .     A
C1183  H1187   1.078   .     S
C1183  C1184   1.390   .     A
C1184  H1185   1.084   .     S
H1189  C742    1.111   1_565 S
H1195  C1249   1.111   .     S
H1197  O1212   1.014   .     S
H1199  C1235   1.086   .     S
O1205  Zn1221  1.960   .     S
O1205  Zn1222  1.942   .     S
O1205  Zn1223  1.940   .     S
O1205  Zn1224  1.929   .     S
O1206  Zn1222  1.930   .     S
O1207  Zn1224  1.938   .     S
O1208  Zn1223  1.931   .     S
O1209  Zn1221  1.923   .     S
O1210  C734    1.394   1_565 S
O1210  C742    1.418   1_565 S
O1213  Zn1221  1.935   .     S
O1214  Zn1224  1.940   .     S
O1215  Zn1222  1.924   .     S
O1216  Zn1223  1.934   .     S
O1217  Zn1224  1.931   .     S
O1218  Zn1221  1.924   .     S
O1219  Zn1222  1.943   .     S
O1220  Zn1223  1.935   .     S
C1225  O1289   1.269   .     A
C1225  O1287   1.269   .     A
C1225  C1235   1.436   .     S
C1226  C1227   1.386   .     A
C1226  C1253   1.411   .     A
C1226  H1260   1.081   .     S
C1227  H1275   1.084   .     S
C1227  C581    1.393   1_556 S
C1228  O1288   1.284   .     A
C1228  O1290   1.280   .     A
C1228  C1234   1.454   .     S
C1229  C1230   1.422   .     A
C1229  C1231   1.402   .     A
C1230  C1233   1.410   .     A
C1230  C1254   1.424   .     A
C1231  C1232   1.391   .     A
C1231  H1268   1.084   .     S
C1232  C1244   1.396   .     A
C1232  H1274   1.083   .     S
C1233  C1244   1.394   .     A
C1233  H1273   1.079   .     S
C1234  C1091   1.334   1_655 S
C1234  H1126   1.088   1_655 S
C1236  C1243   1.402   .     A
C1236  H1258   1.083   .     S
C1236  C1245   1.390   .     A
C1237  C1240   1.454   .     S
C1237  C806    1.343   1_565 S
C1237  H840    1.088   1_565 S
C1238  C1239   1.440   .     S
C1239  O1291   1.274   .     A
C1239  O1285   1.274   .     A
C1240  O1292   1.275   .     A
C1240  O1286   1.265   .     A
C1241  O1280   1.278   .     A
C1241  C1244   1.454   .     S
C1241  O1278   1.275   .     A
C1242  O1279   1.281   .     A
C1242  C1243   1.469   .     S
C1242  O1281   1.283   .     A
C1243  C1247   1.414   .     A
C1245  C1252   1.399   .     A
C1245  H1276   1.084   .     S
C1246  C1248   1.532   .     S
C1246  H1262   1.116   .     S
C1247  C1251   1.422   .     A
C1247  C1250   1.498   .     S
C1248  H1264   1.109   .     S
C1248  C1249   1.526   .     S
C1248  H1263   1.112   .     S
C1249  H1266   1.110   .     S
C1249  H1265   1.111   .     S
C1250  O1283   1.221   .     D
C1250  O1284   1.399   .     S
C1251  C1253   1.424   .     A
C1251  C1252   1.417   .     A
C1252  C608    1.394   1_556 S
C1253  C606    1.422   1_556 S
C1254  C1255   1.413   .     A
C1255  H1259   1.078   .     S
C1255  C1256   1.390   .     A
C1256  H1257   1.084   .     S
H1261  C814    1.111   1_565 S
H1267  C1105   1.111   1_655 S
H1269  O1284   1.014   .     S
H1271  C1091   1.086   1_655 S
O1277  Zn1293  1.960   .     S
O1277  Zn1294  1.942   .     S
O1277  Zn1295  1.940   .     S
O1277  Zn1296  1.929   .     S
O1278  Zn1294  1.930   .     S
O1279  Zn1296  1.938   .     S
O1280  Zn1295  1.931   .     S
O1281  Zn1293  1.923   .     S
O1282  C806    1.394   1_565 S
O1282  C814    1.418   1_565 S
O1285  Zn1293  1.935   .     S
O1286  Zn1296  1.940   .     S
O1287  Zn1294  1.924   .     S
O1288  Zn1295  1.934   .     S
O1289  Zn1296  1.931   .     S
O1290  Zn1293  1.924   .     S
O1291  Zn1294  1.943   .     S
O1292  Zn1295  1.935   .     S
