data_str_m3_o1_o18_pcu_sym.161
_audit_creation_date              2020-01-03
_audit_creation_method            'Materials Studio'
_symmetry_space_group_name_H-M    'P1'
_symmetry_Int_Tables_number       1
_symmetry_cell_setting            triclinic
loop_
_symmetry_equiv_pos_as_xyz
  x,y,z
_cell_length_a                    29.5972
_cell_length_b                    32.1168
_cell_length_c                    30.8593
_cell_angle_alpha                 89.8998
_cell_angle_beta                  67.4223
_cell_angle_gamma                 89.9908
loop_
_atom_site_label
_atom_site_type_symbol
_atom_site_fract_x
_atom_site_fract_y
_atom_site_fract_z
_atom_site_U_iso_or_equiv
_atom_site_adp_type
_atom_site_occupancy
C1     C     0.16670   0.24668   0.24995   0.00000  Uiso   1.00
C2     C     0.16680   0.08666   0.24968   0.00000  Uiso   1.00
C3     C     0.11892   0.11918   0.04628   0.00000  Uiso   1.00
C4     C     0.22624   0.15627   0.44355   0.00000  Uiso   1.00
C5     C     0.08479   0.11362   0.02573   0.00000  Uiso   1.00
C6     C     0.26031   0.16323   0.46371   0.00000  Uiso   1.00
C7     C     0.20202   0.31201   0.26105   0.00000  Uiso   1.00
C8     C     0.13178   0.02136   0.23804   0.00000  Uiso   1.00
C9     C     0.20207   0.02133   0.26095   0.00000  Uiso   1.00
C10    C     0.13170   0.31203   0.23820   0.00000  Uiso   1.00
C11    C     0.16692   0.04251   0.24949   0.00000  Uiso   1.00
C12    C     0.16680   0.29085   0.24974   0.00000  Uiso   1.00
C13    C     0.31800   0.13549   0.22854   0.00000  Uiso   1.00
C14    C     0.01525   0.19774   0.27166   0.00000  Uiso   1.00
C15    C     0.03260   0.13557   0.22842   0.00000  Uiso   1.00
C16    C     0.30069   0.19771   0.27169   0.00000  Uiso   1.00
C17    C     0.13570   0.16461   0.33818   0.00000  Uiso   1.00
C18    C     0.19756   0.16736   0.16154   0.00000  Uiso   1.00
C19    C     0.11531   0.15621   0.38884   0.00000  Uiso   1.00
C20    C     0.21741   0.16614   0.10981   0.00000  Uiso   1.00
C21    C     0.06135   0.12030   0.45906   0.00000  Uiso   1.00
C22    C     0.28053   0.17266   0.03166   0.00000  Uiso   1.00
C23    C     0.07348   0.13078   0.41178   0.00000  Uiso   1.00
C24    C     0.26689   0.17451   0.08035   0.00000  Uiso   1.00
C25    C     0.14420   0.16819   0.41313   0.00000  Uiso   1.00
C26    C     0.18393   0.15604   0.08946   0.00000  Uiso   1.00
C27    C     0.13849   0.14909   0.45554   0.00000  Uiso   1.00
C28    C     0.19803   0.15157   0.04118   0.00000  Uiso   1.00
C29    C     0.09414   0.12848   0.48071   0.00000  Uiso   1.00
C30    C     0.24645   0.16228   0.01212   0.00000  Uiso   1.00
C31    C     0.17617   0.14949   0.47296   0.00000  Uiso   1.00
C32    C     0.16400   0.14026   0.02103   0.00000  Uiso   1.00
H33    H     0.05120   0.09686   0.04496   0.00000  Uiso   1.00
H34    H     0.29770   0.17036   0.44152   0.00000  Uiso   1.00
H35    H     0.14573   0.15397   0.11171   0.00000  Uiso   1.00
H36    H     0.17388   0.18986   0.39668   0.00000  Uiso   1.00
H37    H     0.02868   0.10228   0.47777   0.00000  Uiso   1.00
H38    H     0.31770   0.18018   0.00864   0.00000  Uiso   1.00
H39    H     0.22912   0.29573   0.27034   0.00000  Uiso   1.00
H40    H     0.10470   0.03766   0.22876   0.00000  Uiso   1.00
H41    H     0.22917   0.03759   0.27021   0.00000  Uiso   1.00
H42    H     0.10455   0.29576   0.22902   0.00000  Uiso   1.00
H43    H     0.30685   0.11053   0.21134   0.00000  Uiso   1.00
H44    H     0.02631   0.22254   0.28914   0.00000  Uiso   1.00
H45    H     0.05764   0.11072   0.21101   0.00000  Uiso   1.00
H46    H     0.27562   0.22250   0.28916   0.00000  Uiso   1.00
N47    N     0.04759   0.16668   0.25001   0.00000  Uiso   1.00
N48    N     0.28574   0.16666   0.24999   0.00000  Uiso   1.00
O49    O     0.12846   0.22775   0.25001   0.00000  Uiso   1.00
O50    O     0.20488   0.10558   0.24999   0.00000  Uiso   1.00
O51    O     0.20490   0.22774   0.25000   0.00000  Uiso   1.00
O52    O     0.12843   0.10559   0.25000   0.00000  Uiso   1.00
O53    O     0.10661   0.16667   0.31612   0.00000  Uiso   1.00
O54    O     0.22672   0.16666   0.18388   0.00000  Uiso   1.00
O55    O     0.18305   0.16666   0.31612   0.00000  Uiso   1.00
O56    O     0.15028   0.16667   0.18388   0.00000  Uiso   1.00
Zn57   Zn    0.11562   0.16667   0.25000   0.00000  Uiso   1.00
Zn58   Zn    0.21771   0.16666   0.25000   0.00000  Uiso   1.00
S59    S     0.31224   0.18966   0.10168   0.00000  Uiso   1.00
O60    O     0.32464   0.15292   0.12525   0.00000  Uiso   1.00
O61    O     0.02454   0.20412   0.06215   0.00000  Uiso   1.00
O62    O     0.29096   0.22878   0.14044   0.00000  Uiso   1.00
H63    H     0.31299   0.22959   0.15781   0.00000  Uiso   1.00
S64    S     0.04113   0.10481   0.38177   0.00000  Uiso   1.00
O65    O     0.07624   0.07693   0.34531   0.00000  Uiso   1.00
O66    O     0.00112   0.07837   0.41552   0.00000  Uiso   1.00
O67    O     0.01634   0.13823   0.35509   0.00000  Uiso   1.00
H68    H     0.01830   0.16606   0.36793   0.00000  Uiso   1.00
O69    O     0.10860   0.10097   0.08967   0.00000  Uiso   1.00
C70    C     0.13155   0.06169   0.08298   0.00000  Uiso   1.00
H71    H     0.17205   0.06454   0.06575   0.00000  Uiso   1.00
H72    H     0.11748   0.04068   0.06234   0.00000  Uiso   1.00
H73    H     0.12301   0.04709   0.11784   0.00000  Uiso   1.00
O74    O     0.24351   0.15489   0.39500   0.00000  Uiso   1.00
C75    C     0.24284   0.11328   0.38032   0.00000  Uiso   1.00
H76    H     0.20524   0.10291   0.38604   0.00000  Uiso   1.00
H77    H     0.25911   0.09128   0.39811   0.00000  Uiso   1.00
H78    H     0.26481   0.11147   0.34206   0.00000  Uiso   1.00
C79    C     0.50003   0.24668   0.24995   0.00000  Uiso   1.00
C80    C     0.50013   0.08666   0.24968   0.00000  Uiso   1.00
C81    C     0.45225   0.11918   0.04628   0.00000  Uiso   1.00
C82    C     0.55958   0.15627   0.44355   0.00000  Uiso   1.00
C83    C     0.41812   0.11362   0.02573   0.00000  Uiso   1.00
C84    C     0.59364   0.16323   0.46371   0.00000  Uiso   1.00
C85    C     0.53536   0.31201   0.26105   0.00000  Uiso   1.00
C86    C     0.46511   0.02136   0.23804   0.00000  Uiso   1.00
C87    C     0.53540   0.02133   0.26095   0.00000  Uiso   1.00
C88    C     0.46503   0.31203   0.23820   0.00000  Uiso   1.00
C89    C     0.50025   0.04251   0.24949   0.00000  Uiso   1.00
C90    C     0.50013   0.29085   0.24974   0.00000  Uiso   1.00
C91    C     0.65133   0.13549   0.22854   0.00000  Uiso   1.00
C92    C     0.34859   0.19774   0.27166   0.00000  Uiso   1.00
C93    C     0.36593   0.13557   0.22842   0.00000  Uiso   1.00
C94    C     0.63402   0.19771   0.27169   0.00000  Uiso   1.00
C95    C     0.46904   0.16461   0.33818   0.00000  Uiso   1.00
C96    C     0.53090   0.16736   0.16154   0.00000  Uiso   1.00
C97    C     0.44864   0.15621   0.38884   0.00000  Uiso   1.00
C98    C     0.55074   0.16614   0.10981   0.00000  Uiso   1.00
C99    C     0.39469   0.12030   0.45906   0.00000  Uiso   1.00
C100   C     0.61386   0.17266   0.03166   0.00000  Uiso   1.00
C101   C     0.40681   0.13078   0.41178   0.00000  Uiso   1.00
C102   C     0.60023   0.17451   0.08035   0.00000  Uiso   1.00
C103   C     0.47754   0.16819   0.41313   0.00000  Uiso   1.00
C104   C     0.51726   0.15604   0.08946   0.00000  Uiso   1.00
C105   C     0.47182   0.14909   0.45554   0.00000  Uiso   1.00
C106   C     0.53137   0.15157   0.04118   0.00000  Uiso   1.00
C107   C     0.42747   0.12848   0.48071   0.00000  Uiso   1.00
C108   C     0.57978   0.16228   0.01212   0.00000  Uiso   1.00
C109   C     0.50950   0.14949   0.47296   0.00000  Uiso   1.00
C110   C     0.49733   0.14026   0.02103   0.00000  Uiso   1.00
H111   H     0.38453   0.09686   0.04496   0.00000  Uiso   1.00
H112   H     0.63104   0.17036   0.44152   0.00000  Uiso   1.00
H113   H     0.47907   0.15397   0.11171   0.00000  Uiso   1.00
H114   H     0.50722   0.18986   0.39668   0.00000  Uiso   1.00
H115   H     0.36202   0.10228   0.47777   0.00000  Uiso   1.00
H116   H     0.65104   0.18018   0.00864   0.00000  Uiso   1.00
H117   H     0.56245   0.29573   0.27034   0.00000  Uiso   1.00
H118   H     0.43803   0.03766   0.22876   0.00000  Uiso   1.00
H119   H     0.56250   0.03759   0.27021   0.00000  Uiso   1.00
H120   H     0.43788   0.29576   0.22902   0.00000  Uiso   1.00
H121   H     0.64018   0.11053   0.21134   0.00000  Uiso   1.00
H122   H     0.35964   0.22254   0.28914   0.00000  Uiso   1.00
H123   H     0.39097   0.11072   0.21101   0.00000  Uiso   1.00
H124   H     0.60895   0.22250   0.28916   0.00000  Uiso   1.00
N125   N     0.38093   0.16668   0.25001   0.00000  Uiso   1.00
N126   N     0.61907   0.16666   0.24999   0.00000  Uiso   1.00
O127   O     0.46179   0.22775   0.25001   0.00000  Uiso   1.00
O128   O     0.53821   0.10558   0.24999   0.00000  Uiso   1.00
O129   O     0.53823   0.22774   0.25000   0.00000  Uiso   1.00
O130   O     0.46177   0.10559   0.25000   0.00000  Uiso   1.00
O131   O     0.43994   0.16667   0.31612   0.00000  Uiso   1.00
O132   O     0.56006   0.16666   0.18388   0.00000  Uiso   1.00
O133   O     0.51639   0.16666   0.31612   0.00000  Uiso   1.00
O134   O     0.48361   0.16667   0.18388   0.00000  Uiso   1.00
Zn135  Zn    0.44896   0.16667   0.25000   0.00000  Uiso   1.00
Zn136  Zn    0.55104   0.16666   0.25000   0.00000  Uiso   1.00
S137   S     0.64557   0.18966   0.10168   0.00000  Uiso   1.00
O138   O     0.65797   0.15292   0.12525   0.00000  Uiso   1.00
O139   O     0.35787   0.20412   0.06215   0.00000  Uiso   1.00
O140   O     0.62429   0.22878   0.14044   0.00000  Uiso   1.00
H141   H     0.64632   0.22959   0.15781   0.00000  Uiso   1.00
S142   S     0.37446   0.10481   0.38177   0.00000  Uiso   1.00
O143   O     0.40957   0.07693   0.34531   0.00000  Uiso   1.00
O144   O     0.33446   0.07837   0.41552   0.00000  Uiso   1.00
O145   O     0.34967   0.13823   0.35509   0.00000  Uiso   1.00
H146   H     0.35164   0.16606   0.36793   0.00000  Uiso   1.00
O147   O     0.44194   0.10097   0.08967   0.00000  Uiso   1.00
C148   C     0.46488   0.06169   0.08298   0.00000  Uiso   1.00
H149   H     0.50539   0.06454   0.06575   0.00000  Uiso   1.00
H150   H     0.45081   0.04068   0.06234   0.00000  Uiso   1.00
H151   H     0.45635   0.04709   0.11784   0.00000  Uiso   1.00
O152   O     0.57684   0.15489   0.39500   0.00000  Uiso   1.00
C153   C     0.57618   0.11328   0.38032   0.00000  Uiso   1.00
H154   H     0.53857   0.10291   0.38604   0.00000  Uiso   1.00
H155   H     0.59244   0.09128   0.39811   0.00000  Uiso   1.00
H156   H     0.59815   0.11147   0.34206   0.00000  Uiso   1.00
C157   C     0.83337   0.24668   0.24995   0.00000  Uiso   1.00
C158   C     0.83346   0.08666   0.24968   0.00000  Uiso   1.00
C159   C     0.78558   0.11918   0.04628   0.00000  Uiso   1.00
C160   C     0.89291   0.15627   0.44355   0.00000  Uiso   1.00
C161   C     0.75145   0.11362   0.02573   0.00000  Uiso   1.00
C162   C     0.92698   0.16323   0.46371   0.00000  Uiso   1.00
C163   C     0.86869   0.31201   0.26105   0.00000  Uiso   1.00
C164   C     0.79845   0.02136   0.23804   0.00000  Uiso   1.00
C165   C     0.86873   0.02133   0.26095   0.00000  Uiso   1.00
C166   C     0.79836   0.31203   0.23820   0.00000  Uiso   1.00
C167   C     0.83359   0.04251   0.24949   0.00000  Uiso   1.00
C168   C     0.83346   0.29085   0.24974   0.00000  Uiso   1.00
C169   C     0.98467   0.13549   0.22854   0.00000  Uiso   1.00
C170   C     0.68192   0.19774   0.27166   0.00000  Uiso   1.00
C171   C     0.69927   0.13557   0.22842   0.00000  Uiso   1.00
C172   C     0.96735   0.19771   0.27169   0.00000  Uiso   1.00
C173   C     0.80237   0.16461   0.33818   0.00000  Uiso   1.00
C174   C     0.86423   0.16736   0.16154   0.00000  Uiso   1.00
C175   C     0.78197   0.15621   0.38884   0.00000  Uiso   1.00
C176   C     0.88408   0.16614   0.10981   0.00000  Uiso   1.00
C177   C     0.72802   0.12030   0.45906   0.00000  Uiso   1.00
C178   C     0.94719   0.17266   0.03166   0.00000  Uiso   1.00
C179   C     0.74015   0.13078   0.41178   0.00000  Uiso   1.00
C180   C     0.93356   0.17451   0.08035   0.00000  Uiso   1.00
C181   C     0.81087   0.16819   0.41313   0.00000  Uiso   1.00
C182   C     0.85060   0.15604   0.08946   0.00000  Uiso   1.00
C183   C     0.80515   0.14909   0.45554   0.00000  Uiso   1.00
C184   C     0.86470   0.15157   0.04118   0.00000  Uiso   1.00
C185   C     0.76081   0.12848   0.48071   0.00000  Uiso   1.00
C186   C     0.91311   0.16228   0.01212   0.00000  Uiso   1.00
C187   C     0.84284   0.14949   0.47296   0.00000  Uiso   1.00
C188   C     0.83066   0.14026   0.02103   0.00000  Uiso   1.00
H189   H     0.71787   0.09686   0.04496   0.00000  Uiso   1.00
H190   H     0.96437   0.17036   0.44152   0.00000  Uiso   1.00
H191   H     0.81240   0.15397   0.11171   0.00000  Uiso   1.00
H192   H     0.84055   0.18986   0.39668   0.00000  Uiso   1.00
H193   H     0.69535   0.10228   0.47777   0.00000  Uiso   1.00
H194   H     0.98437   0.18018   0.00864   0.00000  Uiso   1.00
H195   H     0.89578   0.29573   0.27034   0.00000  Uiso   1.00
H196   H     0.77136   0.03766   0.22876   0.00000  Uiso   1.00
H197   H     0.89584   0.03759   0.27021   0.00000  Uiso   1.00
H198   H     0.77122   0.29576   0.22902   0.00000  Uiso   1.00
H199   H     0.97351   0.11053   0.21134   0.00000  Uiso   1.00
H200   H     0.69297   0.22254   0.28914   0.00000  Uiso   1.00
H201   H     0.72431   0.11072   0.21101   0.00000  Uiso   1.00
H202   H     0.94229   0.22250   0.28916   0.00000  Uiso   1.00
N203   N     0.71426   0.16668   0.25001   0.00000  Uiso   1.00
N204   N     0.95241   0.16666   0.24999   0.00000  Uiso   1.00
O205   O     0.79512   0.22775   0.25001   0.00000  Uiso   1.00
O206   O     0.87154   0.10558   0.24999   0.00000  Uiso   1.00
O207   O     0.87157   0.22774   0.25000   0.00000  Uiso   1.00
O208   O     0.79510   0.10559   0.25000   0.00000  Uiso   1.00
O209   O     0.77328   0.16667   0.31612   0.00000  Uiso   1.00
O210   O     0.89339   0.16666   0.18388   0.00000  Uiso   1.00
O211   O     0.84972   0.16666   0.31612   0.00000  Uiso   1.00
O212   O     0.81695   0.16667   0.18388   0.00000  Uiso   1.00
Zn213  Zn    0.78229   0.16667   0.25000   0.00000  Uiso   1.00
Zn214  Zn    0.88438   0.16666   0.25000   0.00000  Uiso   1.00
S215   S     0.97890   0.18966   0.10168   0.00000  Uiso   1.00
O216   O     0.99131   0.15292   0.12525   0.00000  Uiso   1.00
O217   O     0.69120   0.20412   0.06215   0.00000  Uiso   1.00
O218   O     0.95762   0.22878   0.14044   0.00000  Uiso   1.00
H219   H     0.97966   0.22959   0.15781   0.00000  Uiso   1.00
S220   S     0.70779   0.10481   0.38177   0.00000  Uiso   1.00
O221   O     0.74291   0.07693   0.34531   0.00000  Uiso   1.00
O222   O     0.66779   0.07837   0.41552   0.00000  Uiso   1.00
O223   O     0.68301   0.13823   0.35509   0.00000  Uiso   1.00
H224   H     0.68497   0.16606   0.36793   0.00000  Uiso   1.00
O225   O     0.77527   0.10097   0.08967   0.00000  Uiso   1.00
C226   C     0.79822   0.06169   0.08298   0.00000  Uiso   1.00
H227   H     0.83872   0.06454   0.06575   0.00000  Uiso   1.00
H228   H     0.78415   0.04068   0.06234   0.00000  Uiso   1.00
H229   H     0.78968   0.04709   0.11784   0.00000  Uiso   1.00
O230   O     0.91018   0.15489   0.39500   0.00000  Uiso   1.00
C231   C     0.90951   0.11328   0.38032   0.00000  Uiso   1.00
H232   H     0.87191   0.10291   0.38604   0.00000  Uiso   1.00
H233   H     0.92578   0.09128   0.39811   0.00000  Uiso   1.00
H234   H     0.93148   0.11147   0.34206   0.00000  Uiso   1.00
C235   C     0.16670   0.58002   0.24995   0.00000  Uiso   1.00
C236   C     0.16680   0.41999   0.24968   0.00000  Uiso   1.00
C237   C     0.11892   0.45251   0.04628   0.00000  Uiso   1.00
C238   C     0.22624   0.48960   0.44355   0.00000  Uiso   1.00
C239   C     0.08479   0.44695   0.02573   0.00000  Uiso   1.00
C240   C     0.26031   0.49657   0.46371   0.00000  Uiso   1.00
C241   C     0.20202   0.64534   0.26105   0.00000  Uiso   1.00
C242   C     0.13178   0.35469   0.23804   0.00000  Uiso   1.00
C243   C     0.20207   0.35466   0.26095   0.00000  Uiso   1.00
C244   C     0.13170   0.64536   0.23820   0.00000  Uiso   1.00
C245   C     0.16692   0.37584   0.24949   0.00000  Uiso   1.00
C246   C     0.16680   0.62418   0.24974   0.00000  Uiso   1.00
C247   C     0.31800   0.46883   0.22854   0.00000  Uiso   1.00
C248   C     0.01525   0.53107   0.27166   0.00000  Uiso   1.00
C249   C     0.03260   0.46890   0.22842   0.00000  Uiso   1.00
C250   C     0.30069   0.53104   0.27169   0.00000  Uiso   1.00
C251   C     0.13570   0.49794   0.33818   0.00000  Uiso   1.00
C252   C     0.19756   0.50069   0.16154   0.00000  Uiso   1.00
C253   C     0.11531   0.48955   0.38884   0.00000  Uiso   1.00
C254   C     0.21741   0.49947   0.10981   0.00000  Uiso   1.00
C255   C     0.06135   0.45363   0.45906   0.00000  Uiso   1.00
C256   C     0.28053   0.50600   0.03166   0.00000  Uiso   1.00
C257   C     0.07348   0.46411   0.41178   0.00000  Uiso   1.00
C258   C     0.26689   0.50784   0.08035   0.00000  Uiso   1.00
C259   C     0.14420   0.50152   0.41313   0.00000  Uiso   1.00
C260   C     0.18393   0.48938   0.08946   0.00000  Uiso   1.00
C261   C     0.13849   0.48242   0.45554   0.00000  Uiso   1.00
C262   C     0.19803   0.48491   0.04118   0.00000  Uiso   1.00
C263   C     0.09414   0.46181   0.48071   0.00000  Uiso   1.00
C264   C     0.24645   0.49562   0.01212   0.00000  Uiso   1.00
C265   C     0.17617   0.48282   0.47296   0.00000  Uiso   1.00
C266   C     0.16400   0.47359   0.02103   0.00000  Uiso   1.00
H267   H     0.05120   0.43020   0.04496   0.00000  Uiso   1.00
H268   H     0.29770   0.50369   0.44152   0.00000  Uiso   1.00
H269   H     0.14573   0.48730   0.11171   0.00000  Uiso   1.00
H270   H     0.17388   0.52319   0.39668   0.00000  Uiso   1.00
H271   H     0.02868   0.43562   0.47777   0.00000  Uiso   1.00
H272   H     0.31770   0.51352   0.00864   0.00000  Uiso   1.00
H273   H     0.22912   0.62906   0.27034   0.00000  Uiso   1.00
H274   H     0.10470   0.37099   0.22876   0.00000  Uiso   1.00
H275   H     0.22917   0.37093   0.27021   0.00000  Uiso   1.00
H276   H     0.10455   0.62909   0.22902   0.00000  Uiso   1.00
H277   H     0.30685   0.44386   0.21134   0.00000  Uiso   1.00
H278   H     0.02631   0.55588   0.28914   0.00000  Uiso   1.00
H279   H     0.05764   0.44405   0.21101   0.00000  Uiso   1.00
H280   H     0.27562   0.55584   0.28916   0.00000  Uiso   1.00
N281   N     0.04759   0.50001   0.25001   0.00000  Uiso   1.00
N282   N     0.28574   0.49999   0.24999   0.00000  Uiso   1.00
O283   O     0.12846   0.56108   0.25001   0.00000  Uiso   1.00
O284   O     0.20488   0.43892   0.24999   0.00000  Uiso   1.00
O285   O     0.20490   0.56107   0.25000   0.00000  Uiso   1.00
O286   O     0.12843   0.43893   0.25000   0.00000  Uiso   1.00
O287   O     0.10661   0.50001   0.31612   0.00000  Uiso   1.00
O288   O     0.22672   0.49999   0.18388   0.00000  Uiso   1.00
O289   O     0.18305   0.50000   0.31612   0.00000  Uiso   1.00
O290   O     0.15028   0.50000   0.18388   0.00000  Uiso   1.00
Zn291  Zn    0.11562   0.50001   0.25000   0.00000  Uiso   1.00
Zn292  Zn    0.21771   0.49999   0.25000   0.00000  Uiso   1.00
S293   S     0.31224   0.52300   0.10168   0.00000  Uiso   1.00
O294   O     0.32464   0.48625   0.12525   0.00000  Uiso   1.00
O295   O     0.02454   0.53745   0.06215   0.00000  Uiso   1.00
O296   O     0.29096   0.56211   0.14044   0.00000  Uiso   1.00
H297   H     0.31299   0.56292   0.15781   0.00000  Uiso   1.00
S298   S     0.04113   0.43814   0.38177   0.00000  Uiso   1.00
O299   O     0.07624   0.41026   0.34531   0.00000  Uiso   1.00
O300   O     0.00112   0.41170   0.41552   0.00000  Uiso   1.00
O301   O     0.01634   0.47157   0.35509   0.00000  Uiso   1.00
H302   H     0.01830   0.49940   0.36793   0.00000  Uiso   1.00
O303   O     0.10860   0.43430   0.08967   0.00000  Uiso   1.00
C304   C     0.13155   0.39503   0.08298   0.00000  Uiso   1.00
H305   H     0.17205   0.39788   0.06575   0.00000  Uiso   1.00
H306   H     0.11748   0.37402   0.06234   0.00000  Uiso   1.00
H307   H     0.12301   0.38042   0.11784   0.00000  Uiso   1.00
O308   O     0.24351   0.48823   0.39500   0.00000  Uiso   1.00
C309   C     0.24284   0.44662   0.38032   0.00000  Uiso   1.00
H310   H     0.20524   0.43625   0.38604   0.00000  Uiso   1.00
H311   H     0.25911   0.42461   0.39811   0.00000  Uiso   1.00
H312   H     0.26481   0.44481   0.34206   0.00000  Uiso   1.00
C313   C     0.50003   0.58002   0.24995   0.00000  Uiso   1.00
C314   C     0.50013   0.41999   0.24968   0.00000  Uiso   1.00
C315   C     0.45225   0.45251   0.04628   0.00000  Uiso   1.00
C316   C     0.55958   0.48960   0.44355   0.00000  Uiso   1.00
C317   C     0.41812   0.44695   0.02573   0.00000  Uiso   1.00
C318   C     0.59364   0.49657   0.46371   0.00000  Uiso   1.00
C319   C     0.53536   0.64534   0.26105   0.00000  Uiso   1.00
C320   C     0.46511   0.35469   0.23804   0.00000  Uiso   1.00
C321   C     0.53540   0.35466   0.26095   0.00000  Uiso   1.00
C322   C     0.46503   0.64536   0.23820   0.00000  Uiso   1.00
C323   C     0.50025   0.37584   0.24949   0.00000  Uiso   1.00
C324   C     0.50013   0.62418   0.24974   0.00000  Uiso   1.00
C325   C     0.65133   0.46883   0.22854   0.00000  Uiso   1.00
C326   C     0.34859   0.53107   0.27166   0.00000  Uiso   1.00
C327   C     0.36593   0.46890   0.22842   0.00000  Uiso   1.00
C328   C     0.63402   0.53104   0.27169   0.00000  Uiso   1.00
C329   C     0.46904   0.49794   0.33818   0.00000  Uiso   1.00
C330   C     0.53090   0.50069   0.16154   0.00000  Uiso   1.00
C331   C     0.44864   0.48955   0.38884   0.00000  Uiso   1.00
C332   C     0.55074   0.49947   0.10981   0.00000  Uiso   1.00
C333   C     0.39469   0.45363   0.45906   0.00000  Uiso   1.00
C334   C     0.61386   0.50600   0.03166   0.00000  Uiso   1.00
C335   C     0.40681   0.46411   0.41178   0.00000  Uiso   1.00
C336   C     0.60023   0.50784   0.08035   0.00000  Uiso   1.00
C337   C     0.47754   0.50152   0.41313   0.00000  Uiso   1.00
C338   C     0.51726   0.48938   0.08946   0.00000  Uiso   1.00
C339   C     0.47182   0.48242   0.45554   0.00000  Uiso   1.00
C340   C     0.53137   0.48491   0.04118   0.00000  Uiso   1.00
C341   C     0.42747   0.46181   0.48071   0.00000  Uiso   1.00
C342   C     0.57978   0.49562   0.01212   0.00000  Uiso   1.00
C343   C     0.50950   0.48282   0.47296   0.00000  Uiso   1.00
C344   C     0.49733   0.47359   0.02103   0.00000  Uiso   1.00
H345   H     0.38453   0.43020   0.04496   0.00000  Uiso   1.00
H346   H     0.63104   0.50369   0.44152   0.00000  Uiso   1.00
H347   H     0.47907   0.48730   0.11171   0.00000  Uiso   1.00
H348   H     0.50722   0.52319   0.39668   0.00000  Uiso   1.00
H349   H     0.36202   0.43562   0.47777   0.00000  Uiso   1.00
H350   H     0.65104   0.51352   0.00864   0.00000  Uiso   1.00
H351   H     0.56245   0.62906   0.27034   0.00000  Uiso   1.00
H352   H     0.43803   0.37099   0.22876   0.00000  Uiso   1.00
H353   H     0.56250   0.37093   0.27021   0.00000  Uiso   1.00
H354   H     0.43788   0.62909   0.22902   0.00000  Uiso   1.00
H355   H     0.64018   0.44386   0.21134   0.00000  Uiso   1.00
H356   H     0.35964   0.55588   0.28914   0.00000  Uiso   1.00
H357   H     0.39097   0.44405   0.21101   0.00000  Uiso   1.00
H358   H     0.60895   0.55584   0.28916   0.00000  Uiso   1.00
N359   N     0.38093   0.50001   0.25001   0.00000  Uiso   1.00
N360   N     0.61907   0.49999   0.24999   0.00000  Uiso   1.00
O361   O     0.46179   0.56108   0.25001   0.00000  Uiso   1.00
O362   O     0.53821   0.43892   0.24999   0.00000  Uiso   1.00
O363   O     0.53823   0.56107   0.25000   0.00000  Uiso   1.00
O364   O     0.46177   0.43893   0.25000   0.00000  Uiso   1.00
O365   O     0.43994   0.50001   0.31612   0.00000  Uiso   1.00
O366   O     0.56006   0.49999   0.18388   0.00000  Uiso   1.00
O367   O     0.51639   0.50000   0.31612   0.00000  Uiso   1.00
O368   O     0.48361   0.50000   0.18388   0.00000  Uiso   1.00
Zn369  Zn    0.44896   0.50001   0.25000   0.00000  Uiso   1.00
Zn370  Zn    0.55104   0.49999   0.25000   0.00000  Uiso   1.00
S371   S     0.64557   0.52300   0.10168   0.00000  Uiso   1.00
O372   O     0.65797   0.48625   0.12525   0.00000  Uiso   1.00
O373   O     0.35787   0.53745   0.06215   0.00000  Uiso   1.00
O374   O     0.62429   0.56211   0.14044   0.00000  Uiso   1.00
H375   H     0.64632   0.56292   0.15781   0.00000  Uiso   1.00
S376   S     0.37446   0.43814   0.38177   0.00000  Uiso   1.00
O377   O     0.40957   0.41026   0.34531   0.00000  Uiso   1.00
O378   O     0.33446   0.41170   0.41552   0.00000  Uiso   1.00
O379   O     0.34967   0.47157   0.35509   0.00000  Uiso   1.00
H380   H     0.35164   0.49940   0.36793   0.00000  Uiso   1.00
O381   O     0.44194   0.43430   0.08967   0.00000  Uiso   1.00
C382   C     0.46488   0.39503   0.08298   0.00000  Uiso   1.00
H383   H     0.50539   0.39788   0.06575   0.00000  Uiso   1.00
H384   H     0.45081   0.37402   0.06234   0.00000  Uiso   1.00
H385   H     0.45635   0.38042   0.11784   0.00000  Uiso   1.00
O386   O     0.57684   0.48823   0.39500   0.00000  Uiso   1.00
C387   C     0.57618   0.44662   0.38032   0.00000  Uiso   1.00
H388   H     0.53857   0.43625   0.38604   0.00000  Uiso   1.00
H389   H     0.59244   0.42461   0.39811   0.00000  Uiso   1.00
H390   H     0.59815   0.44481   0.34206   0.00000  Uiso   1.00
C391   C     0.83337   0.58002   0.24995   0.00000  Uiso   1.00
C392   C     0.83346   0.41999   0.24968   0.00000  Uiso   1.00
C393   C     0.78558   0.45251   0.04628   0.00000  Uiso   1.00
C394   C     0.89291   0.48960   0.44355   0.00000  Uiso   1.00
C395   C     0.75145   0.44695   0.02573   0.00000  Uiso   1.00
C396   C     0.92698   0.49657   0.46371   0.00000  Uiso   1.00
C397   C     0.86869   0.64534   0.26105   0.00000  Uiso   1.00
C398   C     0.79845   0.35469   0.23804   0.00000  Uiso   1.00
C399   C     0.86873   0.35466   0.26095   0.00000  Uiso   1.00
C400   C     0.79836   0.64536   0.23820   0.00000  Uiso   1.00
C401   C     0.83359   0.37584   0.24949   0.00000  Uiso   1.00
C402   C     0.83346   0.62418   0.24974   0.00000  Uiso   1.00
C403   C     0.98467   0.46883   0.22854   0.00000  Uiso   1.00
C404   C     0.68192   0.53107   0.27166   0.00000  Uiso   1.00
C405   C     0.69927   0.46890   0.22842   0.00000  Uiso   1.00
C406   C     0.96735   0.53104   0.27169   0.00000  Uiso   1.00
C407   C     0.80237   0.49794   0.33818   0.00000  Uiso   1.00
C408   C     0.86423   0.50069   0.16154   0.00000  Uiso   1.00
C409   C     0.78197   0.48955   0.38884   0.00000  Uiso   1.00
C410   C     0.88408   0.49947   0.10981   0.00000  Uiso   1.00
C411   C     0.72802   0.45363   0.45906   0.00000  Uiso   1.00
C412   C     0.94719   0.50600   0.03166   0.00000  Uiso   1.00
C413   C     0.74015   0.46411   0.41178   0.00000  Uiso   1.00
C414   C     0.93356   0.50784   0.08035   0.00000  Uiso   1.00
C415   C     0.81087   0.50152   0.41313   0.00000  Uiso   1.00
C416   C     0.85060   0.48938   0.08946   0.00000  Uiso   1.00
C417   C     0.80515   0.48242   0.45554   0.00000  Uiso   1.00
C418   C     0.86470   0.48491   0.04118   0.00000  Uiso   1.00
C419   C     0.76081   0.46181   0.48071   0.00000  Uiso   1.00
C420   C     0.91311   0.49562   0.01212   0.00000  Uiso   1.00
C421   C     0.84284   0.48282   0.47296   0.00000  Uiso   1.00
C422   C     0.83066   0.47359   0.02103   0.00000  Uiso   1.00
H423   H     0.71787   0.43020   0.04496   0.00000  Uiso   1.00
H424   H     0.96437   0.50369   0.44152   0.00000  Uiso   1.00
H425   H     0.81240   0.48730   0.11171   0.00000  Uiso   1.00
H426   H     0.84055   0.52319   0.39668   0.00000  Uiso   1.00
H427   H     0.69535   0.43562   0.47777   0.00000  Uiso   1.00
H428   H     0.98437   0.51352   0.00864   0.00000  Uiso   1.00
H429   H     0.89578   0.62906   0.27034   0.00000  Uiso   1.00
H430   H     0.77136   0.37099   0.22876   0.00000  Uiso   1.00
H431   H     0.89584   0.37093   0.27021   0.00000  Uiso   1.00
H432   H     0.77122   0.62909   0.22902   0.00000  Uiso   1.00
H433   H     0.97351   0.44386   0.21134   0.00000  Uiso   1.00
H434   H     0.69297   0.55588   0.28914   0.00000  Uiso   1.00
H435   H     0.72431   0.44405   0.21101   0.00000  Uiso   1.00
H436   H     0.94229   0.55584   0.28916   0.00000  Uiso   1.00
N437   N     0.71426   0.50001   0.25001   0.00000  Uiso   1.00
N438   N     0.95241   0.49999   0.24999   0.00000  Uiso   1.00
O439   O     0.79512   0.56108   0.25001   0.00000  Uiso   1.00
O440   O     0.87154   0.43892   0.24999   0.00000  Uiso   1.00
O441   O     0.87157   0.56107   0.25000   0.00000  Uiso   1.00
O442   O     0.79510   0.43893   0.25000   0.00000  Uiso   1.00
O443   O     0.77328   0.50001   0.31612   0.00000  Uiso   1.00
O444   O     0.89339   0.49999   0.18388   0.00000  Uiso   1.00
O445   O     0.84972   0.50000   0.31612   0.00000  Uiso   1.00
O446   O     0.81695   0.50000   0.18388   0.00000  Uiso   1.00
Zn447  Zn    0.78229   0.50001   0.25000   0.00000  Uiso   1.00
Zn448  Zn    0.88438   0.49999   0.25000   0.00000  Uiso   1.00
S449   S     0.97890   0.52300   0.10168   0.00000  Uiso   1.00
O450   O     0.99131   0.48625   0.12525   0.00000  Uiso   1.00
O451   O     0.69120   0.53745   0.06215   0.00000  Uiso   1.00
O452   O     0.95762   0.56211   0.14044   0.00000  Uiso   1.00
H453   H     0.97966   0.56292   0.15781   0.00000  Uiso   1.00
S454   S     0.70779   0.43814   0.38177   0.00000  Uiso   1.00
O455   O     0.74291   0.41026   0.34531   0.00000  Uiso   1.00
O456   O     0.66779   0.41170   0.41552   0.00000  Uiso   1.00
O457   O     0.68301   0.47157   0.35509   0.00000  Uiso   1.00
H458   H     0.68497   0.49940   0.36793   0.00000  Uiso   1.00
O459   O     0.77527   0.43430   0.08967   0.00000  Uiso   1.00
C460   C     0.79822   0.39503   0.08298   0.00000  Uiso   1.00
H461   H     0.83872   0.39788   0.06575   0.00000  Uiso   1.00
H462   H     0.78415   0.37402   0.06234   0.00000  Uiso   1.00
H463   H     0.78968   0.38042   0.11784   0.00000  Uiso   1.00
O464   O     0.91018   0.48823   0.39500   0.00000  Uiso   1.00
C465   C     0.90951   0.44662   0.38032   0.00000  Uiso   1.00
H466   H     0.87191   0.43625   0.38604   0.00000  Uiso   1.00
H467   H     0.92578   0.42461   0.39811   0.00000  Uiso   1.00
H468   H     0.93148   0.44481   0.34206   0.00000  Uiso   1.00
C469   C     0.16670   0.91335   0.24995   0.00000  Uiso   1.00
C470   C     0.16680   0.75333   0.24968   0.00000  Uiso   1.00
C471   C     0.11892   0.78584   0.04628   0.00000  Uiso   1.00
C472   C     0.22624   0.82293   0.44355   0.00000  Uiso   1.00
C473   C     0.08479   0.78028   0.02573   0.00000  Uiso   1.00
C474   C     0.26031   0.82990   0.46371   0.00000  Uiso   1.00
C475   C     0.20202   0.97868   0.26105   0.00000  Uiso   1.00
C476   C     0.13178   0.68802   0.23804   0.00000  Uiso   1.00
C477   C     0.20207   0.68799   0.26095   0.00000  Uiso   1.00
C478   C     0.13170   0.97870   0.23820   0.00000  Uiso   1.00
C479   C     0.16692   0.70918   0.24949   0.00000  Uiso   1.00
C480   C     0.16680   0.95751   0.24974   0.00000  Uiso   1.00
C481   C     0.31800   0.80216   0.22854   0.00000  Uiso   1.00
C482   C     0.01525   0.86440   0.27166   0.00000  Uiso   1.00
C483   C     0.03260   0.80223   0.22842   0.00000  Uiso   1.00
C484   C     0.30069   0.86437   0.27169   0.00000  Uiso   1.00
C485   C     0.13570   0.83128   0.33818   0.00000  Uiso   1.00
C486   C     0.19756   0.83403   0.16154   0.00000  Uiso   1.00
C487   C     0.11531   0.82288   0.38884   0.00000  Uiso   1.00
C488   C     0.21741   0.83281   0.10981   0.00000  Uiso   1.00
C489   C     0.06135   0.78697   0.45906   0.00000  Uiso   1.00
C490   C     0.28053   0.83933   0.03166   0.00000  Uiso   1.00
C491   C     0.07348   0.79745   0.41178   0.00000  Uiso   1.00
C492   C     0.26689   0.84118   0.08035   0.00000  Uiso   1.00
C493   C     0.14420   0.83486   0.41313   0.00000  Uiso   1.00
C494   C     0.18393   0.82271   0.08946   0.00000  Uiso   1.00
C495   C     0.13849   0.81576   0.45554   0.00000  Uiso   1.00
C496   C     0.19803   0.81824   0.04118   0.00000  Uiso   1.00
C497   C     0.09414   0.79515   0.48071   0.00000  Uiso   1.00
C498   C     0.24645   0.82895   0.01212   0.00000  Uiso   1.00
C499   C     0.17617   0.81615   0.47296   0.00000  Uiso   1.00
C500   C     0.16400   0.80693   0.02103   0.00000  Uiso   1.00
H501   H     0.05120   0.76353   0.04496   0.00000  Uiso   1.00
H502   H     0.29770   0.83702   0.44152   0.00000  Uiso   1.00
H503   H     0.14573   0.82064   0.11171   0.00000  Uiso   1.00
H504   H     0.17388   0.85653   0.39668   0.00000  Uiso   1.00
H505   H     0.02868   0.76895   0.47777   0.00000  Uiso   1.00
H506   H     0.31770   0.84685   0.00864   0.00000  Uiso   1.00
H507   H     0.22912   0.96239   0.27034   0.00000  Uiso   1.00
H508   H     0.10470   0.70433   0.22876   0.00000  Uiso   1.00
H509   H     0.22917   0.70426   0.27021   0.00000  Uiso   1.00
H510   H     0.10455   0.96242   0.22902   0.00000  Uiso   1.00
H511   H     0.30685   0.77720   0.21134   0.00000  Uiso   1.00
H512   H     0.02631   0.88921   0.28914   0.00000  Uiso   1.00
H513   H     0.05764   0.77739   0.21101   0.00000  Uiso   1.00
H514   H     0.27562   0.88917   0.28916   0.00000  Uiso   1.00
N515   N     0.04759   0.83334   0.25001   0.00000  Uiso   1.00
N516   N     0.28574   0.83332   0.24999   0.00000  Uiso   1.00
O517   O     0.12846   0.89442   0.25001   0.00000  Uiso   1.00
O518   O     0.20488   0.77225   0.24999   0.00000  Uiso   1.00
O519   O     0.20490   0.89441   0.25000   0.00000  Uiso   1.00
O520   O     0.12843   0.77226   0.25000   0.00000  Uiso   1.00
O521   O     0.10661   0.83334   0.31612   0.00000  Uiso   1.00
O522   O     0.22672   0.83333   0.18388   0.00000  Uiso   1.00
O523   O     0.18305   0.83333   0.31612   0.00000  Uiso   1.00
O524   O     0.15028   0.83334   0.18388   0.00000  Uiso   1.00
Zn525  Zn    0.11562   0.83334   0.25000   0.00000  Uiso   1.00
Zn526  Zn    0.21771   0.83333   0.25000   0.00000  Uiso   1.00
S527   S     0.31224   0.85633   0.10168   0.00000  Uiso   1.00
O528   O     0.32464   0.81959   0.12525   0.00000  Uiso   1.00
O529   O     0.02454   0.87078   0.06215   0.00000  Uiso   1.00
O530   O     0.29096   0.89544   0.14044   0.00000  Uiso   1.00
H531   H     0.31299   0.89626   0.15781   0.00000  Uiso   1.00
S532   S     0.04113   0.77148   0.38177   0.00000  Uiso   1.00
O533   O     0.07624   0.74360   0.34531   0.00000  Uiso   1.00
O534   O     0.00112   0.74504   0.41552   0.00000  Uiso   1.00
O535   O     0.01634   0.80490   0.35509   0.00000  Uiso   1.00
H536   H     0.01830   0.83273   0.36793   0.00000  Uiso   1.00
O537   O     0.10860   0.76764   0.08967   0.00000  Uiso   1.00
C538   C     0.13155   0.72836   0.08298   0.00000  Uiso   1.00
H539   H     0.17205   0.73121   0.06575   0.00000  Uiso   1.00
H540   H     0.11748   0.70735   0.06234   0.00000  Uiso   1.00
H541   H     0.12301   0.71375   0.11784   0.00000  Uiso   1.00
O542   O     0.24351   0.82156   0.39500   0.00000  Uiso   1.00
C543   C     0.24284   0.77995   0.38032   0.00000  Uiso   1.00
H544   H     0.20524   0.76958   0.38604   0.00000  Uiso   1.00
H545   H     0.25911   0.75795   0.39811   0.00000  Uiso   1.00
H546   H     0.26481   0.77814   0.34206   0.00000  Uiso   1.00
C547   C     0.50003   0.91335   0.24995   0.00000  Uiso   1.00
C548   C     0.50013   0.75333   0.24968   0.00000  Uiso   1.00
C549   C     0.45225   0.78584   0.04628   0.00000  Uiso   1.00
C550   C     0.55958   0.82293   0.44355   0.00000  Uiso   1.00
C551   C     0.41812   0.78028   0.02573   0.00000  Uiso   1.00
C552   C     0.59364   0.82990   0.46371   0.00000  Uiso   1.00
C553   C     0.53536   0.97868   0.26105   0.00000  Uiso   1.00
C554   C     0.46511   0.68802   0.23804   0.00000  Uiso   1.00
C555   C     0.53540   0.68799   0.26095   0.00000  Uiso   1.00
C556   C     0.46503   0.97870   0.23820   0.00000  Uiso   1.00
C557   C     0.50025   0.70918   0.24949   0.00000  Uiso   1.00
C558   C     0.50013   0.95751   0.24974   0.00000  Uiso   1.00
C559   C     0.65133   0.80216   0.22854   0.00000  Uiso   1.00
C560   C     0.34859   0.86440   0.27166   0.00000  Uiso   1.00
C561   C     0.36593   0.80223   0.22842   0.00000  Uiso   1.00
C562   C     0.63402   0.86437   0.27169   0.00000  Uiso   1.00
C563   C     0.46904   0.83128   0.33818   0.00000  Uiso   1.00
C564   C     0.53090   0.83403   0.16154   0.00000  Uiso   1.00
C565   C     0.44864   0.82288   0.38884   0.00000  Uiso   1.00
C566   C     0.55074   0.83281   0.10981   0.00000  Uiso   1.00
C567   C     0.39469   0.78697   0.45906   0.00000  Uiso   1.00
C568   C     0.61386   0.83933   0.03166   0.00000  Uiso   1.00
C569   C     0.40681   0.79745   0.41178   0.00000  Uiso   1.00
C570   C     0.60023   0.84118   0.08035   0.00000  Uiso   1.00
C571   C     0.47754   0.83486   0.41313   0.00000  Uiso   1.00
C572   C     0.51726   0.82271   0.08946   0.00000  Uiso   1.00
C573   C     0.47182   0.81576   0.45554   0.00000  Uiso   1.00
C574   C     0.53137   0.81824   0.04118   0.00000  Uiso   1.00
C575   C     0.42747   0.79515   0.48071   0.00000  Uiso   1.00
C576   C     0.57978   0.82895   0.01212   0.00000  Uiso   1.00
C577   C     0.50950   0.81615   0.47296   0.00000  Uiso   1.00
C578   C     0.49733   0.80693   0.02103   0.00000  Uiso   1.00
H579   H     0.38453   0.76353   0.04496   0.00000  Uiso   1.00
H580   H     0.63104   0.83702   0.44152   0.00000  Uiso   1.00
H581   H     0.47907   0.82064   0.11171   0.00000  Uiso   1.00
H582   H     0.50722   0.85653   0.39668   0.00000  Uiso   1.00
H583   H     0.36202   0.76895   0.47777   0.00000  Uiso   1.00
H584   H     0.65104   0.84685   0.00864   0.00000  Uiso   1.00
H585   H     0.56245   0.96239   0.27034   0.00000  Uiso   1.00
H586   H     0.43803   0.70433   0.22876   0.00000  Uiso   1.00
H587   H     0.56250   0.70426   0.27021   0.00000  Uiso   1.00
H588   H     0.43788   0.96242   0.22902   0.00000  Uiso   1.00
H589   H     0.64018   0.77720   0.21134   0.00000  Uiso   1.00
H590   H     0.35964   0.88921   0.28914   0.00000  Uiso   1.00
H591   H     0.39097   0.77739   0.21101   0.00000  Uiso   1.00
H592   H     0.60895   0.88917   0.28916   0.00000  Uiso   1.00
N593   N     0.38093   0.83334   0.25001   0.00000  Uiso   1.00
N594   N     0.61907   0.83332   0.24999   0.00000  Uiso   1.00
O595   O     0.46179   0.89442   0.25001   0.00000  Uiso   1.00
O596   O     0.53821   0.77225   0.24999   0.00000  Uiso   1.00
O597   O     0.53823   0.89441   0.25000   0.00000  Uiso   1.00
O598   O     0.46177   0.77226   0.25000   0.00000  Uiso   1.00
O599   O     0.43994   0.83334   0.31612   0.00000  Uiso   1.00
O600   O     0.56006   0.83333   0.18388   0.00000  Uiso   1.00
O601   O     0.51639   0.83333   0.31612   0.00000  Uiso   1.00
O602   O     0.48361   0.83334   0.18388   0.00000  Uiso   1.00
Zn603  Zn    0.44896   0.83334   0.25000   0.00000  Uiso   1.00
Zn604  Zn    0.55104   0.83333   0.25000   0.00000  Uiso   1.00
S605   S     0.64557   0.85633   0.10168   0.00000  Uiso   1.00
O606   O     0.65797   0.81959   0.12525   0.00000  Uiso   1.00
O607   O     0.35787   0.87078   0.06215   0.00000  Uiso   1.00
O608   O     0.62429   0.89544   0.14044   0.00000  Uiso   1.00
H609   H     0.64632   0.89626   0.15781   0.00000  Uiso   1.00
S610   S     0.37446   0.77148   0.38177   0.00000  Uiso   1.00
O611   O     0.40957   0.74360   0.34531   0.00000  Uiso   1.00
O612   O     0.33446   0.74504   0.41552   0.00000  Uiso   1.00
O613   O     0.34967   0.80490   0.35509   0.00000  Uiso   1.00
H614   H     0.35164   0.83273   0.36793   0.00000  Uiso   1.00
O615   O     0.44194   0.76764   0.08967   0.00000  Uiso   1.00
C616   C     0.46488   0.72836   0.08298   0.00000  Uiso   1.00
H617   H     0.50539   0.73121   0.06575   0.00000  Uiso   1.00
H618   H     0.45081   0.70735   0.06234   0.00000  Uiso   1.00
H619   H     0.45635   0.71375   0.11784   0.00000  Uiso   1.00
O620   O     0.57684   0.82156   0.39500   0.00000  Uiso   1.00
C621   C     0.57618   0.77995   0.38032   0.00000  Uiso   1.00
H622   H     0.53857   0.76958   0.38604   0.00000  Uiso   1.00
H623   H     0.59244   0.75795   0.39811   0.00000  Uiso   1.00
H624   H     0.59815   0.77814   0.34206   0.00000  Uiso   1.00
C625   C     0.83337   0.91335   0.24995   0.00000  Uiso   1.00
C626   C     0.83346   0.75333   0.24968   0.00000  Uiso   1.00
C627   C     0.78558   0.78584   0.04628   0.00000  Uiso   1.00
C628   C     0.89291   0.82293   0.44355   0.00000  Uiso   1.00
C629   C     0.75145   0.78028   0.02573   0.00000  Uiso   1.00
C630   C     0.92698   0.82990   0.46371   0.00000  Uiso   1.00
C631   C     0.86869   0.97868   0.26105   0.00000  Uiso   1.00
C632   C     0.79845   0.68802   0.23804   0.00000  Uiso   1.00
C633   C     0.86873   0.68799   0.26095   0.00000  Uiso   1.00
C634   C     0.79836   0.97870   0.23820   0.00000  Uiso   1.00
C635   C     0.83359   0.70918   0.24949   0.00000  Uiso   1.00
C636   C     0.83346   0.95751   0.24974   0.00000  Uiso   1.00
C637   C     0.98467   0.80216   0.22854   0.00000  Uiso   1.00
C638   C     0.68192   0.86440   0.27166   0.00000  Uiso   1.00
C639   C     0.69927   0.80223   0.22842   0.00000  Uiso   1.00
C640   C     0.96735   0.86437   0.27169   0.00000  Uiso   1.00
C641   C     0.80237   0.83128   0.33818   0.00000  Uiso   1.00
C642   C     0.86423   0.83403   0.16154   0.00000  Uiso   1.00
C643   C     0.78197   0.82288   0.38884   0.00000  Uiso   1.00
C644   C     0.88408   0.83281   0.10981   0.00000  Uiso   1.00
C645   C     0.72802   0.78697   0.45906   0.00000  Uiso   1.00
C646   C     0.94719   0.83933   0.03166   0.00000  Uiso   1.00
C647   C     0.74015   0.79745   0.41178   0.00000  Uiso   1.00
C648   C     0.93356   0.84118   0.08035   0.00000  Uiso   1.00
C649   C     0.81087   0.83486   0.41313   0.00000  Uiso   1.00
C650   C     0.85060   0.82271   0.08946   0.00000  Uiso   1.00
C651   C     0.80515   0.81576   0.45554   0.00000  Uiso   1.00
C652   C     0.86470   0.81824   0.04118   0.00000  Uiso   1.00
C653   C     0.76081   0.79515   0.48071   0.00000  Uiso   1.00
C654   C     0.91311   0.82895   0.01212   0.00000  Uiso   1.00
C655   C     0.84284   0.81615   0.47296   0.00000  Uiso   1.00
C656   C     0.83066   0.80693   0.02103   0.00000  Uiso   1.00
H657   H     0.71787   0.76353   0.04496   0.00000  Uiso   1.00
H658   H     0.96437   0.83702   0.44152   0.00000  Uiso   1.00
H659   H     0.81240   0.82064   0.11171   0.00000  Uiso   1.00
H660   H     0.84055   0.85653   0.39668   0.00000  Uiso   1.00
H661   H     0.69535   0.76895   0.47777   0.00000  Uiso   1.00
H662   H     0.98437   0.84685   0.00864   0.00000  Uiso   1.00
H663   H     0.89578   0.96239   0.27034   0.00000  Uiso   1.00
H664   H     0.77136   0.70433   0.22876   0.00000  Uiso   1.00
H665   H     0.89584   0.70426   0.27021   0.00000  Uiso   1.00
H666   H     0.77122   0.96242   0.22902   0.00000  Uiso   1.00
H667   H     0.97351   0.77720   0.21134   0.00000  Uiso   1.00
H668   H     0.69297   0.88921   0.28914   0.00000  Uiso   1.00
H669   H     0.72431   0.77739   0.21101   0.00000  Uiso   1.00
H670   H     0.94229   0.88917   0.28916   0.00000  Uiso   1.00
N671   N     0.71426   0.83334   0.25001   0.00000  Uiso   1.00
N672   N     0.95241   0.83332   0.24999   0.00000  Uiso   1.00
O673   O     0.79512   0.89442   0.25001   0.00000  Uiso   1.00
O674   O     0.87154   0.77225   0.24999   0.00000  Uiso   1.00
O675   O     0.87157   0.89441   0.25000   0.00000  Uiso   1.00
O676   O     0.79510   0.77226   0.25000   0.00000  Uiso   1.00
O677   O     0.77328   0.83334   0.31612   0.00000  Uiso   1.00
O678   O     0.89339   0.83333   0.18388   0.00000  Uiso   1.00
O679   O     0.84972   0.83333   0.31612   0.00000  Uiso   1.00
O680   O     0.81695   0.83334   0.18388   0.00000  Uiso   1.00
Zn681  Zn    0.78229   0.83334   0.25000   0.00000  Uiso   1.00
Zn682  Zn    0.88438   0.83333   0.25000   0.00000  Uiso   1.00
S683   S     0.97890   0.85633   0.10168   0.00000  Uiso   1.00
O684   O     0.99131   0.81959   0.12525   0.00000  Uiso   1.00
O685   O     0.69120   0.87078   0.06215   0.00000  Uiso   1.00
O686   O     0.95762   0.89544   0.14044   0.00000  Uiso   1.00
H687   H     0.97966   0.89626   0.15781   0.00000  Uiso   1.00
S688   S     0.70779   0.77148   0.38177   0.00000  Uiso   1.00
O689   O     0.74291   0.74360   0.34531   0.00000  Uiso   1.00
O690   O     0.66779   0.74504   0.41552   0.00000  Uiso   1.00
O691   O     0.68301   0.80490   0.35509   0.00000  Uiso   1.00
H692   H     0.68497   0.83273   0.36793   0.00000  Uiso   1.00
O693   O     0.77527   0.76764   0.08967   0.00000  Uiso   1.00
C694   C     0.79822   0.72836   0.08298   0.00000  Uiso   1.00
H695   H     0.83872   0.73121   0.06575   0.00000  Uiso   1.00
H696   H     0.78415   0.70735   0.06234   0.00000  Uiso   1.00
H697   H     0.78968   0.71375   0.11784   0.00000  Uiso   1.00
O698   O     0.91018   0.82156   0.39500   0.00000  Uiso   1.00
C699   C     0.90951   0.77995   0.38032   0.00000  Uiso   1.00
H700   H     0.87191   0.76958   0.38604   0.00000  Uiso   1.00
H701   H     0.92578   0.75795   0.39811   0.00000  Uiso   1.00
H702   H     0.93148   0.77814   0.34206   0.00000  Uiso   1.00
C703   C     0.16670   0.24668   0.74995   0.00000  Uiso   1.00
C704   C     0.16680   0.08666   0.74968   0.00000  Uiso   1.00
C705   C     0.11892   0.11918   0.54628   0.00000  Uiso   1.00
C706   C     0.22624   0.15627   0.94355   0.00000  Uiso   1.00
C707   C     0.08479   0.11362   0.52573   0.00000  Uiso   1.00
C708   C     0.26031   0.16323   0.96371   0.00000  Uiso   1.00
C709   C     0.20202   0.31201   0.76105   0.00000  Uiso   1.00
C710   C     0.13178   0.02136   0.73804   0.00000  Uiso   1.00
C711   C     0.20207   0.02133   0.76095   0.00000  Uiso   1.00
C712   C     0.13170   0.31203   0.73820   0.00000  Uiso   1.00
C713   C     0.16692   0.04251   0.74949   0.00000  Uiso   1.00
C714   C     0.16680   0.29085   0.74974   0.00000  Uiso   1.00
C715   C     0.31800   0.13549   0.72854   0.00000  Uiso   1.00
C716   C     0.01525   0.19774   0.77166   0.00000  Uiso   1.00
C717   C     0.03260   0.13557   0.72842   0.00000  Uiso   1.00
C718   C     0.30069   0.19771   0.77169   0.00000  Uiso   1.00
C719   C     0.13570   0.16461   0.83818   0.00000  Uiso   1.00
C720   C     0.19756   0.16736   0.66154   0.00000  Uiso   1.00
C721   C     0.11531   0.15621   0.88884   0.00000  Uiso   1.00
C722   C     0.21741   0.16614   0.60981   0.00000  Uiso   1.00
C723   C     0.06135   0.12030   0.95906   0.00000  Uiso   1.00
C724   C     0.28053   0.17266   0.53166   0.00000  Uiso   1.00
C725   C     0.07348   0.13078   0.91178   0.00000  Uiso   1.00
C726   C     0.26689   0.17451   0.58035   0.00000  Uiso   1.00
C727   C     0.14420   0.16819   0.91313   0.00000  Uiso   1.00
C728   C     0.18393   0.15604   0.58946   0.00000  Uiso   1.00
C729   C     0.13849   0.14909   0.95554   0.00000  Uiso   1.00
C730   C     0.19803   0.15157   0.54118   0.00000  Uiso   1.00
C731   C     0.09414   0.12848   0.98071   0.00000  Uiso   1.00
C732   C     0.24645   0.16228   0.51212   0.00000  Uiso   1.00
C733   C     0.17617   0.14949   0.97296   0.00000  Uiso   1.00
C734   C     0.16400   0.14026   0.52103   0.00000  Uiso   1.00
H735   H     0.05120   0.09686   0.54496   0.00000  Uiso   1.00
H736   H     0.29770   0.17036   0.94152   0.00000  Uiso   1.00
H737   H     0.14573   0.15397   0.61171   0.00000  Uiso   1.00
H738   H     0.17388   0.18986   0.89668   0.00000  Uiso   1.00
H739   H     0.02868   0.10228   0.97777   0.00000  Uiso   1.00
H740   H     0.31770   0.18018   0.50864   0.00000  Uiso   1.00
H741   H     0.22912   0.29573   0.77034   0.00000  Uiso   1.00
H742   H     0.10470   0.03766   0.72876   0.00000  Uiso   1.00
H743   H     0.22917   0.03759   0.77021   0.00000  Uiso   1.00
H744   H     0.10455   0.29576   0.72902   0.00000  Uiso   1.00
H745   H     0.30685   0.11053   0.71134   0.00000  Uiso   1.00
H746   H     0.02631   0.22254   0.78914   0.00000  Uiso   1.00
H747   H     0.05764   0.11072   0.71101   0.00000  Uiso   1.00
H748   H     0.27562   0.22250   0.78916   0.00000  Uiso   1.00
N749   N     0.04759   0.16668   0.75001   0.00000  Uiso   1.00
N750   N     0.28574   0.16666   0.74999   0.00000  Uiso   1.00
O751   O     0.12846   0.22775   0.75001   0.00000  Uiso   1.00
O752   O     0.20488   0.10558   0.74999   0.00000  Uiso   1.00
O753   O     0.20490   0.22774   0.75000   0.00000  Uiso   1.00
O754   O     0.12843   0.10559   0.75000   0.00000  Uiso   1.00
O755   O     0.10661   0.16667   0.81612   0.00000  Uiso   1.00
O756   O     0.22672   0.16666   0.68388   0.00000  Uiso   1.00
O757   O     0.18305   0.16666   0.81612   0.00000  Uiso   1.00
O758   O     0.15028   0.16667   0.68388   0.00000  Uiso   1.00
Zn759  Zn    0.11562   0.16667   0.75000   0.00000  Uiso   1.00
Zn760  Zn    0.21771   0.16666   0.75000   0.00000  Uiso   1.00
S761   S     0.31224   0.18966   0.60168   0.00000  Uiso   1.00
O762   O     0.32464   0.15292   0.62525   0.00000  Uiso   1.00
O763   O     0.02454   0.20412   0.56215   0.00000  Uiso   1.00
O764   O     0.29096   0.22878   0.64044   0.00000  Uiso   1.00
H765   H     0.31299   0.22959   0.65781   0.00000  Uiso   1.00
S766   S     0.04113   0.10481   0.88177   0.00000  Uiso   1.00
O767   O     0.07624   0.07693   0.84531   0.00000  Uiso   1.00
O768   O     0.00112   0.07837   0.91552   0.00000  Uiso   1.00
O769   O     0.01634   0.13823   0.85509   0.00000  Uiso   1.00
H770   H     0.01830   0.16606   0.86793   0.00000  Uiso   1.00
O771   O     0.10860   0.10097   0.58967   0.00000  Uiso   1.00
C772   C     0.13155   0.06169   0.58298   0.00000  Uiso   1.00
H773   H     0.17205   0.06454   0.56575   0.00000  Uiso   1.00
H774   H     0.11748   0.04068   0.56234   0.00000  Uiso   1.00
H775   H     0.12301   0.04709   0.61784   0.00000  Uiso   1.00
O776   O     0.24351   0.15489   0.89500   0.00000  Uiso   1.00
C777   C     0.24284   0.11328   0.88032   0.00000  Uiso   1.00
H778   H     0.20524   0.10291   0.88604   0.00000  Uiso   1.00
H779   H     0.25911   0.09128   0.89811   0.00000  Uiso   1.00
H780   H     0.26481   0.11147   0.84206   0.00000  Uiso   1.00
C781   C     0.50003   0.24668   0.74995   0.00000  Uiso   1.00
C782   C     0.50013   0.08666   0.74968   0.00000  Uiso   1.00
C783   C     0.45225   0.11918   0.54628   0.00000  Uiso   1.00
C784   C     0.55958   0.15627   0.94355   0.00000  Uiso   1.00
C785   C     0.41812   0.11362   0.52573   0.00000  Uiso   1.00
C786   C     0.59364   0.16323   0.96371   0.00000  Uiso   1.00
C787   C     0.53536   0.31201   0.76105   0.00000  Uiso   1.00
C788   C     0.46511   0.02136   0.73804   0.00000  Uiso   1.00
C789   C     0.53540   0.02133   0.76095   0.00000  Uiso   1.00
C790   C     0.46503   0.31203   0.73820   0.00000  Uiso   1.00
C791   C     0.50025   0.04251   0.74949   0.00000  Uiso   1.00
C792   C     0.50013   0.29085   0.74974   0.00000  Uiso   1.00
C793   C     0.65133   0.13549   0.72854   0.00000  Uiso   1.00
C794   C     0.34859   0.19774   0.77166   0.00000  Uiso   1.00
C795   C     0.36593   0.13557   0.72842   0.00000  Uiso   1.00
C796   C     0.63402   0.19771   0.77169   0.00000  Uiso   1.00
C797   C     0.46904   0.16461   0.83818   0.00000  Uiso   1.00
C798   C     0.53090   0.16736   0.66154   0.00000  Uiso   1.00
C799   C     0.44864   0.15621   0.88884   0.00000  Uiso   1.00
C800   C     0.55074   0.16614   0.60981   0.00000  Uiso   1.00
C801   C     0.39469   0.12030   0.95906   0.00000  Uiso   1.00
C802   C     0.61386   0.17266   0.53166   0.00000  Uiso   1.00
C803   C     0.40681   0.13078   0.91178   0.00000  Uiso   1.00
C804   C     0.60023   0.17451   0.58035   0.00000  Uiso   1.00
C805   C     0.47754   0.16819   0.91313   0.00000  Uiso   1.00
C806   C     0.51726   0.15604   0.58946   0.00000  Uiso   1.00
C807   C     0.47182   0.14909   0.95554   0.00000  Uiso   1.00
C808   C     0.53137   0.15157   0.54118   0.00000  Uiso   1.00
C809   C     0.42747   0.12848   0.98071   0.00000  Uiso   1.00
C810   C     0.57978   0.16228   0.51212   0.00000  Uiso   1.00
C811   C     0.50950   0.14949   0.97296   0.00000  Uiso   1.00
C812   C     0.49733   0.14026   0.52103   0.00000  Uiso   1.00
H813   H     0.38453   0.09686   0.54496   0.00000  Uiso   1.00
H814   H     0.63104   0.17036   0.94152   0.00000  Uiso   1.00
H815   H     0.47907   0.15397   0.61171   0.00000  Uiso   1.00
H816   H     0.50722   0.18986   0.89668   0.00000  Uiso   1.00
H817   H     0.36202   0.10228   0.97777   0.00000  Uiso   1.00
H818   H     0.65104   0.18018   0.50864   0.00000  Uiso   1.00
H819   H     0.56245   0.29573   0.77034   0.00000  Uiso   1.00
H820   H     0.43803   0.03766   0.72876   0.00000  Uiso   1.00
H821   H     0.56250   0.03759   0.77021   0.00000  Uiso   1.00
H822   H     0.43788   0.29576   0.72902   0.00000  Uiso   1.00
H823   H     0.64018   0.11053   0.71134   0.00000  Uiso   1.00
H824   H     0.35964   0.22254   0.78914   0.00000  Uiso   1.00
H825   H     0.39097   0.11072   0.71101   0.00000  Uiso   1.00
H826   H     0.60895   0.22250   0.78916   0.00000  Uiso   1.00
N827   N     0.38093   0.16668   0.75001   0.00000  Uiso   1.00
N828   N     0.61907   0.16666   0.74999   0.00000  Uiso   1.00
O829   O     0.46179   0.22775   0.75001   0.00000  Uiso   1.00
O830   O     0.53821   0.10558   0.74999   0.00000  Uiso   1.00
O831   O     0.53823   0.22774   0.75000   0.00000  Uiso   1.00
O832   O     0.46177   0.10559   0.75000   0.00000  Uiso   1.00
O833   O     0.43994   0.16667   0.81612   0.00000  Uiso   1.00
O834   O     0.56006   0.16666   0.68388   0.00000  Uiso   1.00
O835   O     0.51639   0.16666   0.81612   0.00000  Uiso   1.00
O836   O     0.48361   0.16667   0.68388   0.00000  Uiso   1.00
Zn837  Zn    0.44896   0.16667   0.75000   0.00000  Uiso   1.00
Zn838  Zn    0.55104   0.16666   0.75000   0.00000  Uiso   1.00
S839   S     0.64557   0.18966   0.60168   0.00000  Uiso   1.00
O840   O     0.65797   0.15292   0.62525   0.00000  Uiso   1.00
O841   O     0.35787   0.20412   0.56215   0.00000  Uiso   1.00
O842   O     0.62429   0.22878   0.64044   0.00000  Uiso   1.00
H843   H     0.64632   0.22959   0.65781   0.00000  Uiso   1.00
S844   S     0.37446   0.10481   0.88177   0.00000  Uiso   1.00
O845   O     0.40957   0.07693   0.84531   0.00000  Uiso   1.00
O846   O     0.33446   0.07837   0.91552   0.00000  Uiso   1.00
O847   O     0.34967   0.13823   0.85509   0.00000  Uiso   1.00
H848   H     0.35164   0.16606   0.86793   0.00000  Uiso   1.00
O849   O     0.44194   0.10097   0.58967   0.00000  Uiso   1.00
C850   C     0.46488   0.06169   0.58298   0.00000  Uiso   1.00
H851   H     0.50539   0.06454   0.56575   0.00000  Uiso   1.00
H852   H     0.45081   0.04068   0.56234   0.00000  Uiso   1.00
H853   H     0.45635   0.04709   0.61784   0.00000  Uiso   1.00
O854   O     0.57684   0.15489   0.89500   0.00000  Uiso   1.00
C855   C     0.57618   0.11328   0.88032   0.00000  Uiso   1.00
H856   H     0.53857   0.10291   0.88604   0.00000  Uiso   1.00
H857   H     0.59244   0.09128   0.89811   0.00000  Uiso   1.00
H858   H     0.59815   0.11147   0.84206   0.00000  Uiso   1.00
C859   C     0.83337   0.24668   0.74995   0.00000  Uiso   1.00
C860   C     0.83346   0.08666   0.74968   0.00000  Uiso   1.00
C861   C     0.78558   0.11918   0.54628   0.00000  Uiso   1.00
C862   C     0.89291   0.15627   0.94355   0.00000  Uiso   1.00
C863   C     0.75145   0.11362   0.52573   0.00000  Uiso   1.00
C864   C     0.92698   0.16323   0.96371   0.00000  Uiso   1.00
C865   C     0.86869   0.31201   0.76105   0.00000  Uiso   1.00
C866   C     0.79845   0.02136   0.73804   0.00000  Uiso   1.00
C867   C     0.86873   0.02133   0.76095   0.00000  Uiso   1.00
C868   C     0.79836   0.31203   0.73820   0.00000  Uiso   1.00
C869   C     0.83359   0.04251   0.74949   0.00000  Uiso   1.00
C870   C     0.83346   0.29085   0.74974   0.00000  Uiso   1.00
C871   C     0.98467   0.13549   0.72854   0.00000  Uiso   1.00
C872   C     0.68192   0.19774   0.77166   0.00000  Uiso   1.00
C873   C     0.69927   0.13557   0.72842   0.00000  Uiso   1.00
C874   C     0.96735   0.19771   0.77169   0.00000  Uiso   1.00
C875   C     0.80237   0.16461   0.83818   0.00000  Uiso   1.00
C876   C     0.86423   0.16736   0.66154   0.00000  Uiso   1.00
C877   C     0.78197   0.15621   0.88884   0.00000  Uiso   1.00
C878   C     0.88408   0.16614   0.60981   0.00000  Uiso   1.00
C879   C     0.72802   0.12030   0.95906   0.00000  Uiso   1.00
C880   C     0.94719   0.17266   0.53166   0.00000  Uiso   1.00
C881   C     0.74015   0.13078   0.91178   0.00000  Uiso   1.00
C882   C     0.93356   0.17451   0.58035   0.00000  Uiso   1.00
C883   C     0.81087   0.16819   0.91313   0.00000  Uiso   1.00
C884   C     0.85060   0.15604   0.58946   0.00000  Uiso   1.00
C885   C     0.80515   0.14909   0.95554   0.00000  Uiso   1.00
C886   C     0.86470   0.15157   0.54118   0.00000  Uiso   1.00
C887   C     0.76081   0.12848   0.98071   0.00000  Uiso   1.00
C888   C     0.91311   0.16228   0.51212   0.00000  Uiso   1.00
C889   C     0.84284   0.14949   0.97296   0.00000  Uiso   1.00
C890   C     0.83066   0.14026   0.52103   0.00000  Uiso   1.00
H891   H     0.71787   0.09686   0.54496   0.00000  Uiso   1.00
H892   H     0.96437   0.17036   0.94152   0.00000  Uiso   1.00
H893   H     0.81240   0.15397   0.61171   0.00000  Uiso   1.00
H894   H     0.84055   0.18986   0.89668   0.00000  Uiso   1.00
H895   H     0.69535   0.10228   0.97777   0.00000  Uiso   1.00
H896   H     0.98437   0.18018   0.50864   0.00000  Uiso   1.00
H897   H     0.89578   0.29573   0.77034   0.00000  Uiso   1.00
H898   H     0.77136   0.03766   0.72876   0.00000  Uiso   1.00
H899   H     0.89584   0.03759   0.77021   0.00000  Uiso   1.00
H900   H     0.77122   0.29576   0.72902   0.00000  Uiso   1.00
H901   H     0.97351   0.11053   0.71134   0.00000  Uiso   1.00
H902   H     0.69297   0.22254   0.78914   0.00000  Uiso   1.00
H903   H     0.72431   0.11072   0.71101   0.00000  Uiso   1.00
H904   H     0.94229   0.22250   0.78916   0.00000  Uiso   1.00
N905   N     0.71426   0.16668   0.75001   0.00000  Uiso   1.00
N906   N     0.95241   0.16666   0.74999   0.00000  Uiso   1.00
O907   O     0.79512   0.22775   0.75001   0.00000  Uiso   1.00
O908   O     0.87154   0.10558   0.74999   0.00000  Uiso   1.00
O909   O     0.87157   0.22774   0.75000   0.00000  Uiso   1.00
O910   O     0.79510   0.10559   0.75000   0.00000  Uiso   1.00
O911   O     0.77328   0.16667   0.81612   0.00000  Uiso   1.00
O912   O     0.89339   0.16666   0.68388   0.00000  Uiso   1.00
O913   O     0.84972   0.16666   0.81612   0.00000  Uiso   1.00
O914   O     0.81695   0.16667   0.68388   0.00000  Uiso   1.00
Zn915  Zn    0.78229   0.16667   0.75000   0.00000  Uiso   1.00
Zn916  Zn    0.88438   0.16666   0.75000   0.00000  Uiso   1.00
S917   S     0.97890   0.18966   0.60168   0.00000  Uiso   1.00
O918   O     0.99131   0.15292   0.62525   0.00000  Uiso   1.00
O919   O     0.69120   0.20412   0.56215   0.00000  Uiso   1.00
O920   O     0.95762   0.22878   0.64044   0.00000  Uiso   1.00
H921   H     0.97966   0.22959   0.65781   0.00000  Uiso   1.00
S922   S     0.70779   0.10481   0.88177   0.00000  Uiso   1.00
O923   O     0.74291   0.07693   0.84531   0.00000  Uiso   1.00
O924   O     0.66779   0.07837   0.91552   0.00000  Uiso   1.00
O925   O     0.68301   0.13823   0.85509   0.00000  Uiso   1.00
H926   H     0.68497   0.16606   0.86793   0.00000  Uiso   1.00
O927   O     0.77527   0.10097   0.58967   0.00000  Uiso   1.00
C928   C     0.79822   0.06169   0.58298   0.00000  Uiso   1.00
H929   H     0.83872   0.06454   0.56575   0.00000  Uiso   1.00
H930   H     0.78415   0.04068   0.56234   0.00000  Uiso   1.00
H931   H     0.78968   0.04709   0.61784   0.00000  Uiso   1.00
O932   O     0.91018   0.15489   0.89500   0.00000  Uiso   1.00
C933   C     0.90951   0.11328   0.88032   0.00000  Uiso   1.00
H934   H     0.87191   0.10291   0.88604   0.00000  Uiso   1.00
H935   H     0.92578   0.09128   0.89811   0.00000  Uiso   1.00
H936   H     0.93148   0.11147   0.84206   0.00000  Uiso   1.00
C937   C     0.16670   0.58002   0.74995   0.00000  Uiso   1.00
C938   C     0.16680   0.41999   0.74968   0.00000  Uiso   1.00
C939   C     0.11892   0.45251   0.54628   0.00000  Uiso   1.00
C940   C     0.22624   0.48960   0.94355   0.00000  Uiso   1.00
C941   C     0.08479   0.44695   0.52573   0.00000  Uiso   1.00
C942   C     0.26031   0.49657   0.96371   0.00000  Uiso   1.00
C943   C     0.20202   0.64534   0.76105   0.00000  Uiso   1.00
C944   C     0.13178   0.35469   0.73804   0.00000  Uiso   1.00
C945   C     0.20207   0.35466   0.76095   0.00000  Uiso   1.00
C946   C     0.13170   0.64536   0.73820   0.00000  Uiso   1.00
C947   C     0.16692   0.37584   0.74949   0.00000  Uiso   1.00
C948   C     0.16680   0.62418   0.74974   0.00000  Uiso   1.00
C949   C     0.31800   0.46883   0.72854   0.00000  Uiso   1.00
C950   C     0.01525   0.53107   0.77166   0.00000  Uiso   1.00
C951   C     0.03260   0.46890   0.72842   0.00000  Uiso   1.00
C952   C     0.30069   0.53104   0.77169   0.00000  Uiso   1.00
C953   C     0.13570   0.49794   0.83818   0.00000  Uiso   1.00
C954   C     0.19756   0.50069   0.66154   0.00000  Uiso   1.00
C955   C     0.11531   0.48955   0.88884   0.00000  Uiso   1.00
C956   C     0.21741   0.49947   0.60981   0.00000  Uiso   1.00
C957   C     0.06135   0.45363   0.95906   0.00000  Uiso   1.00
C958   C     0.28053   0.50600   0.53166   0.00000  Uiso   1.00
C959   C     0.07348   0.46411   0.91178   0.00000  Uiso   1.00
C960   C     0.26689   0.50784   0.58035   0.00000  Uiso   1.00
C961   C     0.14420   0.50152   0.91313   0.00000  Uiso   1.00
C962   C     0.18393   0.48938   0.58946   0.00000  Uiso   1.00
C963   C     0.13849   0.48242   0.95554   0.00000  Uiso   1.00
C964   C     0.19803   0.48491   0.54118   0.00000  Uiso   1.00
C965   C     0.09414   0.46181   0.98071   0.00000  Uiso   1.00
C966   C     0.24645   0.49562   0.51212   0.00000  Uiso   1.00
C967   C     0.17617   0.48282   0.97296   0.00000  Uiso   1.00
C968   C     0.16400   0.47359   0.52103   0.00000  Uiso   1.00
H969   H     0.05120   0.43020   0.54496   0.00000  Uiso   1.00
H970   H     0.29770   0.50369   0.94152   0.00000  Uiso   1.00
H971   H     0.14573   0.48730   0.61171   0.00000  Uiso   1.00
H972   H     0.17388   0.52319   0.89668   0.00000  Uiso   1.00
H973   H     0.02868   0.43562   0.97777   0.00000  Uiso   1.00
H974   H     0.31770   0.51352   0.50864   0.00000  Uiso   1.00
H975   H     0.22912   0.62906   0.77034   0.00000  Uiso   1.00
H976   H     0.10470   0.37099   0.72876   0.00000  Uiso   1.00
H977   H     0.22917   0.37093   0.77021   0.00000  Uiso   1.00
H978   H     0.10455   0.62909   0.72902   0.00000  Uiso   1.00
H979   H     0.30685   0.44386   0.71134   0.00000  Uiso   1.00
H980   H     0.02631   0.55588   0.78914   0.00000  Uiso   1.00
H981   H     0.05764   0.44405   0.71101   0.00000  Uiso   1.00
H982   H     0.27562   0.55584   0.78916   0.00000  Uiso   1.00
N983   N     0.04759   0.50001   0.75001   0.00000  Uiso   1.00
N984   N     0.28574   0.49999   0.74999   0.00000  Uiso   1.00
O985   O     0.12846   0.56108   0.75001   0.00000  Uiso   1.00
O986   O     0.20488   0.43892   0.74999   0.00000  Uiso   1.00
O987   O     0.20490   0.56107   0.75000   0.00000  Uiso   1.00
O988   O     0.12843   0.43893   0.75000   0.00000  Uiso   1.00
O989   O     0.10661   0.50001   0.81612   0.00000  Uiso   1.00
O990   O     0.22672   0.49999   0.68388   0.00000  Uiso   1.00
O991   O     0.18305   0.50000   0.81612   0.00000  Uiso   1.00
O992   O     0.15028   0.50000   0.68388   0.00000  Uiso   1.00
Zn993  Zn    0.11562   0.50001   0.75000   0.00000  Uiso   1.00
Zn994  Zn    0.21771   0.49999   0.75000   0.00000  Uiso   1.00
S995   S     0.31224   0.52300   0.60168   0.00000  Uiso   1.00
O996   O     0.32464   0.48625   0.62525   0.00000  Uiso   1.00
O997   O     0.02454   0.53745   0.56215   0.00000  Uiso   1.00
O998   O     0.29096   0.56211   0.64044   0.00000  Uiso   1.00
H999   H     0.31299   0.56292   0.65781   0.00000  Uiso   1.00
S1000  S     0.04113   0.43814   0.88177   0.00000  Uiso   1.00
O1001  O     0.07624   0.41026   0.84531   0.00000  Uiso   1.00
O1002  O     0.00112   0.41170   0.91552   0.00000  Uiso   1.00
O1003  O     0.01634   0.47157   0.85509   0.00000  Uiso   1.00
H1004  H     0.01830   0.49940   0.86793   0.00000  Uiso   1.00
O1005  O     0.10860   0.43430   0.58967   0.00000  Uiso   1.00
C1006  C     0.13155   0.39503   0.58298   0.00000  Uiso   1.00
H1007  H     0.17205   0.39788   0.56575   0.00000  Uiso   1.00
H1008  H     0.11748   0.37402   0.56234   0.00000  Uiso   1.00
H1009  H     0.12301   0.38042   0.61784   0.00000  Uiso   1.00
O1010  O     0.24351   0.48823   0.89500   0.00000  Uiso   1.00
C1011  C     0.24284   0.44662   0.88032   0.00000  Uiso   1.00
H1012  H     0.20524   0.43625   0.88604   0.00000  Uiso   1.00
H1013  H     0.25911   0.42461   0.89811   0.00000  Uiso   1.00
H1014  H     0.26481   0.44481   0.84206   0.00000  Uiso   1.00
C1015  C     0.50003   0.58002   0.74995   0.00000  Uiso   1.00
C1016  C     0.50013   0.41999   0.74968   0.00000  Uiso   1.00
C1017  C     0.45225   0.45251   0.54628   0.00000  Uiso   1.00
C1018  C     0.55958   0.48960   0.94355   0.00000  Uiso   1.00
C1019  C     0.41812   0.44695   0.52573   0.00000  Uiso   1.00
C1020  C     0.59364   0.49657   0.96371   0.00000  Uiso   1.00
C1021  C     0.53536   0.64534   0.76105   0.00000  Uiso   1.00
C1022  C     0.46511   0.35469   0.73804   0.00000  Uiso   1.00
C1023  C     0.53540   0.35466   0.76095   0.00000  Uiso   1.00
C1024  C     0.46503   0.64536   0.73820   0.00000  Uiso   1.00
C1025  C     0.50025   0.37584   0.74949   0.00000  Uiso   1.00
C1026  C     0.50013   0.62418   0.74974   0.00000  Uiso   1.00
C1027  C     0.65133   0.46883   0.72854   0.00000  Uiso   1.00
C1028  C     0.34859   0.53107   0.77166   0.00000  Uiso   1.00
C1029  C     0.36593   0.46890   0.72842   0.00000  Uiso   1.00
C1030  C     0.63402   0.53104   0.77169   0.00000  Uiso   1.00
C1031  C     0.46904   0.49794   0.83818   0.00000  Uiso   1.00
C1032  C     0.53090   0.50069   0.66154   0.00000  Uiso   1.00
C1033  C     0.44864   0.48955   0.88884   0.00000  Uiso   1.00
C1034  C     0.55074   0.49947   0.60981   0.00000  Uiso   1.00
C1035  C     0.39469   0.45363   0.95906   0.00000  Uiso   1.00
C1036  C     0.61386   0.50600   0.53166   0.00000  Uiso   1.00
C1037  C     0.40681   0.46411   0.91178   0.00000  Uiso   1.00
C1038  C     0.60023   0.50784   0.58035   0.00000  Uiso   1.00
C1039  C     0.47754   0.50152   0.91313   0.00000  Uiso   1.00
C1040  C     0.51726   0.48938   0.58946   0.00000  Uiso   1.00
C1041  C     0.47182   0.48242   0.95554   0.00000  Uiso   1.00
C1042  C     0.53137   0.48491   0.54118   0.00000  Uiso   1.00
C1043  C     0.42747   0.46181   0.98071   0.00000  Uiso   1.00
C1044  C     0.57978   0.49562   0.51212   0.00000  Uiso   1.00
C1045  C     0.50950   0.48282   0.97296   0.00000  Uiso   1.00
C1046  C     0.49733   0.47359   0.52103   0.00000  Uiso   1.00
H1047  H     0.38453   0.43020   0.54496   0.00000  Uiso   1.00
H1048  H     0.63104   0.50369   0.94152   0.00000  Uiso   1.00
H1049  H     0.47907   0.48730   0.61171   0.00000  Uiso   1.00
H1050  H     0.50722   0.52319   0.89668   0.00000  Uiso   1.00
H1051  H     0.36202   0.43562   0.97777   0.00000  Uiso   1.00
H1052  H     0.65104   0.51352   0.50864   0.00000  Uiso   1.00
H1053  H     0.56245   0.62906   0.77034   0.00000  Uiso   1.00
H1054  H     0.43803   0.37099   0.72876   0.00000  Uiso   1.00
H1055  H     0.56250   0.37093   0.77021   0.00000  Uiso   1.00
H1056  H     0.43788   0.62909   0.72902   0.00000  Uiso   1.00
H1057  H     0.64018   0.44386   0.71134   0.00000  Uiso   1.00
H1058  H     0.35964   0.55588   0.78914   0.00000  Uiso   1.00
H1059  H     0.39097   0.44405   0.71101   0.00000  Uiso   1.00
H1060  H     0.60895   0.55584   0.78916   0.00000  Uiso   1.00
N1061  N     0.38093   0.50001   0.75001   0.00000  Uiso   1.00
N1062  N     0.61907   0.49999   0.74999   0.00000  Uiso   1.00
O1063  O     0.46179   0.56108   0.75001   0.00000  Uiso   1.00
O1064  O     0.53821   0.43892   0.74999   0.00000  Uiso   1.00
O1065  O     0.53823   0.56107   0.75000   0.00000  Uiso   1.00
O1066  O     0.46177   0.43893   0.75000   0.00000  Uiso   1.00
O1067  O     0.43994   0.50001   0.81612   0.00000  Uiso   1.00
O1068  O     0.56006   0.49999   0.68388   0.00000  Uiso   1.00
O1069  O     0.51639   0.50000   0.81612   0.00000  Uiso   1.00
O1070  O     0.48361   0.50000   0.68388   0.00000  Uiso   1.00
Zn1071 Zn    0.44896   0.50001   0.75000   0.00000  Uiso   1.00
Zn1072 Zn    0.55104   0.49999   0.75000   0.00000  Uiso   1.00
S1073  S     0.64557   0.52300   0.60168   0.00000  Uiso   1.00
O1074  O     0.65797   0.48625   0.62525   0.00000  Uiso   1.00
O1075  O     0.35787   0.53745   0.56215   0.00000  Uiso   1.00
O1076  O     0.62429   0.56211   0.64044   0.00000  Uiso   1.00
H1077  H     0.64632   0.56292   0.65781   0.00000  Uiso   1.00
S1078  S     0.37446   0.43814   0.88177   0.00000  Uiso   1.00
O1079  O     0.40957   0.41026   0.84531   0.00000  Uiso   1.00
O1080  O     0.33446   0.41170   0.91552   0.00000  Uiso   1.00
O1081  O     0.34967   0.47157   0.85509   0.00000  Uiso   1.00
H1082  H     0.35164   0.49940   0.86793   0.00000  Uiso   1.00
O1083  O     0.44194   0.43430   0.58967   0.00000  Uiso   1.00
C1084  C     0.46488   0.39503   0.58298   0.00000  Uiso   1.00
H1085  H     0.50539   0.39788   0.56575   0.00000  Uiso   1.00
H1086  H     0.45081   0.37402   0.56234   0.00000  Uiso   1.00
H1087  H     0.45635   0.38042   0.61784   0.00000  Uiso   1.00
O1088  O     0.57684   0.48823   0.89500   0.00000  Uiso   1.00
C1089  C     0.57618   0.44662   0.88032   0.00000  Uiso   1.00
H1090  H     0.53857   0.43625   0.88604   0.00000  Uiso   1.00
H1091  H     0.59244   0.42461   0.89811   0.00000  Uiso   1.00
H1092  H     0.59815   0.44481   0.84206   0.00000  Uiso   1.00
C1093  C     0.83337   0.58002   0.74995   0.00000  Uiso   1.00
C1094  C     0.83346   0.41999   0.74968   0.00000  Uiso   1.00
C1095  C     0.78558   0.45251   0.54628   0.00000  Uiso   1.00
C1096  C     0.89291   0.48960   0.94355   0.00000  Uiso   1.00
C1097  C     0.75145   0.44695   0.52573   0.00000  Uiso   1.00
C1098  C     0.92698   0.49657   0.96371   0.00000  Uiso   1.00
C1099  C     0.86869   0.64534   0.76105   0.00000  Uiso   1.00
C1100  C     0.79845   0.35469   0.73804   0.00000  Uiso   1.00
C1101  C     0.86873   0.35466   0.76095   0.00000  Uiso   1.00
C1102  C     0.79836   0.64536   0.73820   0.00000  Uiso   1.00
C1103  C     0.83359   0.37584   0.74949   0.00000  Uiso   1.00
C1104  C     0.83346   0.62418   0.74974   0.00000  Uiso   1.00
C1105  C     0.98467   0.46883   0.72854   0.00000  Uiso   1.00
C1106  C     0.68192   0.53107   0.77166   0.00000  Uiso   1.00
C1107  C     0.69927   0.46890   0.72842   0.00000  Uiso   1.00
C1108  C     0.96735   0.53104   0.77169   0.00000  Uiso   1.00
C1109  C     0.80237   0.49794   0.83818   0.00000  Uiso   1.00
C1110  C     0.86423   0.50069   0.66154   0.00000  Uiso   1.00
C1111  C     0.78197   0.48955   0.88884   0.00000  Uiso   1.00
C1112  C     0.88408   0.49947   0.60981   0.00000  Uiso   1.00
C1113  C     0.72802   0.45363   0.95906   0.00000  Uiso   1.00
C1114  C     0.94719   0.50600   0.53166   0.00000  Uiso   1.00
C1115  C     0.74015   0.46411   0.91178   0.00000  Uiso   1.00
C1116  C     0.93356   0.50784   0.58035   0.00000  Uiso   1.00
C1117  C     0.81087   0.50152   0.91313   0.00000  Uiso   1.00
C1118  C     0.85060   0.48938   0.58946   0.00000  Uiso   1.00
C1119  C     0.80515   0.48242   0.95554   0.00000  Uiso   1.00
C1120  C     0.86470   0.48491   0.54118   0.00000  Uiso   1.00
C1121  C     0.76081   0.46181   0.98071   0.00000  Uiso   1.00
C1122  C     0.91311   0.49562   0.51212   0.00000  Uiso   1.00
C1123  C     0.84284   0.48282   0.97296   0.00000  Uiso   1.00
C1124  C     0.83066   0.47359   0.52103   0.00000  Uiso   1.00
H1125  H     0.71787   0.43020   0.54496   0.00000  Uiso   1.00
H1126  H     0.96437   0.50369   0.94152   0.00000  Uiso   1.00
H1127  H     0.81240   0.48730   0.61171   0.00000  Uiso   1.00
H1128  H     0.84055   0.52319   0.89668   0.00000  Uiso   1.00
H1129  H     0.69535   0.43562   0.97777   0.00000  Uiso   1.00
H1130  H     0.98437   0.51352   0.50864   0.00000  Uiso   1.00
H1131  H     0.89578   0.62906   0.77034   0.00000  Uiso   1.00
H1132  H     0.77136   0.37099   0.72876   0.00000  Uiso   1.00
H1133  H     0.89584   0.37093   0.77021   0.00000  Uiso   1.00
H1134  H     0.77122   0.62909   0.72902   0.00000  Uiso   1.00
H1135  H     0.97351   0.44386   0.71134   0.00000  Uiso   1.00
H1136  H     0.69297   0.55588   0.78914   0.00000  Uiso   1.00
H1137  H     0.72431   0.44405   0.71101   0.00000  Uiso   1.00
H1138  H     0.94229   0.55584   0.78916   0.00000  Uiso   1.00
N1139  N     0.71426   0.50001   0.75001   0.00000  Uiso   1.00
N1140  N     0.95241   0.49999   0.74999   0.00000  Uiso   1.00
O1141  O     0.79512   0.56108   0.75001   0.00000  Uiso   1.00
O1142  O     0.87154   0.43892   0.74999   0.00000  Uiso   1.00
O1143  O     0.87157   0.56107   0.75000   0.00000  Uiso   1.00
O1144  O     0.79510   0.43893   0.75000   0.00000  Uiso   1.00
O1145  O     0.77328   0.50001   0.81612   0.00000  Uiso   1.00
O1146  O     0.89339   0.49999   0.68388   0.00000  Uiso   1.00
O1147  O     0.84972   0.50000   0.81612   0.00000  Uiso   1.00
O1148  O     0.81695   0.50000   0.68388   0.00000  Uiso   1.00
Zn1149 Zn    0.78229   0.50001   0.75000   0.00000  Uiso   1.00
Zn1150 Zn    0.88438   0.49999   0.75000   0.00000  Uiso   1.00
S1151  S     0.97890   0.52300   0.60168   0.00000  Uiso   1.00
O1152  O     0.99131   0.48625   0.62525   0.00000  Uiso   1.00
O1153  O     0.69120   0.53745   0.56215   0.00000  Uiso   1.00
O1154  O     0.95762   0.56211   0.64044   0.00000  Uiso   1.00
H1155  H     0.97966   0.56292   0.65781   0.00000  Uiso   1.00
S1156  S     0.70779   0.43814   0.88177   0.00000  Uiso   1.00
O1157  O     0.74291   0.41026   0.84531   0.00000  Uiso   1.00
O1158  O     0.66779   0.41170   0.91552   0.00000  Uiso   1.00
O1159  O     0.68301   0.47157   0.85509   0.00000  Uiso   1.00
H1160  H     0.68497   0.49940   0.86793   0.00000  Uiso   1.00
O1161  O     0.77527   0.43430   0.58967   0.00000  Uiso   1.00
C1162  C     0.79822   0.39503   0.58298   0.00000  Uiso   1.00
H1163  H     0.83872   0.39788   0.56575   0.00000  Uiso   1.00
H1164  H     0.78415   0.37402   0.56234   0.00000  Uiso   1.00
H1165  H     0.78968   0.38042   0.61784   0.00000  Uiso   1.00
O1166  O     0.91018   0.48823   0.89500   0.00000  Uiso   1.00
C1167  C     0.90951   0.44662   0.88032   0.00000  Uiso   1.00
H1168  H     0.87191   0.43625   0.88604   0.00000  Uiso   1.00
H1169  H     0.92578   0.42461   0.89811   0.00000  Uiso   1.00
H1170  H     0.93148   0.44481   0.84206   0.00000  Uiso   1.00
C1171  C     0.16670   0.91335   0.74995   0.00000  Uiso   1.00
C1172  C     0.16680   0.75333   0.74968   0.00000  Uiso   1.00
C1173  C     0.11892   0.78584   0.54628   0.00000  Uiso   1.00
C1174  C     0.22624   0.82293   0.94355   0.00000  Uiso   1.00
C1175  C     0.08479   0.78028   0.52573   0.00000  Uiso   1.00
C1176  C     0.26031   0.82990   0.96371   0.00000  Uiso   1.00
C1177  C     0.20202   0.97868   0.76105   0.00000  Uiso   1.00
C1178  C     0.13178   0.68802   0.73804   0.00000  Uiso   1.00
C1179  C     0.20207   0.68799   0.76095   0.00000  Uiso   1.00
C1180  C     0.13170   0.97870   0.73820   0.00000  Uiso   1.00
C1181  C     0.16692   0.70918   0.74949   0.00000  Uiso   1.00
C1182  C     0.16680   0.95751   0.74974   0.00000  Uiso   1.00
C1183  C     0.31800   0.80216   0.72854   0.00000  Uiso   1.00
C1184  C     0.01525   0.86440   0.77166   0.00000  Uiso   1.00
C1185  C     0.03260   0.80223   0.72842   0.00000  Uiso   1.00
C1186  C     0.30069   0.86437   0.77169   0.00000  Uiso   1.00
C1187  C     0.13570   0.83128   0.83818   0.00000  Uiso   1.00
C1188  C     0.19756   0.83403   0.66154   0.00000  Uiso   1.00
C1189  C     0.11531   0.82288   0.88884   0.00000  Uiso   1.00
C1190  C     0.21741   0.83281   0.60981   0.00000  Uiso   1.00
C1191  C     0.06135   0.78697   0.95906   0.00000  Uiso   1.00
C1192  C     0.28053   0.83933   0.53166   0.00000  Uiso   1.00
C1193  C     0.07348   0.79745   0.91178   0.00000  Uiso   1.00
C1194  C     0.26689   0.84118   0.58035   0.00000  Uiso   1.00
C1195  C     0.14420   0.83486   0.91313   0.00000  Uiso   1.00
C1196  C     0.18393   0.82271   0.58946   0.00000  Uiso   1.00
C1197  C     0.13849   0.81576   0.95554   0.00000  Uiso   1.00
C1198  C     0.19803   0.81824   0.54118   0.00000  Uiso   1.00
C1199  C     0.09414   0.79515   0.98071   0.00000  Uiso   1.00
C1200  C     0.24645   0.82895   0.51212   0.00000  Uiso   1.00
C1201  C     0.17617   0.81615   0.97296   0.00000  Uiso   1.00
C1202  C     0.16400   0.80693   0.52103   0.00000  Uiso   1.00
H1203  H     0.05120   0.76353   0.54496   0.00000  Uiso   1.00
H1204  H     0.29770   0.83702   0.94152   0.00000  Uiso   1.00
H1205  H     0.14573   0.82064   0.61171   0.00000  Uiso   1.00
H1206  H     0.17388   0.85653   0.89668   0.00000  Uiso   1.00
H1207  H     0.02868   0.76895   0.97777   0.00000  Uiso   1.00
H1208  H     0.31770   0.84685   0.50864   0.00000  Uiso   1.00
H1209  H     0.22912   0.96239   0.77034   0.00000  Uiso   1.00
H1210  H     0.10470   0.70433   0.72876   0.00000  Uiso   1.00
H1211  H     0.22917   0.70426   0.77021   0.00000  Uiso   1.00
H1212  H     0.10455   0.96242   0.72902   0.00000  Uiso   1.00
H1213  H     0.30685   0.77720   0.71134   0.00000  Uiso   1.00
H1214  H     0.02631   0.88921   0.78914   0.00000  Uiso   1.00
H1215  H     0.05764   0.77739   0.71101   0.00000  Uiso   1.00
H1216  H     0.27562   0.88917   0.78916   0.00000  Uiso   1.00
N1217  N     0.04759   0.83334   0.75001   0.00000  Uiso   1.00
N1218  N     0.28574   0.83332   0.74999   0.00000  Uiso   1.00
O1219  O     0.12846   0.89442   0.75001   0.00000  Uiso   1.00
O1220  O     0.20488   0.77225   0.74999   0.00000  Uiso   1.00
O1221  O     0.20490   0.89441   0.75000   0.00000  Uiso   1.00
O1222  O     0.12843   0.77226   0.75000   0.00000  Uiso   1.00
O1223  O     0.10661   0.83334   0.81612   0.00000  Uiso   1.00
O1224  O     0.22672   0.83333   0.68388   0.00000  Uiso   1.00
O1225  O     0.18305   0.83333   0.81612   0.00000  Uiso   1.00
O1226  O     0.15028   0.83334   0.68388   0.00000  Uiso   1.00
Zn1227 Zn    0.11562   0.83334   0.75000   0.00000  Uiso   1.00
Zn1228 Zn    0.21771   0.83333   0.75000   0.00000  Uiso   1.00
S1229  S     0.31224   0.85633   0.60168   0.00000  Uiso   1.00
O1230  O     0.32464   0.81959   0.62525   0.00000  Uiso   1.00
O1231  O     0.02454   0.87078   0.56215   0.00000  Uiso   1.00
O1232  O     0.29096   0.89544   0.64044   0.00000  Uiso   1.00
H1233  H     0.31299   0.89626   0.65781   0.00000  Uiso   1.00
S1234  S     0.04113   0.77148   0.88177   0.00000  Uiso   1.00
O1235  O     0.07624   0.74360   0.84531   0.00000  Uiso   1.00
O1236  O     0.00112   0.74504   0.91552   0.00000  Uiso   1.00
O1237  O     0.01634   0.80490   0.85509   0.00000  Uiso   1.00
H1238  H     0.01830   0.83273   0.86793   0.00000  Uiso   1.00
O1239  O     0.10860   0.76764   0.58967   0.00000  Uiso   1.00
C1240  C     0.13155   0.72836   0.58298   0.00000  Uiso   1.00
H1241  H     0.17205   0.73121   0.56575   0.00000  Uiso   1.00
H1242  H     0.11748   0.70735   0.56234   0.00000  Uiso   1.00
H1243  H     0.12301   0.71375   0.61784   0.00000  Uiso   1.00
O1244  O     0.24351   0.82156   0.89500   0.00000  Uiso   1.00
C1245  C     0.24284   0.77995   0.88032   0.00000  Uiso   1.00
H1246  H     0.20524   0.76958   0.88604   0.00000  Uiso   1.00
H1247  H     0.25911   0.75795   0.89811   0.00000  Uiso   1.00
H1248  H     0.26481   0.77814   0.84206   0.00000  Uiso   1.00
C1249  C     0.50003   0.91335   0.74995   0.00000  Uiso   1.00
C1250  C     0.50013   0.75333   0.74968   0.00000  Uiso   1.00
C1251  C     0.45225   0.78584   0.54628   0.00000  Uiso   1.00
C1252  C     0.55958   0.82293   0.94355   0.00000  Uiso   1.00
C1253  C     0.41812   0.78028   0.52573   0.00000  Uiso   1.00
C1254  C     0.59364   0.82990   0.96371   0.00000  Uiso   1.00
C1255  C     0.53536   0.97868   0.76105   0.00000  Uiso   1.00
C1256  C     0.46511   0.68802   0.73804   0.00000  Uiso   1.00
C1257  C     0.53540   0.68799   0.76095   0.00000  Uiso   1.00
C1258  C     0.46503   0.97870   0.73820   0.00000  Uiso   1.00
C1259  C     0.50025   0.70918   0.74949   0.00000  Uiso   1.00
C1260  C     0.50013   0.95751   0.74974   0.00000  Uiso   1.00
C1261  C     0.65133   0.80216   0.72854   0.00000  Uiso   1.00
C1262  C     0.34859   0.86440   0.77166   0.00000  Uiso   1.00
C1263  C     0.36593   0.80223   0.72842   0.00000  Uiso   1.00
C1264  C     0.63402   0.86437   0.77169   0.00000  Uiso   1.00
C1265  C     0.46904   0.83128   0.83818   0.00000  Uiso   1.00
C1266  C     0.53090   0.83403   0.66154   0.00000  Uiso   1.00
C1267  C     0.44864   0.82288   0.88884   0.00000  Uiso   1.00
C1268  C     0.55074   0.83281   0.60981   0.00000  Uiso   1.00
C1269  C     0.39469   0.78697   0.95906   0.00000  Uiso   1.00
C1270  C     0.61386   0.83933   0.53166   0.00000  Uiso   1.00
C1271  C     0.40681   0.79745   0.91178   0.00000  Uiso   1.00
C1272  C     0.60023   0.84118   0.58035   0.00000  Uiso   1.00
C1273  C     0.47754   0.83486   0.91313   0.00000  Uiso   1.00
C1274  C     0.51726   0.82271   0.58946   0.00000  Uiso   1.00
C1275  C     0.47182   0.81576   0.95554   0.00000  Uiso   1.00
C1276  C     0.53137   0.81824   0.54118   0.00000  Uiso   1.00
C1277  C     0.42747   0.79515   0.98071   0.00000  Uiso   1.00
C1278  C     0.57978   0.82895   0.51212   0.00000  Uiso   1.00
C1279  C     0.50950   0.81615   0.97296   0.00000  Uiso   1.00
C1280  C     0.49733   0.80693   0.52103   0.00000  Uiso   1.00
H1281  H     0.38453   0.76353   0.54496   0.00000  Uiso   1.00
H1282  H     0.63104   0.83702   0.94152   0.00000  Uiso   1.00
H1283  H     0.47907   0.82064   0.61171   0.00000  Uiso   1.00
H1284  H     0.50722   0.85653   0.89668   0.00000  Uiso   1.00
H1285  H     0.36202   0.76895   0.97777   0.00000  Uiso   1.00
H1286  H     0.65104   0.84685   0.50864   0.00000  Uiso   1.00
H1287  H     0.56245   0.96239   0.77034   0.00000  Uiso   1.00
H1288  H     0.43803   0.70433   0.72876   0.00000  Uiso   1.00
H1289  H     0.56250   0.70426   0.77021   0.00000  Uiso   1.00
H1290  H     0.43788   0.96242   0.72902   0.00000  Uiso   1.00
H1291  H     0.64018   0.77720   0.71134   0.00000  Uiso   1.00
H1292  H     0.35964   0.88921   0.78914   0.00000  Uiso   1.00
H1293  H     0.39097   0.77739   0.71101   0.00000  Uiso   1.00
H1294  H     0.60895   0.88917   0.78916   0.00000  Uiso   1.00
N1295  N     0.38093   0.83334   0.75001   0.00000  Uiso   1.00
N1296  N     0.61907   0.83332   0.74999   0.00000  Uiso   1.00
O1297  O     0.46179   0.89442   0.75001   0.00000  Uiso   1.00
O1298  O     0.53821   0.77225   0.74999   0.00000  Uiso   1.00
O1299  O     0.53823   0.89441   0.75000   0.00000  Uiso   1.00
O1300  O     0.46177   0.77226   0.75000   0.00000  Uiso   1.00
O1301  O     0.43994   0.83334   0.81612   0.00000  Uiso   1.00
O1302  O     0.56006   0.83333   0.68388   0.00000  Uiso   1.00
O1303  O     0.51639   0.83333   0.81612   0.00000  Uiso   1.00
O1304  O     0.48361   0.83334   0.68388   0.00000  Uiso   1.00
Zn1305 Zn    0.44896   0.83334   0.75000   0.00000  Uiso   1.00
Zn1306 Zn    0.55104   0.83333   0.75000   0.00000  Uiso   1.00
S1307  S     0.64557   0.85633   0.60168   0.00000  Uiso   1.00
O1308  O     0.65797   0.81959   0.62525   0.00000  Uiso   1.00
O1309  O     0.35787   0.87078   0.56215   0.00000  Uiso   1.00
O1310  O     0.62429   0.89544   0.64044   0.00000  Uiso   1.00
H1311  H     0.64632   0.89626   0.65781   0.00000  Uiso   1.00
S1312  S     0.37446   0.77148   0.88177   0.00000  Uiso   1.00
O1313  O     0.40957   0.74360   0.84531   0.00000  Uiso   1.00
O1314  O     0.33446   0.74504   0.91552   0.00000  Uiso   1.00
O1315  O     0.34967   0.80490   0.85509   0.00000  Uiso   1.00
H1316  H     0.35164   0.83273   0.86793   0.00000  Uiso   1.00
O1317  O     0.44194   0.76764   0.58967   0.00000  Uiso   1.00
C1318  C     0.46488   0.72836   0.58298   0.00000  Uiso   1.00
H1319  H     0.50539   0.73121   0.56575   0.00000  Uiso   1.00
H1320  H     0.45081   0.70735   0.56234   0.00000  Uiso   1.00
H1321  H     0.45635   0.71375   0.61784   0.00000  Uiso   1.00
O1322  O     0.57684   0.82156   0.89500   0.00000  Uiso   1.00
C1323  C     0.57618   0.77995   0.88032   0.00000  Uiso   1.00
H1324  H     0.53857   0.76958   0.88604   0.00000  Uiso   1.00
H1325  H     0.59244   0.75795   0.89811   0.00000  Uiso   1.00
H1326  H     0.59815   0.77814   0.84206   0.00000  Uiso   1.00
C1327  C     0.83337   0.91335   0.74995   0.00000  Uiso   1.00
C1328  C     0.83346   0.75333   0.74968   0.00000  Uiso   1.00
C1329  C     0.78558   0.78584   0.54628   0.00000  Uiso   1.00
C1330  C     0.89291   0.82293   0.94355   0.00000  Uiso   1.00
C1331  C     0.75145   0.78028   0.52573   0.00000  Uiso   1.00
C1332  C     0.92698   0.82990   0.96371   0.00000  Uiso   1.00
C1333  C     0.86869   0.97868   0.76105   0.00000  Uiso   1.00
C1334  C     0.79845   0.68802   0.73804   0.00000  Uiso   1.00
C1335  C     0.86873   0.68799   0.76095   0.00000  Uiso   1.00
C1336  C     0.79836   0.97870   0.73820   0.00000  Uiso   1.00
C1337  C     0.83359   0.70918   0.74949   0.00000  Uiso   1.00
C1338  C     0.83346   0.95751   0.74974   0.00000  Uiso   1.00
C1339  C     0.98467   0.80216   0.72854   0.00000  Uiso   1.00
C1340  C     0.68192   0.86440   0.77166   0.00000  Uiso   1.00
C1341  C     0.69927   0.80223   0.72842   0.00000  Uiso   1.00
C1342  C     0.96735   0.86437   0.77169   0.00000  Uiso   1.00
C1343  C     0.80237   0.83128   0.83818   0.00000  Uiso   1.00
C1344  C     0.86423   0.83403   0.66154   0.00000  Uiso   1.00
C1345  C     0.78197   0.82288   0.88884   0.00000  Uiso   1.00
C1346  C     0.88408   0.83281   0.60981   0.00000  Uiso   1.00
C1347  C     0.72802   0.78697   0.95906   0.00000  Uiso   1.00
C1348  C     0.94719   0.83933   0.53166   0.00000  Uiso   1.00
C1349  C     0.74015   0.79745   0.91178   0.00000  Uiso   1.00
C1350  C     0.93356   0.84118   0.58035   0.00000  Uiso   1.00
C1351  C     0.81087   0.83486   0.91313   0.00000  Uiso   1.00
C1352  C     0.85060   0.82271   0.58946   0.00000  Uiso   1.00
C1353  C     0.80515   0.81576   0.95554   0.00000  Uiso   1.00
C1354  C     0.86470   0.81824   0.54118   0.00000  Uiso   1.00
C1355  C     0.76081   0.79515   0.98071   0.00000  Uiso   1.00
C1356  C     0.91311   0.82895   0.51212   0.00000  Uiso   1.00
C1357  C     0.84284   0.81615   0.97296   0.00000  Uiso   1.00
C1358  C     0.83066   0.80693   0.52103   0.00000  Uiso   1.00
H1359  H     0.71787   0.76353   0.54496   0.00000  Uiso   1.00
H1360  H     0.96437   0.83702   0.94152   0.00000  Uiso   1.00
H1361  H     0.81240   0.82064   0.61171   0.00000  Uiso   1.00
H1362  H     0.84055   0.85653   0.89668   0.00000  Uiso   1.00
H1363  H     0.69535   0.76895   0.97777   0.00000  Uiso   1.00
H1364  H     0.98437   0.84685   0.50864   0.00000  Uiso   1.00
H1365  H     0.89578   0.96239   0.77034   0.00000  Uiso   1.00
H1366  H     0.77136   0.70433   0.72876   0.00000  Uiso   1.00
H1367  H     0.89584   0.70426   0.77021   0.00000  Uiso   1.00
H1368  H     0.77122   0.96242   0.72902   0.00000  Uiso   1.00
H1369  H     0.97351   0.77720   0.71134   0.00000  Uiso   1.00
H1370  H     0.69297   0.88921   0.78914   0.00000  Uiso   1.00
H1371  H     0.72431   0.77739   0.71101   0.00000  Uiso   1.00
H1372  H     0.94229   0.88917   0.78916   0.00000  Uiso   1.00
N1373  N     0.71426   0.83334   0.75001   0.00000  Uiso   1.00
N1374  N     0.95241   0.83332   0.74999   0.00000  Uiso   1.00
O1375  O     0.79512   0.89442   0.75001   0.00000  Uiso   1.00
O1376  O     0.87154   0.77225   0.74999   0.00000  Uiso   1.00
O1377  O     0.87157   0.89441   0.75000   0.00000  Uiso   1.00
O1378  O     0.79510   0.77226   0.75000   0.00000  Uiso   1.00
O1379  O     0.77328   0.83334   0.81612   0.00000  Uiso   1.00
O1380  O     0.89339   0.83333   0.68388   0.00000  Uiso   1.00
O1381  O     0.84972   0.83333   0.81612   0.00000  Uiso   1.00
O1382  O     0.81695   0.83334   0.68388   0.00000  Uiso   1.00
Zn1383 Zn    0.78229   0.83334   0.75000   0.00000  Uiso   1.00
Zn1384 Zn    0.88438   0.83333   0.75000   0.00000  Uiso   1.00
S1385  S     0.97890   0.85633   0.60168   0.00000  Uiso   1.00
O1386  O     0.99131   0.81959   0.62525   0.00000  Uiso   1.00
O1387  O     0.69120   0.87078   0.56215   0.00000  Uiso   1.00
O1388  O     0.95762   0.89544   0.64044   0.00000  Uiso   1.00
H1389  H     0.97966   0.89626   0.65781   0.00000  Uiso   1.00
S1390  S     0.70779   0.77148   0.88177   0.00000  Uiso   1.00
O1391  O     0.74291   0.74360   0.84531   0.00000  Uiso   1.00
O1392  O     0.66779   0.74504   0.91552   0.00000  Uiso   1.00
O1393  O     0.68301   0.80490   0.85509   0.00000  Uiso   1.00
H1394  H     0.68497   0.83273   0.86793   0.00000  Uiso   1.00
O1395  O     0.77527   0.76764   0.58967   0.00000  Uiso   1.00
C1396  C     0.79822   0.72836   0.58298   0.00000  Uiso   1.00
H1397  H     0.83872   0.73121   0.56575   0.00000  Uiso   1.00
H1398  H     0.78415   0.70735   0.56234   0.00000  Uiso   1.00
H1399  H     0.78968   0.71375   0.61784   0.00000  Uiso   1.00
O1400  O     0.91018   0.82156   0.89500   0.00000  Uiso   1.00
C1401  C     0.90951   0.77995   0.88032   0.00000  Uiso   1.00
H1402  H     0.87191   0.76958   0.88604   0.00000  Uiso   1.00
H1403  H     0.92578   0.75795   0.89811   0.00000  Uiso   1.00
H1404  H     0.93148   0.77814   0.84206   0.00000  Uiso   1.00
loop_
_geom_bond_atom_site_label_1
_geom_bond_atom_site_label_2
_geom_bond_distance
_geom_bond_site_symmetry_2
_ccdc_geom_bond_type
C1     C12     1.418   .     S
C1     O51     1.284   .     A
C1     O49     1.284   .     A
C2     O50     1.284   .     A
C2     C11     1.418   .     S
C2     O52     1.285   .     A
C3     O69     1.383   .     S
C3     C32     1.430   .     A
C3     C5      1.395   .     A
C4     O74     1.386   .     S
C4     C6      1.392   .     A
C4     C31     1.426   .     A
C5     H33     1.084   .     S
C5     C731    1.392   1_554 S
C6     H34     1.079   .     S
C6     C732    1.389   .     S
C7     C12     1.397   .     A
C7     H39     1.084   .     S
C7     C243    1.370   .     S
C8     C11     1.397   .     A
C8     H40     1.084   .     S
C8     C478    1.370   1_545 S
C9     C11     1.397   .     A
C9     H41     1.084   .     S
C9     C475    1.370   1_545 S
C10    H42     1.084   .     S
C10    C12     1.397   .     A
C10    C242    1.370   .     S
C13    H43     1.082   .     S
C13    N48     1.367   .     A
C13    C93     1.417   .     S
C14    H44     1.082   .     S
C14    N47     1.367   .     A
C14    C172    1.417   1_455 S
C15    N47     1.367   .     A
C15    H45     1.082   .     S
C15    C169    1.417   1_455 S
C16    N48     1.367   .     A
C16    H46     1.082   .     S
C16    C92     1.417   .     S
C17    O55     1.303   .     A
C17    O53     1.288   .     A
C17    C19     1.468   .     S
C18    O56     1.301   .     A
C18    C20     1.475   .     S
C18    O54     1.295   .     A
C19    C23     1.423   .     A
C19    C25     1.391   .     A
C20    C24     1.421   .     A
C20    C26     1.400   .     A
C21    C29     1.398   .     A
C21    C23     1.403   .     A
C21    H37     1.083   .     S
C22    H38     1.083   .     S
C22    C24     1.400   .     A
C22    C30     1.400   .     A
C23    S64     1.776   .     S
C24    S59     1.775   .     S
C25    C27     1.395   .     A
C25    H36     1.082   .     S
C26    C28     1.392   .     A
C26    H35     1.076   .     S
C27    C29     1.407   .     A
C27    C31     1.412   .     A
C28    C32     1.420   .     A
C28    C30     1.410   .     A
C29    C707    1.392   .     S
C30    C708    1.389   1_554 S
C31    C734    1.416   .     S
C32    C733    1.416   1_554 S
N47    Zn57    2.013   .     S
N48    Zn58    2.013   .     S
O49    Zn57    1.998   .     S
O50    Zn58    1.998   .     S
O51    Zn58    1.998   .     S
O52    Zn57    1.998   .     S
O53    Zn57    1.954   .     S
O54    Zn58    1.954   .     S
O55    Zn58    1.900   .     S
O56    Zn57    1.900   .     S
S59    O60     1.503   .     D
S59    O62     1.683   .     S
S59    O139    1.504   .     S
O61    S215    1.504   1_455 S
O62    H63     0.991   .     S
S64    O67     1.682   .     S
S64    O66     1.503   .     D
S64    O65     1.501   .     D
O67    H68     0.989   .     S
O69    C70     1.410   .     S
C70    H71     1.113   .     S
C70    H73     1.109   .     S
C70    H72     1.113   .     S
O74    C75     1.414   .     S
C75    H77     1.111   .     S
C75    H76     1.109   .     S
C75    H78     1.109   .     S
C79    C90     1.418   .     S
C79    O129    1.284   .     A
C79    O127    1.284   .     A
C80    O128    1.284   .     A
C80    C89     1.418   .     S
C80    O130    1.285   .     A
C81    O147    1.383   .     S
C81    C110    1.430   .     A
C81    C83     1.395   .     A
C82    O152    1.386   .     S
C82    C84     1.392   .     A
C82    C109    1.426   .     A
C83    H111    1.084   .     S
C83    C809    1.392   1_554 S
C84    H112    1.079   .     S
C84    C810    1.389   .     S
C85    C90     1.397   .     A
C85    H117    1.084   .     S
C85    C321    1.370   .     S
C86    C89     1.397   .     A
C86    H118    1.084   .     S
C86    C556    1.370   1_545 S
C87    C89     1.397   .     A
C87    H119    1.084   .     S
C87    C553    1.370   1_545 S
C88    H120    1.084   .     S
C88    C90     1.397   .     A
C88    C320    1.370   .     S
C91    H121    1.082   .     S
C91    N126    1.367   .     A
C91    C171    1.417   .     S
C92    H122    1.082   .     S
C92    N125    1.367   .     A
C93    N125    1.367   .     A
C93    H123    1.082   .     S
C94    N126    1.367   .     A
C94    H124    1.082   .     S
C94    C170    1.417   .     S
C95    O133    1.303   .     A
C95    O131    1.288   .     A
C95    C97     1.468   .     S
C96    O134    1.301   .     A
C96    C98     1.475   .     S
C96    O132    1.295   .     A
C97    C101    1.423   .     A
C97    C103    1.391   .     A
C98    C102    1.421   .     A
C98    C104    1.400   .     A
C99    C107    1.398   .     A
C99    C101    1.403   .     A
C99    H115    1.083   .     S
C100   H116    1.083   .     S
C100   C102    1.400   .     A
C100   C108    1.400   .     A
C101   S142    1.776   .     S
C102   S137    1.775   .     S
C103   C105    1.395   .     A
C103   H114    1.082   .     S
C104   C106    1.392   .     A
C104   H113    1.076   .     S
C105   C107    1.407   .     A
C105   C109    1.412   .     A
C106   C110    1.420   .     A
C106   C108    1.410   .     A
C107   C785    1.392   .     S
C108   C786    1.389   1_554 S
C109   C812    1.416   .     S
C110   C811    1.416   1_554 S
N125   Zn135   2.013   .     S
N126   Zn136   2.013   .     S
O127   Zn135   1.998   .     S
O128   Zn136   1.998   .     S
O129   Zn136   1.998   .     S
O130   Zn135   1.998   .     S
O131   Zn135   1.954   .     S
O132   Zn136   1.954   .     S
O133   Zn136   1.900   .     S
O134   Zn135   1.900   .     S
S137   O138    1.503   .     D
S137   O140    1.683   .     S
S137   O217    1.504   .     S
O140   H141    0.991   .     S
S142   O145    1.682   .     S
S142   O144    1.503   .     D
S142   O143    1.501   .     D
O145   H146    0.989   .     S
O147   C148    1.410   .     S
C148   H149    1.113   .     S
C148   H151    1.109   .     S
C148   H150    1.113   .     S
O152   C153    1.414   .     S
C153   H155    1.111   .     S
C153   H154    1.109   .     S
C153   H156    1.109   .     S
C157   C168    1.418   .     S
C157   O207    1.284   .     A
C157   O205    1.284   .     A
C158   O206    1.284   .     A
C158   C167    1.418   .     S
C158   O208    1.285   .     A
C159   O225    1.383   .     S
C159   C188    1.430   .     A
C159   C161    1.395   .     A
C160   O230    1.386   .     S
C160   C162    1.392   .     A
C160   C187    1.426   .     A
C161   H189    1.084   .     S
C161   C887    1.392   1_554 S
C162   H190    1.079   .     S
C162   C888    1.389   .     S
C163   C168    1.397   .     A
C163   H195    1.084   .     S
C163   C399    1.370   .     S
C164   C167    1.397   .     A
C164   H196    1.084   .     S
C164   C634    1.370   1_545 S
C165   C167    1.397   .     A
C165   H197    1.084   .     S
C165   C631    1.370   1_545 S
C166   H198    1.084   .     S
C166   C168    1.397   .     A
C166   C398    1.370   .     S
C169   H199    1.082   .     S
C169   N204    1.367   .     A
C169   C15     1.417   1_655 S
C170   H200    1.082   .     S
C170   N203    1.367   .     A
C171   N203    1.367   .     A
C171   H201    1.082   .     S
C172   N204    1.367   .     A
C172   H202    1.082   .     S
C172   C14     1.417   1_655 S
C173   O211    1.303   .     A
C173   O209    1.288   .     A
C173   C175    1.468   .     S
C174   O212    1.301   .     A
C174   C176    1.475   .     S
C174   O210    1.295   .     A
C175   C179    1.423   .     A
C175   C181    1.391   .     A
C176   C180    1.421   .     A
C176   C182    1.400   .     A
C177   C185    1.398   .     A
C177   C179    1.403   .     A
C177   H193    1.083   .     S
C178   H194    1.083   .     S
C178   C180    1.400   .     A
C178   C186    1.400   .     A
C179   S220    1.776   .     S
C180   S215    1.775   .     S
C181   C183    1.395   .     A
C181   H192    1.082   .     S
C182   C184    1.392   .     A
C182   H191    1.076   .     S
C183   C185    1.407   .     A
C183   C187    1.412   .     A
C184   C188    1.420   .     A
C184   C186    1.410   .     A
C185   C863    1.392   .     S
C186   C864    1.389   1_554 S
C187   C890    1.416   .     S
C188   C889    1.416   1_554 S
N203   Zn213   2.013   .     S
N204   Zn214   2.013   .     S
O205   Zn213   1.998   .     S
O206   Zn214   1.998   .     S
O207   Zn214   1.998   .     S
O208   Zn213   1.998   .     S
O209   Zn213   1.954   .     S
O210   Zn214   1.954   .     S
O211   Zn214   1.900   .     S
O212   Zn213   1.900   .     S
S215   O216    1.503   .     D
S215   O218    1.683   .     S
S215   O61     1.504   1_655 S
O218   H219    0.991   .     S
S220   O223    1.682   .     S
S220   O222    1.503   .     D
S220   O221    1.501   .     D
O223   H224    0.989   .     S
O225   C226    1.410   .     S
C226   H227    1.113   .     S
C226   H229    1.109   .     S
C226   H228    1.113   .     S
O230   C231    1.414   .     S
C231   H233    1.111   .     S
C231   H232    1.109   .     S
C231   H234    1.109   .     S
C235   C246    1.418   .     S
C235   O285    1.284   .     A
C235   O283    1.284   .     A
C236   O284    1.284   .     A
C236   C245    1.418   .     S
C236   O286    1.285   .     A
C237   O303    1.383   .     S
C237   C266    1.430   .     A
C237   C239    1.395   .     A
C238   O308    1.386   .     S
C238   C240    1.392   .     A
C238   C265    1.426   .     A
C239   H267    1.084   .     S
C239   C965    1.392   1_554 S
C240   H268    1.079   .     S
C240   C966    1.389   .     S
C241   C246    1.397   .     A
C241   H273    1.084   .     S
C241   C477    1.370   .     S
C242   C245    1.397   .     A
C242   H274    1.084   .     S
C243   C245    1.397   .     A
C243   H275    1.084   .     S
C244   H276    1.084   .     S
C244   C246    1.397   .     A
C244   C476    1.370   .     S
C247   H277    1.082   .     S
C247   N282    1.367   .     A
C247   C327    1.417   .     S
C248   H278    1.082   .     S
C248   N281    1.367   .     A
C248   C406    1.417   1_455 S
C249   N281    1.367   .     A
C249   H279    1.082   .     S
C249   C403    1.417   1_455 S
C250   N282    1.367   .     A
C250   H280    1.082   .     S
C250   C326    1.417   .     S
C251   O289    1.303   .     A
C251   O287    1.288   .     A
C251   C253    1.468   .     S
C252   O290    1.301   .     A
C252   C254    1.475   .     S
C252   O288    1.295   .     A
C253   C257    1.423   .     A
C253   C259    1.391   .     A
C254   C258    1.421   .     A
C254   C260    1.400   .     A
C255   C263    1.398   .     A
C255   C257    1.403   .     A
C255   H271    1.083   .     S
C256   H272    1.083   .     S
C256   C258    1.400   .     A
C256   C264    1.400   .     A
C257   S298    1.776   .     S
C258   S293    1.775   .     S
C259   C261    1.395   .     A
C259   H270    1.082   .     S
C260   C262    1.392   .     A
C260   H269    1.076   .     S
C261   C263    1.407   .     A
C261   C265    1.412   .     A
C262   C266    1.420   .     A
C262   C264    1.410   .     A
C263   C941    1.392   .     S
C264   C942    1.389   1_554 S
C265   C968    1.416   .     S
C266   C967    1.416   1_554 S
N281   Zn291   2.013   .     S
N282   Zn292   2.013   .     S
O283   Zn291   1.998   .     S
O284   Zn292   1.998   .     S
O285   Zn292   1.998   .     S
O286   Zn291   1.998   .     S
O287   Zn291   1.954   .     S
O288   Zn292   1.954   .     S
O289   Zn292   1.900   .     S
O290   Zn291   1.900   .     S
S293   O294    1.503   .     D
S293   O296    1.683   .     S
S293   O373    1.504   .     S
O295   S449    1.504   1_455 S
O296   H297    0.991   .     S
S298   O301    1.682   .     S
S298   O300    1.503   .     D
S298   O299    1.501   .     D
O301   H302    0.989   .     S
O303   C304    1.410   .     S
C304   H305    1.113   .     S
C304   H307    1.109   .     S
C304   H306    1.113   .     S
O308   C309    1.414   .     S
C309   H311    1.111   .     S
C309   H310    1.109   .     S
C309   H312    1.109   .     S
C313   C324    1.418   .     S
C313   O363    1.284   .     A
C313   O361    1.284   .     A
C314   O362    1.284   .     A
C314   C323    1.418   .     S
C314   O364    1.285   .     A
C315   O381    1.383   .     S
C315   C344    1.430   .     A
C315   C317    1.395   .     A
C316   O386    1.386   .     S
C316   C318    1.392   .     A
C316   C343    1.426   .     A
C317   H345    1.084   .     S
C317   C1043   1.392   1_554 S
C318   H346    1.079   .     S
C318   C1044   1.389   .     S
C319   C324    1.397   .     A
C319   H351    1.084   .     S
C319   C555    1.370   .     S
C320   C323    1.397   .     A
C320   H352    1.084   .     S
C321   C323    1.397   .     A
C321   H353    1.084   .     S
C322   H354    1.084   .     S
C322   C324    1.397   .     A
C322   C554    1.370   .     S
C325   H355    1.082   .     S
C325   N360    1.367   .     A
C325   C405    1.417   .     S
C326   H356    1.082   .     S
C326   N359    1.367   .     A
C327   N359    1.367   .     A
C327   H357    1.082   .     S
C328   N360    1.367   .     A
C328   H358    1.082   .     S
C328   C404    1.417   .     S
C329   O367    1.303   .     A
C329   O365    1.288   .     A
C329   C331    1.468   .     S
C330   O368    1.301   .     A
C330   C332    1.475   .     S
C330   O366    1.295   .     A
C331   C335    1.423   .     A
C331   C337    1.391   .     A
C332   C336    1.421   .     A
C332   C338    1.400   .     A
C333   C341    1.398   .     A
C333   C335    1.403   .     A
C333   H349    1.083   .     S
C334   H350    1.083   .     S
C334   C336    1.400   .     A
C334   C342    1.400   .     A
C335   S376    1.776   .     S
C336   S371    1.775   .     S
C337   C339    1.395   .     A
C337   H348    1.082   .     S
C338   C340    1.392   .     A
C338   H347    1.076   .     S
C339   C341    1.407   .     A
C339   C343    1.412   .     A
C340   C344    1.420   .     A
C340   C342    1.410   .     A
C341   C1019   1.392   .     S
C342   C1020   1.389   1_554 S
C343   C1046   1.416   .     S
C344   C1045   1.416   1_554 S
N359   Zn369   2.013   .     S
N360   Zn370   2.013   .     S
O361   Zn369   1.998   .     S
O362   Zn370   1.998   .     S
O363   Zn370   1.998   .     S
O364   Zn369   1.998   .     S
O365   Zn369   1.954   .     S
O366   Zn370   1.954   .     S
O367   Zn370   1.900   .     S
O368   Zn369   1.900   .     S
S371   O372    1.503   .     D
S371   O374    1.683   .     S
S371   O451    1.504   .     S
O374   H375    0.991   .     S
S376   O379    1.682   .     S
S376   O378    1.503   .     D
S376   O377    1.501   .     D
O379   H380    0.989   .     S
O381   C382    1.410   .     S
C382   H383    1.113   .     S
C382   H385    1.109   .     S
C382   H384    1.113   .     S
O386   C387    1.414   .     S
C387   H389    1.111   .     S
C387   H388    1.109   .     S
C387   H390    1.109   .     S
C391   C402    1.418   .     S
C391   O441    1.284   .     A
C391   O439    1.284   .     A
C392   O440    1.284   .     A
C392   C401    1.418   .     S
C392   O442    1.285   .     A
C393   O459    1.383   .     S
C393   C422    1.430   .     A
C393   C395    1.395   .     A
C394   O464    1.386   .     S
C394   C396    1.392   .     A
C394   C421    1.426   .     A
C395   H423    1.084   .     S
C395   C1121   1.392   1_554 S
C396   H424    1.079   .     S
C396   C1122   1.389   .     S
C397   C402    1.397   .     A
C397   H429    1.084   .     S
C397   C633    1.370   .     S
C398   C401    1.397   .     A
C398   H430    1.084   .     S
C399   C401    1.397   .     A
C399   H431    1.084   .     S
C400   H432    1.084   .     S
C400   C402    1.397   .     A
C400   C632    1.370   .     S
C403   H433    1.082   .     S
C403   N438    1.367   .     A
C403   C249    1.417   1_655 S
C404   H434    1.082   .     S
C404   N437    1.367   .     A
C405   N437    1.367   .     A
C405   H435    1.082   .     S
C406   N438    1.367   .     A
C406   H436    1.082   .     S
C406   C248    1.417   1_655 S
C407   O445    1.303   .     A
C407   O443    1.288   .     A
C407   C409    1.468   .     S
C408   O446    1.301   .     A
C408   C410    1.475   .     S
C408   O444    1.295   .     A
C409   C413    1.423   .     A
C409   C415    1.391   .     A
C410   C414    1.421   .     A
C410   C416    1.400   .     A
C411   C419    1.398   .     A
C411   C413    1.403   .     A
C411   H427    1.083   .     S
C412   H428    1.083   .     S
C412   C414    1.400   .     A
C412   C420    1.400   .     A
C413   S454    1.776   .     S
C414   S449    1.775   .     S
C415   C417    1.395   .     A
C415   H426    1.082   .     S
C416   C418    1.392   .     A
C416   H425    1.076   .     S
C417   C419    1.407   .     A
C417   C421    1.412   .     A
C418   C422    1.420   .     A
C418   C420    1.410   .     A
C419   C1097   1.392   .     S
C420   C1098   1.389   1_554 S
C421   C1124   1.416   .     S
C422   C1123   1.416   1_554 S
N437   Zn447   2.013   .     S
N438   Zn448   2.013   .     S
O439   Zn447   1.998   .     S
O440   Zn448   1.998   .     S
O441   Zn448   1.998   .     S
O442   Zn447   1.998   .     S
O443   Zn447   1.954   .     S
O444   Zn448   1.954   .     S
O445   Zn448   1.900   .     S
O446   Zn447   1.900   .     S
S449   O450    1.503   .     D
S449   O452    1.683   .     S
S449   O295    1.504   1_655 S
O452   H453    0.991   .     S
S454   O457    1.682   .     S
S454   O456    1.503   .     D
S454   O455    1.501   .     D
O457   H458    0.989   .     S
O459   C460    1.410   .     S
C460   H461    1.113   .     S
C460   H463    1.109   .     S
C460   H462    1.113   .     S
O464   C465    1.414   .     S
C465   H467    1.111   .     S
C465   H466    1.109   .     S
C465   H468    1.109   .     S
C469   C480    1.418   .     S
C469   O519    1.284   .     A
C469   O517    1.284   .     A
C470   O518    1.284   .     A
C470   C479    1.418   .     S
C470   O520    1.285   .     A
C471   O537    1.383   .     S
C471   C500    1.430   .     A
C471   C473    1.395   .     A
C472   O542    1.386   .     S
C472   C474    1.392   .     A
C472   C499    1.426   .     A
C473   H501    1.084   .     S
C473   C1199   1.392   1_554 S
C474   H502    1.079   .     S
C474   C1200   1.389   .     S
C475   C480    1.397   .     A
C475   H507    1.084   .     S
C475   C9      1.370   1_565 S
C476   C479    1.397   .     A
C476   H508    1.084   .     S
C477   C479    1.397   .     A
C477   H509    1.084   .     S
C478   H510    1.084   .     S
C478   C480    1.397   .     A
C478   C8      1.370   1_565 S
C481   H511    1.082   .     S
C481   N516    1.367   .     A
C481   C561    1.417   .     S
C482   H512    1.082   .     S
C482   N515    1.367   .     A
C482   C640    1.417   1_455 S
C483   N515    1.367   .     A
C483   H513    1.082   .     S
C483   C637    1.417   1_455 S
C484   N516    1.367   .     A
C484   H514    1.082   .     S
C484   C560    1.417   .     S
C485   O523    1.303   .     A
C485   O521    1.288   .     A
C485   C487    1.468   .     S
C486   O524    1.301   .     A
C486   C488    1.475   .     S
C486   O522    1.295   .     A
C487   C491    1.423   .     A
C487   C493    1.391   .     A
C488   C492    1.421   .     A
C488   C494    1.400   .     A
C489   C497    1.398   .     A
C489   C491    1.403   .     A
C489   H505    1.083   .     S
C490   H506    1.083   .     S
C490   C492    1.400   .     A
C490   C498    1.400   .     A
C491   S532    1.776   .     S
C492   S527    1.775   .     S
C493   C495    1.395   .     A
C493   H504    1.082   .     S
C494   C496    1.392   .     A
C494   H503    1.076   .     S
C495   C497    1.407   .     A
C495   C499    1.412   .     A
C496   C500    1.420   .     A
C496   C498    1.410   .     A
C497   C1175   1.392   .     S
C498   C1176   1.389   1_554 S
C499   C1202   1.416   .     S
C500   C1201   1.416   1_554 S
N515   Zn525   2.013   .     S
N516   Zn526   2.013   .     S
O517   Zn525   1.998   .     S
O518   Zn526   1.998   .     S
O519   Zn526   1.998   .     S
O520   Zn525   1.998   .     S
O521   Zn525   1.954   .     S
O522   Zn526   1.954   .     S
O523   Zn526   1.900   .     S
O524   Zn525   1.900   .     S
S527   O528    1.503   .     D
S527   O530    1.683   .     S
S527   O607    1.504   .     S
O529   S683    1.504   1_455 S
O530   H531    0.991   .     S
S532   O535    1.682   .     S
S532   O534    1.503   .     D
S532   O533    1.501   .     D
O535   H536    0.989   .     S
O537   C538    1.410   .     S
C538   H539    1.113   .     S
C538   H541    1.109   .     S
C538   H540    1.113   .     S
O542   C543    1.414   .     S
C543   H545    1.111   .     S
C543   H544    1.109   .     S
C543   H546    1.109   .     S
C547   C558    1.418   .     S
C547   O597    1.284   .     A
C547   O595    1.284   .     A
C548   O596    1.284   .     A
C548   C557    1.418   .     S
C548   O598    1.285   .     A
C549   O615    1.383   .     S
C549   C578    1.430   .     A
C549   C551    1.395   .     A
C550   O620    1.386   .     S
C550   C552    1.392   .     A
C550   C577    1.426   .     A
C551   H579    1.084   .     S
C551   C1277   1.392   1_554 S
C552   H580    1.079   .     S
C552   C1278   1.389   .     S
C553   C558    1.397   .     A
C553   H585    1.084   .     S
C553   C87     1.370   1_565 S
C554   C557    1.397   .     A
C554   H586    1.084   .     S
C555   C557    1.397   .     A
C555   H587    1.084   .     S
C556   H588    1.084   .     S
C556   C558    1.397   .     A
C556   C86     1.370   1_565 S
C559   H589    1.082   .     S
C559   N594    1.367   .     A
C559   C639    1.417   .     S
C560   H590    1.082   .     S
C560   N593    1.367   .     A
C561   N593    1.367   .     A
C561   H591    1.082   .     S
C562   N594    1.367   .     A
C562   H592    1.082   .     S
C562   C638    1.417   .     S
C563   O601    1.303   .     A
C563   O599    1.288   .     A
C563   C565    1.468   .     S
C564   O602    1.301   .     A
C564   C566    1.475   .     S
C564   O600    1.295   .     A
C565   C569    1.423   .     A
C565   C571    1.391   .     A
C566   C570    1.421   .     A
C566   C572    1.400   .     A
C567   C575    1.398   .     A
C567   C569    1.403   .     A
C567   H583    1.083   .     S
C568   H584    1.083   .     S
C568   C570    1.400   .     A
C568   C576    1.400   .     A
C569   S610    1.776   .     S
C570   S605    1.775   .     S
C571   C573    1.395   .     A
C571   H582    1.082   .     S
C572   C574    1.392   .     A
C572   H581    1.076   .     S
C573   C575    1.407   .     A
C573   C577    1.412   .     A
C574   C578    1.420   .     A
C574   C576    1.410   .     A
C575   C1253   1.392   .     S
C576   C1254   1.389   1_554 S
C577   C1280   1.416   .     S
C578   C1279   1.416   1_554 S
N593   Zn603   2.013   .     S
N594   Zn604   2.013   .     S
O595   Zn603   1.998   .     S
O596   Zn604   1.998   .     S
O597   Zn604   1.998   .     S
O598   Zn603   1.998   .     S
O599   Zn603   1.954   .     S
O600   Zn604   1.954   .     S
O601   Zn604   1.900   .     S
O602   Zn603   1.900   .     S
S605   O606    1.503   .     D
S605   O608    1.683   .     S
S605   O685    1.504   .     S
O608   H609    0.991   .     S
S610   O613    1.682   .     S
S610   O612    1.503   .     D
S610   O611    1.501   .     D
O613   H614    0.989   .     S
O615   C616    1.410   .     S
C616   H617    1.113   .     S
C616   H619    1.109   .     S
C616   H618    1.113   .     S
O620   C621    1.414   .     S
C621   H623    1.111   .     S
C621   H622    1.109   .     S
C621   H624    1.109   .     S
C625   C636    1.418   .     S
C625   O675    1.284   .     A
C625   O673    1.284   .     A
C626   O674    1.284   .     A
C626   C635    1.418   .     S
C626   O676    1.285   .     A
C627   O693    1.383   .     S
C627   C656    1.430   .     A
C627   C629    1.395   .     A
C628   O698    1.386   .     S
C628   C630    1.392   .     A
C628   C655    1.426   .     A
C629   H657    1.084   .     S
C629   C1355   1.392   1_554 S
C630   H658    1.079   .     S
C630   C1356   1.389   .     S
C631   C636    1.397   .     A
C631   H663    1.084   .     S
C631   C165    1.370   1_565 S
C632   C635    1.397   .     A
C632   H664    1.084   .     S
C633   C635    1.397   .     A
C633   H665    1.084   .     S
C634   H666    1.084   .     S
C634   C636    1.397   .     A
C634   C164    1.370   1_565 S
C637   H667    1.082   .     S
C637   N672    1.367   .     A
C637   C483    1.417   1_655 S
C638   H668    1.082   .     S
C638   N671    1.367   .     A
C639   N671    1.367   .     A
C639   H669    1.082   .     S
C640   N672    1.367   .     A
C640   H670    1.082   .     S
C640   C482    1.417   1_655 S
C641   O679    1.303   .     A
C641   O677    1.288   .     A
C641   C643    1.468   .     S
C642   O680    1.301   .     A
C642   C644    1.475   .     S
C642   O678    1.295   .     A
C643   C647    1.423   .     A
C643   C649    1.391   .     A
C644   C648    1.421   .     A
C644   C650    1.400   .     A
C645   C653    1.398   .     A
C645   C647    1.403   .     A
C645   H661    1.083   .     S
C646   H662    1.083   .     S
C646   C648    1.400   .     A
C646   C654    1.400   .     A
C647   S688    1.776   .     S
C648   S683    1.775   .     S
C649   C651    1.395   .     A
C649   H660    1.082   .     S
C650   C652    1.392   .     A
C650   H659    1.076   .     S
C651   C653    1.407   .     A
C651   C655    1.412   .     A
C652   C656    1.420   .     A
C652   C654    1.410   .     A
C653   C1331   1.392   .     S
C654   C1332   1.389   1_554 S
C655   C1358   1.416   .     S
C656   C1357   1.416   1_554 S
N671   Zn681   2.013   .     S
N672   Zn682   2.013   .     S
O673   Zn681   1.998   .     S
O674   Zn682   1.998   .     S
O675   Zn682   1.998   .     S
O676   Zn681   1.998   .     S
O677   Zn681   1.954   .     S
O678   Zn682   1.954   .     S
O679   Zn682   1.900   .     S
O680   Zn681   1.900   .     S
S683   O684    1.503   .     D
S683   O686    1.683   .     S
S683   O529    1.504   1_655 S
O686   H687    0.991   .     S
S688   O691    1.682   .     S
S688   O690    1.503   .     D
S688   O689    1.501   .     D
O691   H692    0.989   .     S
O693   C694    1.410   .     S
C694   H695    1.113   .     S
C694   H697    1.109   .     S
C694   H696    1.113   .     S
O698   C699    1.414   .     S
C699   H701    1.111   .     S
C699   H700    1.109   .     S
C699   H702    1.109   .     S
C703   C714    1.418   .     S
C703   O753    1.284   .     A
C703   O751    1.284   .     A
C704   O752    1.284   .     A
C704   C713    1.418   .     S
C704   O754    1.285   .     A
C705   O771    1.383   .     S
C705   C734    1.430   .     A
C705   C707    1.395   .     A
C706   O776    1.386   .     S
C706   C708    1.392   .     A
C706   C733    1.426   .     A
C707   H735    1.084   .     S
C708   H736    1.079   .     S
C708   C30     1.389   1_556 S
C709   C714    1.397   .     A
C709   H741    1.084   .     S
C709   C945    1.370   .     S
C710   C713    1.397   .     A
C710   H742    1.084   .     S
C710   C1180   1.370   1_545 S
C711   C713    1.397   .     A
C711   H743    1.084   .     S
C711   C1177   1.370   1_545 S
C712   H744    1.084   .     S
C712   C714    1.397   .     A
C712   C944    1.370   .     S
C715   H745    1.082   .     S
C715   N750    1.367   .     A
C715   C795    1.417   .     S
C716   H746    1.082   .     S
C716   N749    1.367   .     A
C716   C874    1.417   1_455 S
C717   N749    1.367   .     A
C717   H747    1.082   .     S
C717   C871    1.417   1_455 S
C718   N750    1.367   .     A
C718   H748    1.082   .     S
C718   C794    1.417   .     S
C719   O757    1.303   .     A
C719   O755    1.288   .     A
C719   C721    1.468   .     S
C720   O758    1.301   .     A
C720   C722    1.475   .     S
C720   O756    1.295   .     A
C721   C725    1.423   .     A
C721   C727    1.391   .     A
C722   C726    1.421   .     A
C722   C728    1.400   .     A
C723   C731    1.398   .     A
C723   C725    1.403   .     A
C723   H739    1.083   .     S
C724   H740    1.083   .     S
C724   C726    1.400   .     A
C724   C732    1.400   .     A
C725   S766    1.776   .     S
C726   S761    1.775   .     S
C727   C729    1.395   .     A
C727   H738    1.082   .     S
C728   C730    1.392   .     A
C728   H737    1.076   .     S
C729   C731    1.407   .     A
C729   C733    1.412   .     A
C730   C734    1.420   .     A
C730   C732    1.410   .     A
C731   C5      1.392   1_556 S
C733   C32     1.416   1_556 S
N749   Zn759   2.013   .     S
N750   Zn760   2.013   .     S
O751   Zn759   1.998   .     S
O752   Zn760   1.998   .     S
O753   Zn760   1.998   .     S
O754   Zn759   1.998   .     S
O755   Zn759   1.954   .     S
O756   Zn760   1.954   .     S
O757   Zn760   1.900   .     S
O758   Zn759   1.900   .     S
S761   O762    1.503   .     D
S761   O764    1.683   .     S
S761   O841    1.504   .     S
O763   S917    1.504   1_455 S
O764   H765    0.991   .     S
S766   O769    1.682   .     S
S766   O768    1.503   .     D
S766   O767    1.501   .     D
O769   H770    0.989   .     S
O771   C772    1.410   .     S
C772   H773    1.113   .     S
C772   H775    1.109   .     S
C772   H774    1.113   .     S
O776   C777    1.414   .     S
C777   H779    1.111   .     S
C777   H778    1.109   .     S
C777   H780    1.109   .     S
C781   C792    1.418   .     S
C781   O831    1.284   .     A
C781   O829    1.284   .     A
C782   O830    1.284   .     A
C782   C791    1.418   .     S
C782   O832    1.285   .     A
C783   O849    1.383   .     S
C783   C812    1.430   .     A
C783   C785    1.395   .     A
C784   O854    1.386   .     S
C784   C786    1.392   .     A
C784   C811    1.426   .     A
C785   H813    1.084   .     S
C786   H814    1.079   .     S
C786   C108    1.389   1_556 S
C787   C792    1.397   .     A
C787   H819    1.084   .     S
C787   C1023   1.370   .     S
C788   C791    1.397   .     A
C788   H820    1.084   .     S
C788   C1258   1.370   1_545 S
C789   C791    1.397   .     A
C789   H821    1.084   .     S
C789   C1255   1.370   1_545 S
C790   H822    1.084   .     S
C790   C792    1.397   .     A
C790   C1022   1.370   .     S
C793   H823    1.082   .     S
C793   N828    1.367   .     A
C793   C873    1.417   .     S
C794   H824    1.082   .     S
C794   N827    1.367   .     A
C795   N827    1.367   .     A
C795   H825    1.082   .     S
C796   N828    1.367   .     A
C796   H826    1.082   .     S
C796   C872    1.417   .     S
C797   O835    1.303   .     A
C797   O833    1.288   .     A
C797   C799    1.468   .     S
C798   O836    1.301   .     A
C798   C800    1.475   .     S
C798   O834    1.295   .     A
C799   C803    1.423   .     A
C799   C805    1.391   .     A
C800   C804    1.421   .     A
C800   C806    1.400   .     A
C801   C809    1.398   .     A
C801   C803    1.403   .     A
C801   H817    1.083   .     S
C802   H818    1.083   .     S
C802   C804    1.400   .     A
C802   C810    1.400   .     A
C803   S844    1.776   .     S
C804   S839    1.775   .     S
C805   C807    1.395   .     A
C805   H816    1.082   .     S
C806   C808    1.392   .     A
C806   H815    1.076   .     S
C807   C809    1.407   .     A
C807   C811    1.412   .     A
C808   C812    1.420   .     A
C808   C810    1.410   .     A
C809   C83     1.392   1_556 S
C811   C110    1.416   1_556 S
N827   Zn837   2.013   .     S
N828   Zn838   2.013   .     S
O829   Zn837   1.998   .     S
O830   Zn838   1.998   .     S
O831   Zn838   1.998   .     S
O832   Zn837   1.998   .     S
O833   Zn837   1.954   .     S
O834   Zn838   1.954   .     S
O835   Zn838   1.900   .     S
O836   Zn837   1.900   .     S
S839   O840    1.503   .     D
S839   O842    1.683   .     S
S839   O919    1.504   .     S
O842   H843    0.991   .     S
S844   O847    1.682   .     S
S844   O846    1.503   .     D
S844   O845    1.501   .     D
O847   H848    0.989   .     S
O849   C850    1.410   .     S
C850   H851    1.113   .     S
C850   H853    1.109   .     S
C850   H852    1.113   .     S
O854   C855    1.414   .     S
C855   H857    1.111   .     S
C855   H856    1.109   .     S
C855   H858    1.109   .     S
C859   C870    1.418   .     S
C859   O909    1.284   .     A
C859   O907    1.284   .     A
C860   O908    1.284   .     A
C860   C869    1.418   .     S
C860   O910    1.285   .     A
C861   O927    1.383   .     S
C861   C890    1.430   .     A
C861   C863    1.395   .     A
C862   O932    1.386   .     S
C862   C864    1.392   .     A
C862   C889    1.426   .     A
C863   H891    1.084   .     S
C864   H892    1.079   .     S
C864   C186    1.389   1_556 S
C865   C870    1.397   .     A
C865   H897    1.084   .     S
C865   C1101   1.370   .     S
C866   C869    1.397   .     A
C866   H898    1.084   .     S
C866   C1336   1.370   1_545 S
C867   C869    1.397   .     A
C867   H899    1.084   .     S
C867   C1333   1.370   1_545 S
C868   H900    1.084   .     S
C868   C870    1.397   .     A
C868   C1100   1.370   .     S
C871   H901    1.082   .     S
C871   N906    1.367   .     A
C871   C717    1.417   1_655 S
C872   H902    1.082   .     S
C872   N905    1.367   .     A
C873   N905    1.367   .     A
C873   H903    1.082   .     S
C874   N906    1.367   .     A
C874   H904    1.082   .     S
C874   C716    1.417   1_655 S
C875   O913    1.303   .     A
C875   O911    1.288   .     A
C875   C877    1.468   .     S
C876   O914    1.301   .     A
C876   C878    1.475   .     S
C876   O912    1.295   .     A
C877   C881    1.423   .     A
C877   C883    1.391   .     A
C878   C882    1.421   .     A
C878   C884    1.400   .     A
C879   C887    1.398   .     A
C879   C881    1.403   .     A
C879   H895    1.083   .     S
C880   H896    1.083   .     S
C880   C882    1.400   .     A
C880   C888    1.400   .     A
C881   S922    1.776   .     S
C882   S917    1.775   .     S
C883   C885    1.395   .     A
C883   H894    1.082   .     S
C884   C886    1.392   .     A
C884   H893    1.076   .     S
C885   C887    1.407   .     A
C885   C889    1.412   .     A
C886   C890    1.420   .     A
C886   C888    1.410   .     A
C887   C161    1.392   1_556 S
C889   C188    1.416   1_556 S
N905   Zn915   2.013   .     S
N906   Zn916   2.013   .     S
O907   Zn915   1.998   .     S
O908   Zn916   1.998   .     S
O909   Zn916   1.998   .     S
O910   Zn915   1.998   .     S
O911   Zn915   1.954   .     S
O912   Zn916   1.954   .     S
O913   Zn916   1.900   .     S
O914   Zn915   1.900   .     S
S917   O918    1.503   .     D
S917   O920    1.683   .     S
S917   O763    1.504   1_655 S
O920   H921    0.991   .     S
S922   O925    1.682   .     S
S922   O924    1.503   .     D
S922   O923    1.501   .     D
O925   H926    0.989   .     S
O927   C928    1.410   .     S
C928   H929    1.113   .     S
C928   H931    1.109   .     S
C928   H930    1.113   .     S
O932   C933    1.414   .     S
C933   H935    1.111   .     S
C933   H934    1.109   .     S
C933   H936    1.109   .     S
C937   C948    1.418   .     S
C937   O987    1.284   .     A
C937   O985    1.284   .     A
C938   O986    1.284   .     A
C938   C947    1.418   .     S
C938   O988    1.285   .     A
C939   O1005   1.383   .     S
C939   C968    1.430   .     A
C939   C941    1.395   .     A
C940   O1010   1.386   .     S
C940   C942    1.392   .     A
C940   C967    1.426   .     A
C941   H969    1.084   .     S
C942   H970    1.079   .     S
C942   C264    1.389   1_556 S
C943   C948    1.397   .     A
C943   H975    1.084   .     S
C943   C1179   1.370   .     S
C944   C947    1.397   .     A
C944   H976    1.084   .     S
C945   C947    1.397   .     A
C945   H977    1.084   .     S
C946   H978    1.084   .     S
C946   C948    1.397   .     A
C946   C1178   1.370   .     S
C949   H979    1.082   .     S
C949   N984    1.367   .     A
C949   C1029   1.417   .     S
C950   H980    1.082   .     S
C950   N983    1.367   .     A
C950   C1108   1.417   1_455 S
C951   N983    1.367   .     A
C951   H981    1.082   .     S
C951   C1105   1.417   1_455 S
C952   N984    1.367   .     A
C952   H982    1.082   .     S
C952   C1028   1.417   .     S
C953   O991    1.303   .     A
C953   O989    1.288   .     A
C953   C955    1.468   .     S
C954   O992    1.301   .     A
C954   C956    1.475   .     S
C954   O990    1.295   .     A
C955   C959    1.423   .     A
C955   C961    1.391   .     A
C956   C960    1.421   .     A
C956   C962    1.400   .     A
C957   C965    1.398   .     A
C957   C959    1.403   .     A
C957   H973    1.083   .     S
C958   H974    1.083   .     S
C958   C960    1.400   .     A
C958   C966    1.400   .     A
C959   S1000   1.776   .     S
C960   S995    1.775   .     S
C961   C963    1.395   .     A
C961   H972    1.082   .     S
C962   C964    1.392   .     A
C962   H971    1.076   .     S
C963   C965    1.407   .     A
C963   C967    1.412   .     A
C964   C968    1.420   .     A
C964   C966    1.410   .     A
C965   C239    1.392   1_556 S
C967   C266    1.416   1_556 S
N983   Zn993   2.013   .     S
N984   Zn994   2.013   .     S
O985   Zn993   1.998   .     S
O986   Zn994   1.998   .     S
O987   Zn994   1.998   .     S
O988   Zn993   1.998   .     S
O989   Zn993   1.954   .     S
O990   Zn994   1.954   .     S
O991   Zn994   1.900   .     S
O992   Zn993   1.900   .     S
S995   O996    1.503   .     D
S995   O998    1.683   .     S
S995   O1075   1.504   .     S
O997   S1151   1.504   1_455 S
O998   H999    0.991   .     S
S1000  O1003   1.682   .     S
S1000  O1002   1.503   .     D
S1000  O1001   1.501   .     D
O1003  H1004   0.989   .     S
O1005  C1006   1.410   .     S
C1006  H1007   1.113   .     S
C1006  H1009   1.109   .     S
C1006  H1008   1.113   .     S
O1010  C1011   1.414   .     S
C1011  H1013   1.111   .     S
C1011  H1012   1.109   .     S
C1011  H1014   1.109   .     S
C1015  C1026   1.418   .     S
C1015  O1065   1.284   .     A
C1015  O1063   1.284   .     A
C1016  O1064   1.284   .     A
C1016  C1025   1.418   .     S
C1016  O1066   1.285   .     A
C1017  O1083   1.383   .     S
C1017  C1046   1.430   .     A
C1017  C1019   1.395   .     A
C1018  O1088   1.386   .     S
C1018  C1020   1.392   .     A
C1018  C1045   1.426   .     A
C1019  H1047   1.084   .     S
C1020  H1048   1.079   .     S
C1020  C342    1.389   1_556 S
C1021  C1026   1.397   .     A
C1021  H1053   1.084   .     S
C1021  C1257   1.370   .     S
C1022  C1025   1.397   .     A
C1022  H1054   1.084   .     S
C1023  C1025   1.397   .     A
C1023  H1055   1.084   .     S
C1024  H1056   1.084   .     S
C1024  C1026   1.397   .     A
C1024  C1256   1.370   .     S
C1027  H1057   1.082   .     S
C1027  N1062   1.367   .     A
C1027  C1107   1.417   .     S
C1028  H1058   1.082   .     S
C1028  N1061   1.367   .     A
C1029  N1061   1.367   .     A
C1029  H1059   1.082   .     S
C1030  N1062   1.367   .     A
C1030  H1060   1.082   .     S
C1030  C1106   1.417   .     S
C1031  O1069   1.303   .     A
C1031  O1067   1.288   .     A
C1031  C1033   1.468   .     S
C1032  O1070   1.301   .     A
C1032  C1034   1.475   .     S
C1032  O1068   1.295   .     A
C1033  C1037   1.423   .     A
C1033  C1039   1.391   .     A
C1034  C1038   1.421   .     A
C1034  C1040   1.400   .     A
C1035  C1043   1.398   .     A
C1035  C1037   1.403   .     A
C1035  H1051   1.083   .     S
C1036  H1052   1.083   .     S
C1036  C1038   1.400   .     A
C1036  C1044   1.400   .     A
C1037  S1078   1.776   .     S
C1038  S1073   1.775   .     S
C1039  C1041   1.395   .     A
C1039  H1050   1.082   .     S
C1040  C1042   1.392   .     A
C1040  H1049   1.076   .     S
C1041  C1043   1.407   .     A
C1041  C1045   1.412   .     A
C1042  C1046   1.420   .     A
C1042  C1044   1.410   .     A
C1043  C317    1.392   1_556 S
C1045  C344    1.416   1_556 S
N1061  Zn1071  2.013   .     S
N1062  Zn1072  2.013   .     S
O1063  Zn1071  1.998   .     S
O1064  Zn1072  1.998   .     S
O1065  Zn1072  1.998   .     S
O1066  Zn1071  1.998   .     S
O1067  Zn1071  1.954   .     S
O1068  Zn1072  1.954   .     S
O1069  Zn1072  1.900   .     S
O1070  Zn1071  1.900   .     S
S1073  O1074   1.503   .     D
S1073  O1076   1.683   .     S
S1073  O1153   1.504   .     S
O1076  H1077   0.991   .     S
S1078  O1081   1.682   .     S
S1078  O1080   1.503   .     D
S1078  O1079   1.501   .     D
O1081  H1082   0.989   .     S
O1083  C1084   1.410   .     S
C1084  H1085   1.113   .     S
C1084  H1087   1.109   .     S
C1084  H1086   1.113   .     S
O1088  C1089   1.414   .     S
C1089  H1091   1.111   .     S
C1089  H1090   1.109   .     S
C1089  H1092   1.109   .     S
C1093  C1104   1.418   .     S
C1093  O1143   1.284   .     A
C1093  O1141   1.284   .     A
C1094  O1142   1.284   .     A
C1094  C1103   1.418   .     S
C1094  O1144   1.285   .     A
C1095  O1161   1.383   .     S
C1095  C1124   1.430   .     A
C1095  C1097   1.395   .     A
C1096  O1166   1.386   .     S
C1096  C1098   1.392   .     A
C1096  C1123   1.426   .     A
C1097  H1125   1.084   .     S
C1098  H1126   1.079   .     S
C1098  C420    1.389   1_556 S
C1099  C1104   1.397   .     A
C1099  H1131   1.084   .     S
C1099  C1335   1.370   .     S
C1100  C1103   1.397   .     A
C1100  H1132   1.084   .     S
C1101  C1103   1.397   .     A
C1101  H1133   1.084   .     S
C1102  H1134   1.084   .     S
C1102  C1104   1.397   .     A
C1102  C1334   1.370   .     S
C1105  H1135   1.082   .     S
C1105  N1140   1.367   .     A
C1105  C951    1.417   1_655 S
C1106  H1136   1.082   .     S
C1106  N1139   1.367   .     A
C1107  N1139   1.367   .     A
C1107  H1137   1.082   .     S
C1108  N1140   1.367   .     A
C1108  H1138   1.082   .     S
C1108  C950    1.417   1_655 S
C1109  O1147   1.303   .     A
C1109  O1145   1.288   .     A
C1109  C1111   1.468   .     S
C1110  O1148   1.301   .     A
C1110  C1112   1.475   .     S
C1110  O1146   1.295   .     A
C1111  C1115   1.423   .     A
C1111  C1117   1.391   .     A
C1112  C1116   1.421   .     A
C1112  C1118   1.400   .     A
C1113  C1121   1.398   .     A
C1113  C1115   1.403   .     A
C1113  H1129   1.083   .     S
C1114  H1130   1.083   .     S
C1114  C1116   1.400   .     A
C1114  C1122   1.400   .     A
C1115  S1156   1.776   .     S
C1116  S1151   1.775   .     S
C1117  C1119   1.395   .     A
C1117  H1128   1.082   .     S
C1118  C1120   1.392   .     A
C1118  H1127   1.076   .     S
C1119  C1121   1.407   .     A
C1119  C1123   1.412   .     A
C1120  C1124   1.420   .     A
C1120  C1122   1.410   .     A
C1121  C395    1.392   1_556 S
C1123  C422    1.416   1_556 S
N1139  Zn1149  2.013   .     S
N1140  Zn1150  2.013   .     S
O1141  Zn1149  1.998   .     S
O1142  Zn1150  1.998   .     S
O1143  Zn1150  1.998   .     S
O1144  Zn1149  1.998   .     S
O1145  Zn1149  1.954   .     S
O1146  Zn1150  1.954   .     S
O1147  Zn1150  1.900   .     S
O1148  Zn1149  1.900   .     S
S1151  O1152   1.503   .     D
S1151  O1154   1.683   .     S
S1151  O997    1.504   1_655 S
O1154  H1155   0.991   .     S
S1156  O1159   1.682   .     S
S1156  O1158   1.503   .     D
S1156  O1157   1.501   .     D
O1159  H1160   0.989   .     S
O1161  C1162   1.410   .     S
C1162  H1163   1.113   .     S
C1162  H1165   1.109   .     S
C1162  H1164   1.113   .     S
O1166  C1167   1.414   .     S
C1167  H1169   1.111   .     S
C1167  H1168   1.109   .     S
C1167  H1170   1.109   .     S
C1171  C1182   1.418   .     S
C1171  O1221   1.284   .     A
C1171  O1219   1.284   .     A
C1172  O1220   1.284   .     A
C1172  C1181   1.418   .     S
C1172  O1222   1.285   .     A
C1173  O1239   1.383   .     S
C1173  C1202   1.430   .     A
C1173  C1175   1.395   .     A
C1174  O1244   1.386   .     S
C1174  C1176   1.392   .     A
C1174  C1201   1.426   .     A
C1175  H1203   1.084   .     S
C1176  H1204   1.079   .     S
C1176  C498    1.389   1_556 S
C1177  C1182   1.397   .     A
C1177  H1209   1.084   .     S
C1177  C711    1.370   1_565 S
C1178  C1181   1.397   .     A
C1178  H1210   1.084   .     S
C1179  C1181   1.397   .     A
C1179  H1211   1.084   .     S
C1180  H1212   1.084   .     S
C1180  C1182   1.397   .     A
C1180  C710    1.370   1_565 S
C1183  H1213   1.082   .     S
C1183  N1218   1.367   .     A
C1183  C1263   1.417   .     S
C1184  H1214   1.082   .     S
C1184  N1217   1.367   .     A
C1184  C1342   1.417   1_455 S
C1185  N1217   1.367   .     A
C1185  H1215   1.082   .     S
C1185  C1339   1.417   1_455 S
C1186  N1218   1.367   .     A
C1186  H1216   1.082   .     S
C1186  C1262   1.417   .     S
C1187  O1225   1.303   .     A
C1187  O1223   1.288   .     A
C1187  C1189   1.468   .     S
C1188  O1226   1.301   .     A
C1188  C1190   1.475   .     S
C1188  O1224   1.295   .     A
C1189  C1193   1.423   .     A
C1189  C1195   1.391   .     A
C1190  C1194   1.421   .     A
C1190  C1196   1.400   .     A
C1191  C1199   1.398   .     A
C1191  C1193   1.403   .     A
C1191  H1207   1.083   .     S
C1192  H1208   1.083   .     S
C1192  C1194   1.400   .     A
C1192  C1200   1.400   .     A
C1193  S1234   1.776   .     S
C1194  S1229   1.775   .     S
C1195  C1197   1.395   .     A
C1195  H1206   1.082   .     S
C1196  C1198   1.392   .     A
C1196  H1205   1.076   .     S
C1197  C1199   1.407   .     A
C1197  C1201   1.412   .     A
C1198  C1202   1.420   .     A
C1198  C1200   1.410   .     A
C1199  C473    1.392   1_556 S
C1201  C500    1.416   1_556 S
N1217  Zn1227  2.013   .     S
N1218  Zn1228  2.013   .     S
O1219  Zn1227  1.998   .     S
O1220  Zn1228  1.998   .     S
O1221  Zn1228  1.998   .     S
O1222  Zn1227  1.998   .     S
O1223  Zn1227  1.954   .     S
O1224  Zn1228  1.954   .     S
O1225  Zn1228  1.900   .     S
O1226  Zn1227  1.900   .     S
S1229  O1230   1.503   .     D
S1229  O1232   1.683   .     S
S1229  O1309   1.504   .     S
O1231  S1385   1.504   1_455 S
O1232  H1233   0.991   .     S
S1234  O1237   1.682   .     S
S1234  O1236   1.503   .     D
S1234  O1235   1.501   .     D
O1237  H1238   0.989   .     S
O1239  C1240   1.410   .     S
C1240  H1241   1.113   .     S
C1240  H1243   1.109   .     S
C1240  H1242   1.113   .     S
O1244  C1245   1.414   .     S
C1245  H1247   1.111   .     S
C1245  H1246   1.109   .     S
C1245  H1248   1.109   .     S
C1249  C1260   1.418   .     S
C1249  O1299   1.284   .     A
C1249  O1297   1.284   .     A
C1250  O1298   1.284   .     A
C1250  C1259   1.418   .     S
C1250  O1300   1.285   .     A
C1251  O1317   1.383   .     S
C1251  C1280   1.430   .     A
C1251  C1253   1.395   .     A
C1252  O1322   1.386   .     S
C1252  C1254   1.392   .     A
C1252  C1279   1.426   .     A
C1253  H1281   1.084   .     S
C1254  H1282   1.079   .     S
C1254  C576    1.389   1_556 S
C1255  C1260   1.397   .     A
C1255  H1287   1.084   .     S
C1255  C789    1.370   1_565 S
C1256  C1259   1.397   .     A
C1256  H1288   1.084   .     S
C1257  C1259   1.397   .     A
C1257  H1289   1.084   .     S
C1258  H1290   1.084   .     S
C1258  C1260   1.397   .     A
C1258  C788    1.370   1_565 S
C1261  H1291   1.082   .     S
C1261  N1296   1.367   .     A
C1261  C1341   1.417   .     S
C1262  H1292   1.082   .     S
C1262  N1295   1.367   .     A
C1263  N1295   1.367   .     A
C1263  H1293   1.082   .     S
C1264  N1296   1.367   .     A
C1264  H1294   1.082   .     S
C1264  C1340   1.417   .     S
C1265  O1303   1.303   .     A
C1265  O1301   1.288   .     A
C1265  C1267   1.468   .     S
C1266  O1304   1.301   .     A
C1266  C1268   1.475   .     S
C1266  O1302   1.295   .     A
C1267  C1271   1.423   .     A
C1267  C1273   1.391   .     A
C1268  C1272   1.421   .     A
C1268  C1274   1.400   .     A
C1269  C1277   1.398   .     A
C1269  C1271   1.403   .     A
C1269  H1285   1.083   .     S
C1270  H1286   1.083   .     S
C1270  C1272   1.400   .     A
C1270  C1278   1.400   .     A
C1271  S1312   1.776   .     S
C1272  S1307   1.775   .     S
C1273  C1275   1.395   .     A
C1273  H1284   1.082   .     S
C1274  C1276   1.392   .     A
C1274  H1283   1.076   .     S
C1275  C1277   1.407   .     A
C1275  C1279   1.412   .     A
C1276  C1280   1.420   .     A
C1276  C1278   1.410   .     A
C1277  C551    1.392   1_556 S
C1279  C578    1.416   1_556 S
N1295  Zn1305  2.013   .     S
N1296  Zn1306  2.013   .     S
O1297  Zn1305  1.998   .     S
O1298  Zn1306  1.998   .     S
O1299  Zn1306  1.998   .     S
O1300  Zn1305  1.998   .     S
O1301  Zn1305  1.954   .     S
O1302  Zn1306  1.954   .     S
O1303  Zn1306  1.900   .     S
O1304  Zn1305  1.900   .     S
S1307  O1308   1.503   .     D
S1307  O1310   1.683   .     S
S1307  O1387   1.504   .     S
O1310  H1311   0.991   .     S
S1312  O1315   1.682   .     S
S1312  O1314   1.503   .     D
S1312  O1313   1.501   .     D
O1315  H1316   0.989   .     S
O1317  C1318   1.410   .     S
C1318  H1319   1.113   .     S
C1318  H1321   1.109   .     S
C1318  H1320   1.113   .     S
O1322  C1323   1.414   .     S
C1323  H1325   1.111   .     S
C1323  H1324   1.109   .     S
C1323  H1326   1.109   .     S
C1327  C1338   1.418   .     S
C1327  O1377   1.284   .     A
C1327  O1375   1.284   .     A
C1328  O1376   1.284   .     A
C1328  C1337   1.418   .     S
C1328  O1378   1.285   .     A
C1329  O1395   1.383   .     S
C1329  C1358   1.430   .     A
C1329  C1331   1.395   .     A
C1330  O1400   1.386   .     S
C1330  C1332   1.392   .     A
C1330  C1357   1.426   .     A
C1331  H1359   1.084   .     S
C1332  H1360   1.079   .     S
C1332  C654    1.389   1_556 S
C1333  C1338   1.397   .     A
C1333  H1365   1.084   .     S
C1333  C867    1.370   1_565 S
C1334  C1337   1.397   .     A
C1334  H1366   1.084   .     S
C1335  C1337   1.397   .     A
C1335  H1367   1.084   .     S
C1336  H1368   1.084   .     S
C1336  C1338   1.397   .     A
C1336  C866    1.370   1_565 S
C1339  H1369   1.082   .     S
C1339  N1374   1.367   .     A
C1339  C1185   1.417   1_655 S
C1340  H1370   1.082   .     S
C1340  N1373   1.367   .     A
C1341  N1373   1.367   .     A
C1341  H1371   1.082   .     S
C1342  N1374   1.367   .     A
C1342  H1372   1.082   .     S
C1342  C1184   1.417   1_655 S
C1343  O1381   1.303   .     A
C1343  O1379   1.288   .     A
C1343  C1345   1.468   .     S
C1344  O1382   1.301   .     A
C1344  C1346   1.475   .     S
C1344  O1380   1.295   .     A
C1345  C1349   1.423   .     A
C1345  C1351   1.391   .     A
C1346  C1350   1.421   .     A
C1346  C1352   1.400   .     A
C1347  C1355   1.398   .     A
C1347  C1349   1.403   .     A
C1347  H1363   1.083   .     S
C1348  H1364   1.083   .     S
C1348  C1350   1.400   .     A
C1348  C1356   1.400   .     A
C1349  S1390   1.776   .     S
C1350  S1385   1.775   .     S
C1351  C1353   1.395   .     A
C1351  H1362   1.082   .     S
C1352  C1354   1.392   .     A
C1352  H1361   1.076   .     S
C1353  C1355   1.407   .     A
C1353  C1357   1.412   .     A
C1354  C1358   1.420   .     A
C1354  C1356   1.410   .     A
C1355  C629    1.392   1_556 S
C1357  C656    1.416   1_556 S
N1373  Zn1383  2.013   .     S
N1374  Zn1384  2.013   .     S
O1375  Zn1383  1.998   .     S
O1376  Zn1384  1.998   .     S
O1377  Zn1384  1.998   .     S
O1378  Zn1383  1.998   .     S
O1379  Zn1383  1.954   .     S
O1380  Zn1384  1.954   .     S
O1381  Zn1384  1.900   .     S
O1382  Zn1383  1.900   .     S
S1385  O1386   1.503   .     D
S1385  O1388   1.683   .     S
S1385  O1231   1.504   1_655 S
O1388  H1389   0.991   .     S
S1390  O1393   1.682   .     S
S1390  O1392   1.503   .     D
S1390  O1391   1.501   .     D
O1393  H1394   0.989   .     S
O1395  C1396   1.410   .     S
C1396  H1397   1.113   .     S
C1396  H1399   1.109   .     S
C1396  H1398   1.113   .     S
O1400  C1401   1.414   .     S
C1401  H1403   1.111   .     S
C1401  H1402   1.109   .     S
C1401  H1404   1.109   .     S
