data_str_m1_o1_o1_pcu_sym.10
_audit_creation_date              2020-01-03
_audit_creation_method            'Materials Studio'
_symmetry_space_group_name_H-M    'P1'
_symmetry_Int_Tables_number       1
_symmetry_cell_setting            triclinic
loop_
_symmetry_equiv_pos_as_xyz
  x,y,z
_cell_length_a                    25.8583
_cell_length_b                    25.8829
_cell_length_c                    25.8800
_cell_angle_alpha                 89.9905
_cell_angle_beta                  89.9933
_cell_angle_gamma                 89.9910
loop_
_atom_site_label
_atom_site_type_symbol
_atom_site_fract_x
_atom_site_fract_y
_atom_site_fract_z
_atom_site_U_iso_or_equiv
_atom_site_adp_type
_atom_site_occupancy
C1     C     0.38995   0.24999   0.25000   0.00000  Uiso   1.00
C2     C     0.61001   0.25000   0.25000   0.00000  Uiso   1.00
C3     C     0.97272   0.79052   0.22463   0.00000  Uiso   1.00
C4     C     0.02728   0.78186   0.78562   0.00000  Uiso   1.00
C5     C     0.97273   0.29084   0.27460   0.00000  Uiso   1.00
C6     C     0.02725   0.79079   0.22531   0.00000  Uiso   1.00
C7     C     0.97273   0.28167   0.71417   0.00000  Uiso   1.00
C8     C     0.79160   0.77354   0.02725   0.00000  Uiso   1.00
C9     C     0.20785   0.22779   0.97279   0.00000  Uiso   1.00
C10    C     0.70817   0.27314   0.02724   0.00000  Uiso   1.00
C11    C     0.29205   0.72743   0.97273   0.00000  Uiso   1.00
C12    C     0.20814   0.22701   0.02728   0.00000  Uiso   1.00
C13    C     0.25000   0.75000   0.39000   0.00000  Uiso   1.00
C14    C     0.79187   0.77278   0.97276   0.00000  Uiso   1.00
C15    C     0.29184   0.72679   0.02724   0.00000  Uiso   1.00
C16    C     0.70790   0.27240   0.97275   0.00000  Uiso   1.00
C17    C     0.20792   0.77252   0.97273   0.00000  Uiso   1.00
C18    C     0.79192   0.22685   0.02723   0.00000  Uiso   1.00
C19    C     0.29224   0.27234   0.97273   0.00000  Uiso   1.00
C20    C     0.70838   0.72635   0.02726   0.00000  Uiso   1.00
C21    C     0.79217   0.22757   0.97272   0.00000  Uiso   1.00
C22    C     0.20818   0.77323   0.02723   0.00000  Uiso   1.00
C23    C     0.70809   0.72711   0.97276   0.00000  Uiso   1.00
C24    C     0.75002   0.25001   0.61003   0.00000  Uiso   1.00
C25    C     0.29200   0.27305   0.02723   0.00000  Uiso   1.00
C26    C     0.70774   0.47259   0.77180   0.00000  Uiso   1.00
C27    C     0.29236   0.52724   0.22769   0.00000  Uiso   1.00
C28    C     0.70817   0.47277   0.22683   0.00000  Uiso   1.00
C29    C     0.29177   0.52722   0.77333   0.00000  Uiso   1.00
C30    C     0.29266   0.47275   0.22853   0.00000  Uiso   1.00
C31    C     0.70779   0.52707   0.77264   0.00000  Uiso   1.00
C32    C     0.29208   0.47272   0.77253   0.00000  Uiso   1.00
C33    C     0.70784   0.52726   0.22769   0.00000  Uiso   1.00
C34    C     0.47273   0.20945   0.27534   0.00000  Uiso   1.00
C35    C     0.61001   0.75001   0.25000   0.00000  Uiso   1.00
C36    C     0.52726   0.79034   0.72429   0.00000  Uiso   1.00
C37    C     0.47273   0.71798   0.21449   0.00000  Uiso   1.00
C38    C     0.52727   0.21464   0.71804   0.00000  Uiso   1.00
C39    C     0.47273   0.79058   0.72492   0.00000  Uiso   1.00
C40    C     0.52727   0.20921   0.27470   0.00000  Uiso   1.00
C41    C     0.47272   0.21456   0.71790   0.00000  Uiso   1.00
C42    C     0.52728   0.71821   0.21448   0.00000  Uiso   1.00
C43    C     0.29181   0.77324   0.52722   0.00000  Uiso   1.00
C44    C     0.70833   0.22681   0.47275   0.00000  Uiso   1.00
C45    C     0.70844   0.77362   0.52726   0.00000  Uiso   1.00
C46    C     0.38995   0.24999   0.75000   0.00000  Uiso   1.00
C47    C     0.29141   0.22625   0.47272   0.00000  Uiso   1.00
C48    C     0.70857   0.22614   0.52725   0.00000  Uiso   1.00
C49    C     0.29207   0.77254   0.47272   0.00000  Uiso   1.00
C50    C     0.29124   0.22569   0.52724   0.00000  Uiso   1.00
C51    C     0.70817   0.77287   0.47277   0.00000  Uiso   1.00
C52    C     0.25005   0.55391   0.25003   0.00000  Uiso   1.00
C53    C     0.75012   0.44619   0.74957   0.00000  Uiso   1.00
C54    C     0.24999   0.55390   0.75003   0.00000  Uiso   1.00
C55    C     0.75001   0.44609   0.25001   0.00000  Uiso   1.00
C56    C     0.74997   0.55383   0.75037   0.00000  Uiso   1.00
C57    C     0.75001   0.74999   0.61003   0.00000  Uiso   1.00
C58    C     0.25001   0.44627   0.24997   0.00000  Uiso   1.00
C59    C     0.75002   0.55374   0.25000   0.00000  Uiso   1.00
C60    C     0.25001   0.44626   0.75000   0.00000  Uiso   1.00
C61    C     0.55393   0.75004   0.75002   0.00000  Uiso   1.00
C62    C     0.44607   0.24999   0.25000   0.00000  Uiso   1.00
C63    C     0.55373   0.24997   0.75002   0.00000  Uiso   1.00
C64    C     0.44606   0.74998   0.25000   0.00000  Uiso   1.00
C65    C     0.55374   0.25001   0.25002   0.00000  Uiso   1.00
C66    C     0.44625   0.75001   0.74998   0.00000  Uiso   1.00
C67    C     0.55374   0.75004   0.24996   0.00000  Uiso   1.00
C68    C     0.25000   0.24999   0.38999   0.00000  Uiso   1.00
C69    C     0.44606   0.24998   0.75001   0.00000  Uiso   1.00
C70    C     0.75002   0.25001   0.44626   0.00000  Uiso   1.00
C71    C     0.25000   0.75001   0.55390   0.00000  Uiso   1.00
C72    C     0.25000   0.24997   0.44626   0.00000  Uiso   1.00
C73    C     0.75003   0.74998   0.55392   0.00000  Uiso   1.00
C74    C     0.25001   0.74999   0.44626   0.00000  Uiso   1.00
C75    C     0.75004   0.25000   0.55391   0.00000  Uiso   1.00
C76    C     0.75002   0.74996   0.44627   0.00000  Uiso   1.00
C77    C     0.25005   0.25002   0.55391   0.00000  Uiso   1.00
C78    C     0.75003   0.05391   0.25001   0.00000  Uiso   1.00
C79    C     0.25001   0.39000   0.75000   0.00000  Uiso   1.00
C80    C     0.24999   0.94609   0.74996   0.00000  Uiso   1.00
C81    C     0.25001   0.05373   0.25003   0.00000  Uiso   1.00
C82    C     0.74999   0.94627   0.75003   0.00000  Uiso   1.00
C83    C     0.25002   0.05374   0.75001   0.00000  Uiso   1.00
C84    C     0.75002   0.94626   0.25000   0.00000  Uiso   1.00
C85    C     0.75003   0.05391   0.74999   0.00000  Uiso   1.00
C86    C     0.25005   0.94609   0.24999   0.00000  Uiso   1.00
C87    C     0.05374   0.75001   0.25002   0.00000  Uiso   1.00
C88    C     0.94606   0.25001   0.74999   0.00000  Uiso   1.00
C89    C     0.05394   0.74998   0.74999   0.00000  Uiso   1.00
C90    C     0.75001   0.61000   0.25001   0.00000  Uiso   1.00
C91    C     0.94626   0.25000   0.25001   0.00000  Uiso   1.00
C92    C     0.05374   0.24997   0.74996   0.00000  Uiso   1.00
C93    C     0.94607   0.74999   0.25000   0.00000  Uiso   1.00
C94    C     0.05393   0.25000   0.25000   0.00000  Uiso   1.00
C95    C     0.94626   0.75004   0.74996   0.00000  Uiso   1.00
C96    C     0.74997   0.74997   0.94627   0.00000  Uiso   1.00
C97    C     0.25007   0.25003   0.05392   0.00000  Uiso   1.00
C98    C     0.75002   0.24997   0.94626   0.00000  Uiso   1.00
C99    C     0.25001   0.75002   0.05390   0.00000  Uiso   1.00
C100   C     0.25004   0.25005   0.94627   0.00000  Uiso   1.00
C101   C     0.25003   0.61003   0.24999   0.00000  Uiso   1.00
C102   C     0.74998   0.74997   0.05392   0.00000  Uiso   1.00
C103   C     0.24999   0.74998   0.94625   0.00000  Uiso   1.00
C104   C     0.75004   0.24999   0.05391   0.00000  Uiso   1.00
C105   C     0.16270   0.44166   0.29385   0.00000  Uiso   1.00
C106   C     0.83646   0.55865   0.70473   0.00000  Uiso   1.00
C107   C     0.16398   0.44162   0.70378   0.00000  Uiso   1.00
C108   C     0.83646   0.55836   0.29550   0.00000  Uiso   1.00
C109   C     0.83674   0.44389   0.70198   0.00000  Uiso   1.00
C110   C     0.16365   0.55635   0.29822   0.00000  Uiso   1.00
C111   C     0.83563   0.44363   0.29955   0.00000  Uiso   1.00
C112   C     0.61004   0.75002   0.74999   0.00000  Uiso   1.00
C113   C     0.74998   0.38999   0.74996   0.00000  Uiso   1.00
C114   C     0.16435   0.55638   0.70049   0.00000  Uiso   1.00
C115   C     0.44154   0.66699   0.80124   0.00000  Uiso   1.00
C116   C     0.55845   0.33351   0.19956   0.00000  Uiso   1.00
C117   C     0.44344   0.32291   0.81668   0.00000  Uiso   1.00
C118   C     0.55849   0.81548   0.32218   0.00000  Uiso   1.00
C119   C     0.44353   0.33305   0.19638   0.00000  Uiso   1.00
C120   C     0.55645   0.66765   0.80462   0.00000  Uiso   1.00
C121   C     0.44344   0.81635   0.32321   0.00000  Uiso   1.00
C122   C     0.55849   0.32196   0.81574   0.00000  Uiso   1.00
C123   C     0.83510   0.30050   0.55635   0.00000  Uiso   1.00
C124   C     0.75008   0.61002   0.74999   0.00000  Uiso   1.00
C125   C     0.16406   0.70360   0.44161   0.00000  Uiso   1.00
C126   C     0.16576   0.30179   0.55638   0.00000  Uiso   1.00
C127   C     0.83557   0.70283   0.44159   0.00000  Uiso   1.00
C128   C     0.16430   0.70057   0.55639   0.00000  Uiso   1.00
C129   C     0.83525   0.29766   0.44155   0.00000  Uiso   1.00
C130   C     0.83506   0.69945   0.55638   0.00000  Uiso   1.00
C131   C     0.16537   0.29869   0.44158   0.00000  Uiso   1.00
C132   C     0.66362   0.94164   0.29559   0.00000  Uiso   1.00
C133   C     0.33614   0.05840   0.70388   0.00000  Uiso   1.00
C134   C     0.16363   0.94368   0.20185   0.00000  Uiso   1.00
C135   C     0.25000   0.39000   0.24999   0.00000  Uiso   1.00
C136   C     0.83617   0.05634   0.79866   0.00000  Uiso   1.00
C137   C     0.33550   0.94365   0.70021   0.00000  Uiso   1.00
C138   C     0.66441   0.05636   0.29956   0.00000  Uiso   1.00
C139   C     0.83664   0.94159   0.79512   0.00000  Uiso   1.00
C140   C     0.16269   0.05836   0.20621   0.00000  Uiso   1.00
C141   C     0.66407   0.05638   0.70104   0.00000  Uiso   1.00
C142   C     0.33667   0.94363   0.29780   0.00000  Uiso   1.00
C143   C     0.16393   0.05840   0.79615   0.00000  Uiso   1.00
C144   C     0.83651   0.94161   0.20458   0.00000  Uiso   1.00
C145   C     0.33728   0.05835   0.29395   0.00000  Uiso   1.00
C146   C     0.75001   0.38997   0.25001   0.00000  Uiso   1.00
C147   C     0.66321   0.94167   0.70517   0.00000  Uiso   1.00
C148   C     0.83570   0.05634   0.20054   0.00000  Uiso   1.00
C149   C     0.16432   0.94364   0.79946   0.00000  Uiso   1.00
C150   C     0.94355   0.66702   0.30374   0.00000  Uiso   1.00
C151   C     0.05851   0.18522   0.82284   0.00000  Uiso   1.00
C152   C     0.94147   0.68545   0.67696   0.00000  Uiso   1.00
C153   C     0.05648   0.16686   0.19656   0.00000  Uiso   1.00
C154   C     0.94346   0.18431   0.82381   0.00000  Uiso   1.00
C155   C     0.05847   0.66656   0.30057   0.00000  Uiso   1.00
C156   C     0.94156   0.16639   0.19974   0.00000  Uiso   1.00
C157   C     0.25000   0.61002   0.75001   0.00000  Uiso   1.00
C158   C     0.05652   0.68392   0.67651   0.00000  Uiso   1.00
C159   C     0.05643   0.33313   0.30347   0.00000  Uiso   1.00
C160   C     0.94147   0.81512   0.82251   0.00000  Uiso   1.00
C161   C     0.05855   0.31423   0.67665   0.00000  Uiso   1.00
C162   C     0.94353   0.83299   0.19629   0.00000  Uiso   1.00
C163   C     0.05652   0.81599   0.82353   0.00000  Uiso   1.00
C164   C     0.94151   0.33358   0.30031   0.00000  Uiso   1.00
C165   C     0.05844   0.83349   0.19952   0.00000  Uiso   1.00
C166   C     0.94350   0.31577   0.67621   0.00000  Uiso   1.00
C167   C     0.83524   0.80013   0.05637   0.00000  Uiso   1.00
C168   C     0.88995   0.74999   0.25000   0.00000  Uiso   1.00
C169   C     0.16361   0.20461   0.94169   0.00000  Uiso   1.00
C170   C     0.66431   0.29937   0.05636   0.00000  Uiso   1.00
C171   C     0.33595   0.70360   0.94158   0.00000  Uiso   1.00
C172   C     0.16420   0.20091   0.05641   0.00000  Uiso   1.00
C173   C     0.83579   0.79654   0.94162   0.00000  Uiso   1.00
C174   C     0.33573   0.70060   0.05637   0.00000  Uiso   1.00
C175   C     0.66382   0.29591   0.94161   0.00000  Uiso   1.00
C176   C     0.16396   0.79625   0.94157   0.00000  Uiso   1.00
C177   C     0.83580   0.20065   0.05634   0.00000  Uiso   1.00
C178   C     0.33630   0.29588   0.94155   0.00000  Uiso   1.00
C179   C     0.11002   0.24999   0.75000   0.00000  Uiso   1.00
C180   C     0.66487   0.69958   0.05640   0.00000  Uiso   1.00
C181   C     0.83620   0.20397   0.94156   0.00000  Uiso   1.00
C182   C     0.16434   0.79951   0.05635   0.00000  Uiso   1.00
C183   C     0.66433   0.70304   0.94161   0.00000  Uiso   1.00
C184   C     0.33596   0.29912   0.05634   0.00000  Uiso   1.00
C185   C     0.66341   0.44141   0.79477   0.00000  Uiso   1.00
C186   C     0.33669   0.55634   0.20221   0.00000  Uiso   1.00
C187   C     0.66441   0.44367   0.20044   0.00000  Uiso   1.00
C188   C     0.33546   0.55632   0.79984   0.00000  Uiso   1.00
C189   C     0.33729   0.44162   0.20605   0.00000  Uiso   1.00
C190   C     0.25000   0.75001   0.11003   0.00000  Uiso   1.00
C191   C     0.66349   0.55611   0.79819   0.00000  Uiso   1.00
C192   C     0.33608   0.44157   0.79620   0.00000  Uiso   1.00
C193   C     0.66367   0.55840   0.20434   0.00000  Uiso   1.00
C194   C     0.44355   0.16695   0.30363   0.00000  Uiso   1.00
C195   C     0.55645   0.83260   0.69565   0.00000  Uiso   1.00
C196   C     0.44351   0.68356   0.17684   0.00000  Uiso   1.00
C197   C     0.55855   0.17774   0.68459   0.00000  Uiso   1.00
C198   C     0.44151   0.83301   0.69871   0.00000  Uiso   1.00
C199   C     0.55848   0.16653   0.30051   0.00000  Uiso   1.00
C200   C     0.44349   0.17689   0.68351   0.00000  Uiso   1.00
C201   C     0.75001   0.24998   0.88999   0.00000  Uiso   1.00
C202   C     0.55857   0.68506   0.17730   0.00000  Uiso   1.00
C203   C     0.33564   0.79953   0.55633   0.00000  Uiso   1.00
C204   C     0.66478   0.20236   0.44160   0.00000  Uiso   1.00
C205   C     0.66483   0.80027   0.55639   0.00000  Uiso   1.00
C206   C     0.33460   0.20119   0.44154   0.00000  Uiso   1.00
C207   C     0.66513   0.19926   0.55639   0.00000  Uiso   1.00
C208   C     0.33602   0.79627   0.44155   0.00000  Uiso   1.00
C209   C     0.33452   0.19852   0.55637   0.00000  Uiso   1.00
C210   C     0.66430   0.79672   0.44164   0.00000  Uiso   1.00
C211   C     0.11005   0.74999   0.74999   0.00000  Uiso   1.00
C212   C     0.25003   0.24999   0.61003   0.00000  Uiso   1.00
C213   C     0.88999   0.25000   0.25000   0.00000  Uiso   1.00
C214   C     0.74998   0.74998   0.89000   0.00000  Uiso   1.00
C215   C     0.25004   0.25004   0.11003   0.00000  Uiso   1.00
C216   C     0.88995   0.25001   0.74999   0.00000  Uiso   1.00
C217   C     0.11001   0.75000   0.25000   0.00000  Uiso   1.00
C218   C     0.25002   0.25002   0.89000   0.00000  Uiso   1.00
C219   C     0.74999   0.74999   0.11003   0.00000  Uiso   1.00
C220   C     0.11004   0.25000   0.25000   0.00000  Uiso   1.00
C221   C     0.88998   0.75001   0.75000   0.00000  Uiso   1.00
C222   C     0.75003   0.24998   0.11003   0.00000  Uiso   1.00
C223   C     0.75001   0.74998   0.39000   0.00000  Uiso   1.00
C224   C     0.25000   0.74999   0.88999   0.00000  Uiso   1.00
C225   C     0.75000   0.89000   0.75000   0.00000  Uiso   1.00
C226   C     0.25001   0.11000   0.25001   0.00000  Uiso   1.00
C227   C     0.75001   0.11003   0.24999   0.00000  Uiso   1.00
C228   C     0.25000   0.88997   0.74999   0.00000  Uiso   1.00
C229   C     0.25001   0.11000   0.75000   0.00000  Uiso   1.00
C230   C     0.75001   0.89000   0.24999   0.00000  Uiso   1.00
C231   C     0.25002   0.88997   0.25002   0.00000  Uiso   1.00
C232   C     0.75002   0.11003   0.75001   0.00000  Uiso   1.00
C233   C     0.20739   0.47276   0.27145   0.00000  Uiso   1.00
C234   C     0.61001   0.25000   0.75001   0.00000  Uiso   1.00
C235   C     0.79231   0.52743   0.72804   0.00000  Uiso   1.00
C236   C     0.20795   0.47275   0.72746   0.00000  Uiso   1.00
C237   C     0.79223   0.52724   0.27226   0.00000  Uiso   1.00
C238   C     0.79234   0.47293   0.72735   0.00000  Uiso   1.00
C239   C     0.20778   0.52724   0.27242   0.00000  Uiso   1.00
C240   C     0.79188   0.47275   0.27315   0.00000  Uiso   1.00
C241   C     0.20819   0.52725   0.72676   0.00000  Uiso   1.00
C242   C     0.47273   0.70946   0.77508   0.00000  Uiso   1.00
C243   C     0.52726   0.29081   0.22534   0.00000  Uiso   1.00
C244   C     0.47269   0.28532   0.78220   0.00000  Uiso   1.00
C245   C     0.38995   0.74999   0.24999   0.00000  Uiso   1.00
C246   C     0.52725   0.78196   0.28535   0.00000  Uiso   1.00
C247   C     0.47272   0.29055   0.22468   0.00000  Uiso   1.00
C248   C     0.52727   0.70977   0.77579   0.00000  Uiso   1.00
C249   C     0.47270   0.78204   0.28546   0.00000  Uiso   1.00
C250   C     0.52724   0.28523   0.78210   0.00000  Uiso   1.00
C251   C     0.79153   0.27380   0.52723   0.00000  Uiso   1.00
C252   C     0.20796   0.72743   0.47275   0.00000  Uiso   1.00
C253   C     0.20888   0.27438   0.52724   0.00000  Uiso   1.00
C254   C     0.79186   0.72701   0.47274   0.00000  Uiso   1.00
C255   C     0.20818   0.72678   0.52725   0.00000  Uiso   1.00
C256   C     0.75001   0.25001   0.39000   0.00000  Uiso   1.00
C257   C     0.79173   0.27319   0.47272   0.00000  Uiso   1.00
C258   C     0.79158   0.72628   0.52725   0.00000  Uiso   1.00
C259   C     0.20862   0.27371   0.47274   0.00000  Uiso   1.00
C260   C     0.70782   0.97275   0.27229   0.00000  Uiso   1.00
C261   C     0.29211   0.02726   0.72750   0.00000  Uiso   1.00
C262   C     0.20777   0.97277   0.22761   0.00000  Uiso   1.00
C263   C     0.79208   0.02723   0.77279   0.00000  Uiso   1.00
C264   C     0.29179   0.97277   0.72669   0.00000  Uiso   1.00
C265   C     0.70817   0.02724   0.27316   0.00000  Uiso   1.00
C266   C     0.79235   0.97274   0.77202   0.00000  Uiso   1.00
C267   C     0.25000   0.75000   0.61003   0.00000  Uiso   1.00
C268   C     0.20739   0.02725   0.22857   0.00000  Uiso   1.00
C269   C     0.70799   0.02726   0.72717   0.00000  Uiso   1.00
C270   C     0.29235   0.97275   0.27232   0.00000  Uiso   1.00
C271   C     0.20793   0.02726   0.77251   0.00000  Uiso   1.00
C272   C     0.79225   0.97274   0.22777   0.00000  Uiso   1.00
C273   C     0.29265   0.02724   0.27147   0.00000  Uiso   1.00
C274   C     0.70762   0.97277   0.72807   0.00000  Uiso   1.00
C275   C     0.79191   0.02723   0.22689   0.00000  Uiso   1.00
C276   C     0.20818   0.97276   0.77321   0.00000  Uiso   1.00
C277   C     0.97273   0.70948   0.27539   0.00000  Uiso   1.00
C278   C     0.38998   0.75000   0.74999   0.00000  Uiso   1.00
C279   C     0.02726   0.21839   0.78567   0.00000  Uiso   1.00
C280   C     0.97273   0.71840   0.71431   0.00000  Uiso   1.00
C281   C     0.02728   0.20940   0.22477   0.00000  Uiso   1.00
C282   C     0.97271   0.21830   0.78576   0.00000  Uiso   1.00
C283   C     0.02726   0.70923   0.27474   0.00000  Uiso   1.00
C284   C     0.97275   0.20914   0.22543   0.00000  Uiso   1.00
C285   C     0.02728   0.71817   0.71432   0.00000  Uiso   1.00
C286   C     0.02726   0.29059   0.27526   0.00000  Uiso   1.00
C287   C     0.97273   0.78178   0.78551   0.00000  Uiso   1.00
C288   C     0.02728   0.28144   0.71415   0.00000  Uiso   1.00
H1     H     0.13139   0.46506   0.31109   0.00000  Uiso   1.00
H2     H     0.86750   0.53496   0.31323   0.00000  Uiso   1.00
H3     H     0.34014   0.95567   0.33884   0.00000  Uiso   1.00
H4     H     0.33201   0.90113   0.29838   0.00000  Uiso   1.00
H5     H     0.37333   0.95193   0.27707   0.00000  Uiso   1.00
H6     H     0.13308   0.03502   0.81422   0.00000  Uiso   1.00
H7     H     0.17940   0.08439   0.82659   0.00000  Uiso   1.00
H8     H     0.14513   0.08212   0.76576   0.00000  Uiso   1.00
H9     H     0.86756   0.96499   0.18686   0.00000  Uiso   1.00
H10    H     0.85501   0.91790   0.23515   0.00000  Uiso   1.00
H11    H     0.82136   0.91561   0.17398   0.00000  Uiso   1.00
H12    H     0.36852   0.03497   0.31134   0.00000  Uiso   1.00
H13    H     0.85499   0.58208   0.26494   0.00000  Uiso   1.00
H14    H     0.35542   0.08192   0.26305   0.00000  Uiso   1.00
H15    H     0.32260   0.08448   0.32468   0.00000  Uiso   1.00
H16    H     0.63206   0.96507   0.68765   0.00000  Uiso   1.00
H17    H     0.67816   0.91564   0.67448   0.00000  Uiso   1.00
H18    H     0.64487   0.91797   0.73586   0.00000  Uiso   1.00
H19    H     0.83850   0.04415   0.15950   0.00000  Uiso   1.00
H20    H     0.83085   0.09882   0.19988   0.00000  Uiso   1.00
H21    H     0.87273   0.04820   0.22068   0.00000  Uiso   1.00
H22    H     0.16179   0.95540   0.84064   0.00000  Uiso   1.00
H23    H     0.12724   0.95224   0.77959   0.00000  Uiso   1.00
H24    H     0.82128   0.58436   0.32609   0.00000  Uiso   1.00
H25    H     0.16880   0.90111   0.79959   0.00000  Uiso   1.00
H26    H     0.95226   0.62904   0.28581   0.00000  Uiso   1.00
H27    H     0.95519   0.66661   0.34504   0.00000  Uiso   1.00
H28    H     0.90097   0.67147   0.30344   0.00000  Uiso   1.00
H29    H     0.03514   0.16136   0.84947   0.00000  Uiso   1.00
H30    H     0.08355   0.15839   0.80061   0.00000  Uiso   1.00
H31    H     0.08332   0.21041   0.84710   0.00000  Uiso   1.00
H32    H     0.96484   0.66151   0.65040   0.00000  Uiso   1.00
H33    H     0.91620   0.65869   0.69905   0.00000  Uiso   1.00
H34    H     0.91687   0.71080   0.65260   0.00000  Uiso   1.00
H35    H     0.83984   0.45539   0.66076   0.00000  Uiso   1.00
H36    H     0.04780   0.12892   0.21463   0.00000  Uiso   1.00
H37    H     0.04482   0.16630   0.15527   0.00000  Uiso   1.00
H38    H     0.09905   0.17132   0.19682   0.00000  Uiso   1.00
H39    H     0.95354   0.19558   0.86397   0.00000  Uiso   1.00
H40    H     0.90083   0.18684   0.82074   0.00000  Uiso   1.00
H41    H     0.95372   0.14317   0.81726   0.00000  Uiso   1.00
H42    H     0.03509   0.63653   0.31994   0.00000  Uiso   1.00
H43    H     0.08242   0.64652   0.27116   0.00000  Uiso   1.00
H44    H     0.08430   0.68354   0.33035   0.00000  Uiso   1.00
H45    H     0.96496   0.13629   0.18048   0.00000  Uiso   1.00
H46    H     0.87346   0.45280   0.72236   0.00000  Uiso   1.00
H47    H     0.91760   0.14644   0.22920   0.00000  Uiso   1.00
H48    H     0.91574   0.18328   0.16989   0.00000  Uiso   1.00
H49    H     0.04675   0.69518   0.63628   0.00000  Uiso   1.00
H50    H     0.09915   0.68616   0.67986   0.00000  Uiso   1.00
H51    H     0.04597   0.64286   0.68309   0.00000  Uiso   1.00
H52    H     0.04773   0.37107   0.28541   0.00000  Uiso   1.00
H53    H     0.04478   0.33367   0.34476   0.00000  Uiso   1.00
H54    H     0.09901   0.32869   0.30319   0.00000  Uiso   1.00
H55    H     0.96483   0.83911   0.84902   0.00000  Uiso   1.00
H56    H     0.91644   0.84186   0.80013   0.00000  Uiso   1.00
H57    H     0.83244   0.40134   0.70209   0.00000  Uiso   1.00
H58    H     0.91664   0.79006   0.84688   0.00000  Uiso   1.00
H59    H     0.03518   0.33804   0.64997   0.00000  Uiso   1.00
H60    H     0.08381   0.34108   0.69862   0.00000  Uiso   1.00
H61    H     0.08316   0.28877   0.65241   0.00000  Uiso   1.00
H62    H     0.95219   0.87097   0.21425   0.00000  Uiso   1.00
H63    H     0.95521   0.83343   0.15500   0.00000  Uiso   1.00
H64    H     0.90096   0.82851   0.19656   0.00000  Uiso   1.00
H65    H     0.04640   0.80490   0.86373   0.00000  Uiso   1.00
H66    H     0.09915   0.81340   0.82050   0.00000  Uiso   1.00
H67    H     0.04630   0.85711   0.81678   0.00000  Uiso   1.00
H68    H     0.16015   0.54395   0.33914   0.00000  Uiso   1.00
H69    H     0.96489   0.36367   0.31960   0.00000  Uiso   1.00
H70    H     0.91756   0.35355   0.27086   0.00000  Uiso   1.00
H71    H     0.91568   0.31667   0.33015   0.00000  Uiso   1.00
H72    H     0.03505   0.86354   0.18018   0.00000  Uiso   1.00
H73    H     0.08238   0.85350   0.22894   0.00000  Uiso   1.00
H74    H     0.08429   0.81654   0.16972   0.00000  Uiso   1.00
H75    H     0.95326   0.30434   0.63602   0.00000  Uiso   1.00
H76    H     0.90087   0.31357   0.67959   0.00000  Uiso   1.00
H77    H     0.95407   0.35686   0.68261   0.00000  Uiso   1.00
H78    H     0.83746   0.84131   0.04454   0.00000  Uiso   1.00
H79    H     0.16863   0.59880   0.29922   0.00000  Uiso   1.00
H80    H     0.83072   0.80026   0.09890   0.00000  Uiso   1.00
H81    H     0.87246   0.78051   0.04781   0.00000  Uiso   1.00
H82    H     0.13273   0.18657   0.96505   0.00000  Uiso   1.00
H83    H     0.14493   0.23534   0.91833   0.00000  Uiso   1.00
H84    H     0.17877   0.17428   0.91538   0.00000  Uiso   1.00
H85    H     0.66170   0.34052   0.04451   0.00000  Uiso   1.00
H86    H     0.62727   0.27942   0.04786   0.00000  Uiso   1.00
H87    H     0.66886   0.29960   0.09889   0.00000  Uiso   1.00
H88    H     0.36682   0.68556   0.96497   0.00000  Uiso   1.00
H89    H     0.32036   0.67309   0.91574   0.00000  Uiso   1.00
H90    H     0.12693   0.54844   0.27744   0.00000  Uiso   1.00
H91    H     0.35478   0.73383   0.91767   0.00000  Uiso   1.00
H92    H     0.16144   0.15978   0.04451   0.00000  Uiso   1.00
H93    H     0.16877   0.20060   0.09893   0.00000  Uiso   1.00
H94    H     0.12722   0.22100   0.04794   0.00000  Uiso   1.00
H95    H     0.86647   0.81491   0.96497   0.00000  Uiso   1.00
H96    H     0.85478   0.76607   0.91818   0.00000  Uiso   1.00
H97    H     0.82021   0.82673   0.91539   0.00000  Uiso   1.00
H98    H     0.33824   0.65940   0.04470   0.00000  Uiso   1.00
H99    H     0.37280   0.72045   0.04768   0.00000  Uiso   1.00
H100   H     0.33129   0.70058   0.09890   0.00000  Uiso   1.00
H101   H     0.83839   0.45582   0.34059   0.00000  Uiso   1.00
H102   H     0.63294   0.31392   0.96499   0.00000  Uiso   1.00
H103   H     0.67921   0.32636   0.91556   0.00000  Uiso   1.00
H104   H     0.64508   0.26545   0.91794   0.00000  Uiso   1.00
H105   H     0.13307   0.81426   0.96495   0.00000  Uiso   1.00
H106   H     0.17948   0.82676   0.91567   0.00000  Uiso   1.00
H107   H     0.14516   0.76597   0.91771   0.00000  Uiso   1.00
H108   H     0.83841   0.15949   0.04453   0.00000  Uiso   1.00
H109   H     0.87284   0.22060   0.04778   0.00000  Uiso   1.00
H110   H     0.83127   0.20047   0.09887   0.00000  Uiso   1.00
H111   H     0.36726   0.31375   0.96493   0.00000  Uiso   1.00
H112   H     0.14465   0.41807   0.26292   0.00000  Uiso   1.00
H113   H     0.83077   0.40115   0.30022   0.00000  Uiso   1.00
H114   H     0.35496   0.26553   0.91768   0.00000  Uiso   1.00
H115   H     0.32088   0.32646   0.91567   0.00000  Uiso   1.00
H116   H     0.66266   0.65845   0.04444   0.00000  Uiso   1.00
H117   H     0.66959   0.69926   0.09890   0.00000  Uiso   1.00
H118   H     0.62759   0.71918   0.04806   0.00000  Uiso   1.00
H119   H     0.86714   0.18604   0.96495   0.00000  Uiso   1.00
H120   H     0.82076   0.17342   0.91567   0.00000  Uiso   1.00
H121   H     0.85491   0.23431   0.91770   0.00000  Uiso   1.00
H122   H     0.16183   0.84068   0.04455   0.00000  Uiso   1.00
H123   H     0.12726   0.77965   0.04777   0.00000  Uiso   1.00
H124   H     0.87268   0.45174   0.27945   0.00000  Uiso   1.00
H125   H     0.16885   0.79966   0.09887   0.00000  Uiso   1.00
H126   H     0.63349   0.68498   0.96502   0.00000  Uiso   1.00
H127   H     0.64542   0.73314   0.91760   0.00000  Uiso   1.00
H128   H     0.68008   0.67253   0.91587   0.00000  Uiso   1.00
H129   H     0.33864   0.34028   0.04455   0.00000  Uiso   1.00
H130   H     0.33147   0.29928   0.09887   0.00000  Uiso   1.00
H131   H     0.37295   0.27910   0.04774   0.00000  Uiso   1.00
H132   H     0.63244   0.46470   0.81276   0.00000  Uiso   1.00
H133   H     0.64484   0.41811   0.76394   0.00000  Uiso   1.00
H134   H     0.67846   0.41506   0.82513   0.00000  Uiso   1.00
H135   H     0.16186   0.54463   0.65930   0.00000  Uiso   1.00
H136   H     0.34016   0.54431   0.16118   0.00000  Uiso   1.00
H137   H     0.33203   0.59885   0.20165   0.00000  Uiso   1.00
H138   H     0.37334   0.54802   0.22295   0.00000  Uiso   1.00
H139   H     0.66171   0.45581   0.15937   0.00000  Uiso   1.00
H140   H     0.66922   0.40118   0.19985   0.00000  Uiso   1.00
H141   H     0.62735   0.45186   0.22049   0.00000  Uiso   1.00
H142   H     0.33799   0.54427   0.84094   0.00000  Uiso   1.00
H143   H     0.37259   0.54805   0.77994   0.00000  Uiso   1.00
H144   H     0.33070   0.59882   0.80030   0.00000  Uiso   1.00
H145   H     0.36854   0.46500   0.18867   0.00000  Uiso   1.00
H146   H     0.12727   0.54778   0.72034   0.00000  Uiso   1.00
H147   H     0.35543   0.41805   0.23696   0.00000  Uiso   1.00
H148   H     0.32263   0.41549   0.17533   0.00000  Uiso   1.00
H149   H     0.66028   0.54429   0.83931   0.00000  Uiso   1.00
H150   H     0.66808   0.59861   0.79848   0.00000  Uiso   1.00
H151   H     0.62676   0.54758   0.77768   0.00000  Uiso   1.00
H152   H     0.36703   0.46495   0.81407   0.00000  Uiso   1.00
H153   H     0.32061   0.41573   0.82678   0.00000  Uiso   1.00
H154   H     0.35479   0.41766   0.76590   0.00000  Uiso   1.00
H155   H     0.63268   0.53501   0.18653   0.00000  Uiso   1.00
H156   H     0.64507   0.58211   0.23485   0.00000  Uiso   1.00
H157   H     0.16883   0.59891   0.70038   0.00000  Uiso   1.00
H158   H     0.67893   0.58439   0.17378   0.00000  Uiso   1.00
H159   H     0.45229   0.12898   0.28566   0.00000  Uiso   1.00
H160   H     0.45518   0.16649   0.34493   0.00000  Uiso   1.00
H161   H     0.40098   0.17138   0.30331   0.00000  Uiso   1.00
H162   H     0.54767   0.87072   0.71327   0.00000  Uiso   1.00
H163   H     0.59903   0.82821   0.69608   0.00000  Uiso   1.00
H164   H     0.54487   0.83268   0.65434   0.00000  Uiso   1.00
H165   H     0.45331   0.69461   0.13656   0.00000  Uiso   1.00
H166   H     0.45405   0.64253   0.18364   0.00000  Uiso   1.00
H167   H     0.40089   0.68584   0.18016   0.00000  Uiso   1.00
H168   H     0.46493   0.63703   0.82071   0.00000  Uiso   1.00
H169   H     0.53519   0.15140   0.66041   0.00000  Uiso   1.00
H170   H     0.58368   0.20019   0.65801   0.00000  Uiso   1.00
H171   H     0.58327   0.15316   0.70961   0.00000  Uiso   1.00
H172   H     0.46490   0.86292   0.67914   0.00000  Uiso   1.00
H173   H     0.41576   0.81576   0.66902   0.00000  Uiso   1.00
H174   H     0.41748   0.85325   0.72792   0.00000  Uiso   1.00
H175   H     0.53509   0.13647   0.31986   0.00000  Uiso   1.00
H176   H     0.58245   0.14650   0.27111   0.00000  Uiso   1.00
H177   H     0.58429   0.18349   0.33032   0.00000  Uiso   1.00
H178   H     0.45356   0.13662   0.69438   0.00000  Uiso   1.00
H179   H     0.41579   0.68419   0.83098   0.00000  Uiso   1.00
H180   H     0.40086   0.17995   0.68606   0.00000  Uiso   1.00
H181   H     0.45378   0.18387   0.64244   0.00000  Uiso   1.00
H182   H     0.53521   0.66100   0.15086   0.00000  Uiso   1.00
H183   H     0.58317   0.71030   0.15282   0.00000  Uiso   1.00
H184   H     0.58383   0.65842   0.19953   0.00000  Uiso   1.00
H185   H     0.33813   0.84070   0.54453   0.00000  Uiso   1.00
H186   H     0.33112   0.79968   0.59886   0.00000  Uiso   1.00
H187   H     0.37272   0.77968   0.54775   0.00000  Uiso   1.00
H188   H     0.63411   0.18401   0.46500   0.00000  Uiso   1.00
H189   H     0.64562   0.23230   0.41758   0.00000  Uiso   1.00
H190   H     0.41749   0.64681   0.77202   0.00000  Uiso   1.00
H191   H     0.68081   0.17199   0.41585   0.00000  Uiso   1.00
H192   H     0.66267   0.84146   0.54458   0.00000  Uiso   1.00
H193   H     0.62758   0.78073   0.54783   0.00000  Uiso   1.00
H194   H     0.66934   0.80038   0.59892   0.00000  Uiso   1.00
H195   H     0.36504   0.18243   0.46492   0.00000  Uiso   1.00
H196   H     0.31813   0.17101   0.41586   0.00000  Uiso   1.00
H197   H     0.35411   0.23084   0.41746   0.00000  Uiso   1.00
H198   H     0.66322   0.15805   0.54464   0.00000  Uiso   1.00
H199   H     0.66967   0.19921   0.59892   0.00000  Uiso   1.00
H200   H     0.62776   0.21858   0.54782   0.00000  Uiso   1.00
H201   H     0.53506   0.36359   0.18024   0.00000  Uiso   1.00
H202   H     0.36690   0.81428   0.46493   0.00000  Uiso   1.00
H203   H     0.35482   0.76599   0.41768   0.00000  Uiso   1.00
H204   H     0.32048   0.82678   0.41566   0.00000  Uiso   1.00
H205   H     0.33592   0.15721   0.54491   0.00000  Uiso   1.00
H206   H     0.37206   0.21735   0.54746   0.00000  Uiso   1.00
H207   H     0.33024   0.19890   0.59893   0.00000  Uiso   1.00
H208   H     0.63363   0.81514   0.46499   0.00000  Uiso   1.00
H209   H     0.67993   0.82690   0.41542   0.00000  Uiso   1.00
H210   H     0.64526   0.76631   0.41817   0.00000  Uiso   1.00
H211   H     0.58242   0.35351   0.22897   0.00000  Uiso   1.00
H212   H     0.17729   0.41555   0.32464   0.00000  Uiso   1.00
H213   H     0.58427   0.31657   0.16974   0.00000  Uiso   1.00
H214   H     0.45350   0.36321   0.80591   0.00000  Uiso   1.00
H215   H     0.40080   0.31987   0.81411   0.00000  Uiso   1.00
H216   H     0.45369   0.31583   0.85773   0.00000  Uiso   1.00
H217   H     0.53511   0.83959   0.34859   0.00000  Uiso   1.00
H218   H     0.58333   0.79054   0.34668   0.00000  Uiso   1.00
H219   H     0.58351   0.84212   0.29968   0.00000  Uiso   1.00
H220   H     0.45222   0.37101   0.21438   0.00000  Uiso   1.00
H221   H     0.45519   0.33353   0.15509   0.00000  Uiso   1.00
H222   H     0.40096   0.32859   0.19667   0.00000  Uiso   1.00
H223   H     0.86738   0.53534   0.68668   0.00000  Uiso   1.00
H224   H     0.54800   0.62948   0.78695   0.00000  Uiso   1.00
H225   H     0.59900   0.67230   0.80450   0.00000  Uiso   1.00
H226   H     0.54461   0.66752   0.84587   0.00000  Uiso   1.00
H227   H     0.45357   0.80546   0.36346   0.00000  Uiso   1.00
H228   H     0.45363   0.85744   0.31625   0.00000  Uiso   1.00
H229   H     0.40081   0.81372   0.32021   0.00000  Uiso   1.00
H230   H     0.53511   0.34830   0.83991   0.00000  Uiso   1.00
H231   H     0.58350   0.29937   0.84231   0.00000  Uiso   1.00
H232   H     0.58334   0.34651   0.79086   0.00000  Uiso   1.00
H233   H     0.83703   0.34176   0.54477   0.00000  Uiso   1.00
H234   H     0.82115   0.58478   0.67430   0.00000  Uiso   1.00
H235   H     0.83072   0.30033   0.59889   0.00000  Uiso   1.00
H236   H     0.87242   0.28117   0.54758   0.00000  Uiso   1.00
H237   H     0.13320   0.68557   0.46500   0.00000  Uiso   1.00
H238   H     0.14523   0.73384   0.41770   0.00000  Uiso   1.00
H239   H     0.17966   0.67309   0.41576   0.00000  Uiso   1.00
H240   H     0.16432   0.34302   0.54461   0.00000  Uiso   1.00
H241   H     0.12817   0.28291   0.54784   0.00000  Uiso   1.00
H242   H     0.17034   0.30179   0.59890   0.00000  Uiso   1.00
H243   H     0.86637   0.68471   0.46499   0.00000  Uiso   1.00
H244   H     0.81974   0.67235   0.41586   0.00000  Uiso   1.00
H245   H     0.85513   0.58223   0.73529   0.00000  Uiso   1.00
H246   H     0.85453   0.73288   0.41756   0.00000  Uiso   1.00
H247   H     0.16181   0.65937   0.54470   0.00000  Uiso   1.00
H248   H     0.16876   0.70052   0.59892   0.00000  Uiso   1.00
H249   H     0.12723   0.72041   0.54774   0.00000  Uiso   1.00
H250   H     0.86589   0.31607   0.46492   0.00000  Uiso   1.00
H251   H     0.85444   0.26773   0.41755   0.00000  Uiso   1.00
H252   H     0.81919   0.32800   0.41578   0.00000  Uiso   1.00
H253   H     0.83720   0.65830   0.54446   0.00000  Uiso   1.00
H254   H     0.87237   0.71897   0.54799   0.00000  Uiso   1.00
H255   H     0.83037   0.69917   0.59889   0.00000  Uiso   1.00
H256   H     0.13314   0.46501   0.68569   0.00000  Uiso   1.00
H257   H     0.13486   0.31731   0.46497   0.00000  Uiso   1.00
H258   H     0.18176   0.32894   0.41591   0.00000  Uiso   1.00
H259   H     0.14594   0.26901   0.41747   0.00000  Uiso   1.00
H260   H     0.63262   0.96503   0.31338   0.00000  Uiso   1.00
H261   H     0.64505   0.91794   0.26505   0.00000  Uiso   1.00
H262   H     0.67885   0.91562   0.32615   0.00000  Uiso   1.00
H263   H     0.36711   0.03501   0.68604   0.00000  Uiso   1.00
H264   H     0.32070   0.08426   0.67329   0.00000  Uiso   1.00
H265   H     0.35482   0.08230   0.73420   0.00000  Uiso   1.00
H266   H     0.16011   0.95607   0.16092   0.00000  Uiso   1.00
H267   H     0.17949   0.41564   0.67334   0.00000  Uiso   1.00
H268   H     0.16859   0.90122   0.20085   0.00000  Uiso   1.00
H269   H     0.12691   0.95160   0.22264   0.00000  Uiso   1.00
H270   H     0.83913   0.04445   0.83978   0.00000  Uiso   1.00
H271   H     0.87305   0.04786   0.77838   0.00000  Uiso   1.00
H272   H     0.83161   0.09885   0.79898   0.00000  Uiso   1.00
H273   H     0.33807   0.95572   0.65912   0.00000  Uiso   1.00
H274   H     0.37261   0.95190   0.72014   0.00000  Uiso   1.00
H275   H     0.33073   0.90116   0.69972   0.00000  Uiso   1.00
H276   H     0.66167   0.04419   0.34061   0.00000  Uiso   1.00
H277   H     0.66924   0.09884   0.30019   0.00000  Uiso   1.00
H278   H     0.14515   0.41788   0.73414   0.00000  Uiso   1.00
H279   H     0.62735   0.04822   0.27948   0.00000  Uiso   1.00
H280   H     0.86766   0.96496   0.81289   0.00000  Uiso   1.00
H281   H     0.82152   0.91552   0.82569   0.00000  Uiso   1.00
H282   H     0.85514   0.91796   0.76449   0.00000  Uiso   1.00
H283   H     0.13137   0.03498   0.18897   0.00000  Uiso   1.00
H284   H     0.14464   0.08195   0.23714   0.00000  Uiso   1.00
H285   H     0.17726   0.08447   0.17541   0.00000  Uiso   1.00
H286   H     0.66100   0.04412   0.66004   0.00000  Uiso   1.00
H287   H     0.62716   0.04836   0.72143   0.00000  Uiso   1.00
H288   H     0.66899   0.09885   0.70024   0.00000  Uiso   1.00
O1     O     0.25000   0.25000   0.25000   0.00000  Uiso   1.00
O2     O     0.63420   0.71971   0.71971   0.00000  Uiso   1.00
O3     O     0.21971   0.36580   0.21971   0.00000  Uiso   1.00
O4     O     0.21971   0.63420   0.21971   0.00000  Uiso   1.00
O5     O     0.78029   0.36580   0.78029   0.00000  Uiso   1.00
O6     O     0.21971   0.36580   0.78029   0.00000  Uiso   1.00
O7     O     0.78029   0.63420   0.21971   0.00000  Uiso   1.00
O8     O     0.28029   0.28029   0.63420   0.00000  Uiso   1.00
O9     O     0.71971   0.71971   0.36580   0.00000  Uiso   1.00
O10    O     0.63420   0.28029   0.71971   0.00000  Uiso   1.00
O11    O     0.36580   0.71971   0.28029   0.00000  Uiso   1.00
O12    O     0.71971   0.28029   0.36580   0.00000  Uiso   1.00
O13    O     0.28029   0.71971   0.63420   0.00000  Uiso   1.00
O14    O     0.36580   0.71971   0.71971   0.00000  Uiso   1.00
O15    O     0.63420   0.28029   0.28029   0.00000  Uiso   1.00
O16    O     0.28029   0.71971   0.36580   0.00000  Uiso   1.00
O17    O     0.75000   0.75000   0.75000   0.00000  Uiso   1.00
O18    O     0.71971   0.28029   0.63420   0.00000  Uiso   1.00
O19    O     0.63420   0.71971   0.28029   0.00000  Uiso   1.00
O20    O     0.36580   0.28029   0.71971   0.00000  Uiso   1.00
O21    O     0.71971   0.71971   0.63420   0.00000  Uiso   1.00
O22    O     0.28029   0.28029   0.36580   0.00000  Uiso   1.00
O23    O     0.28029   0.36580   0.71971   0.00000  Uiso   1.00
O24    O     0.71971   0.63420   0.28029   0.00000  Uiso   1.00
O25    O     0.28029   0.63420   0.28029   0.00000  Uiso   1.00
O26    O     0.71971   0.36580   0.71971   0.00000  Uiso   1.00
O27    O     0.71971   0.63420   0.71971   0.00000  Uiso   1.00
O28    O     0.25000   0.25000   0.75000   0.00000  Uiso   1.00
O29    O     0.28029   0.36580   0.28029   0.00000  Uiso   1.00
O30    O     0.71971   0.36580   0.28029   0.00000  Uiso   1.00
O31    O     0.28029   0.63420   0.71971   0.00000  Uiso   1.00
O32    O     0.86580   0.78029   0.28029   0.00000  Uiso   1.00
O33    O     0.13420   0.21971   0.71971   0.00000  Uiso   1.00
O34    O     0.28029   0.78029   0.13420   0.00000  Uiso   1.00
O35    O     0.71971   0.21971   0.86580   0.00000  Uiso   1.00
O36    O     0.13420   0.78029   0.71971   0.00000  Uiso   1.00
O37    O     0.86580   0.21971   0.28029   0.00000  Uiso   1.00
O38    O     0.71971   0.78029   0.86580   0.00000  Uiso   1.00
O39    O     0.75000   0.75000   0.25000   0.00000  Uiso   1.00
O40    O     0.28029   0.21971   0.13420   0.00000  Uiso   1.00
O41    O     0.86580   0.21971   0.71971   0.00000  Uiso   1.00
O42    O     0.13420   0.78029   0.28029   0.00000  Uiso   1.00
O43    O     0.28029   0.21971   0.86580   0.00000  Uiso   1.00
O44    O     0.71971   0.78029   0.13420   0.00000  Uiso   1.00
O45    O     0.13420   0.21971   0.28029   0.00000  Uiso   1.00
O46    O     0.86580   0.78029   0.71971   0.00000  Uiso   1.00
O47    O     0.71971   0.21971   0.13420   0.00000  Uiso   1.00
O48    O     0.28029   0.78029   0.86580   0.00000  Uiso   1.00
O49    O     0.78029   0.71971   0.13420   0.00000  Uiso   1.00
O50    O     0.75000   0.25000   0.75000   0.00000  Uiso   1.00
O51    O     0.21971   0.28029   0.86580   0.00000  Uiso   1.00
O52    O     0.78029   0.86580   0.71971   0.00000  Uiso   1.00
O53    O     0.21971   0.13420   0.28029   0.00000  Uiso   1.00
O54    O     0.78029   0.28029   0.86580   0.00000  Uiso   1.00
O55    O     0.21971   0.71971   0.13420   0.00000  Uiso   1.00
O56    O     0.78029   0.13420   0.28029   0.00000  Uiso   1.00
O57    O     0.21971   0.86580   0.71971   0.00000  Uiso   1.00
O58    O     0.21971   0.28029   0.13420   0.00000  Uiso   1.00
O59    O     0.78029   0.71971   0.86580   0.00000  Uiso   1.00
O60    O     0.21971   0.13420   0.71971   0.00000  Uiso   1.00
O61    O     0.25000   0.75000   0.25000   0.00000  Uiso   1.00
O62    O     0.78029   0.86580   0.28029   0.00000  Uiso   1.00
O63    O     0.21971   0.71971   0.86580   0.00000  Uiso   1.00
O64    O     0.78029   0.28029   0.13420   0.00000  Uiso   1.00
O65    O     0.21971   0.86580   0.28029   0.00000  Uiso   1.00
O66    O     0.78029   0.13420   0.71971   0.00000  Uiso   1.00
O67    O     0.71971   0.86580   0.21971   0.00000  Uiso   1.00
O68    O     0.28029   0.13420   0.78029   0.00000  Uiso   1.00
O69    O     0.86580   0.28029   0.21971   0.00000  Uiso   1.00
O70    O     0.13420   0.71971   0.78029   0.00000  Uiso   1.00
O71    O     0.28029   0.13420   0.21971   0.00000  Uiso   1.00
O72    O     0.75000   0.25000   0.25000   0.00000  Uiso   1.00
O73    O     0.71971   0.86580   0.78029   0.00000  Uiso   1.00
O74    O     0.13420   0.71971   0.21971   0.00000  Uiso   1.00
O75    O     0.86580   0.28029   0.78029   0.00000  Uiso   1.00
O76    O     0.28029   0.86580   0.78029   0.00000  Uiso   1.00
O77    O     0.71971   0.13420   0.21971   0.00000  Uiso   1.00
O78    O     0.13420   0.28029   0.78029   0.00000  Uiso   1.00
O79    O     0.86580   0.71971   0.21971   0.00000  Uiso   1.00
O80    O     0.71971   0.13420   0.78029   0.00000  Uiso   1.00
O81    O     0.28029   0.86580   0.21971   0.00000  Uiso   1.00
O82    O     0.86580   0.71971   0.78029   0.00000  Uiso   1.00
O83    O     0.25000   0.75000   0.75000   0.00000  Uiso   1.00
O84    O     0.13420   0.28029   0.21971   0.00000  Uiso   1.00
O85    O     0.36580   0.78029   0.78029   0.00000  Uiso   1.00
O86    O     0.63420   0.21971   0.21971   0.00000  Uiso   1.00
O87    O     0.78029   0.78029   0.63420   0.00000  Uiso   1.00
O88    O     0.21971   0.21971   0.36580   0.00000  Uiso   1.00
O89    O     0.63420   0.78029   0.21971   0.00000  Uiso   1.00
O90    O     0.36580   0.21971   0.78029   0.00000  Uiso   1.00
O91    O     0.21971   0.78029   0.36580   0.00000  Uiso   1.00
O92    O     0.78029   0.21971   0.63420   0.00000  Uiso   1.00
O93    O     0.36580   0.21971   0.21971   0.00000  Uiso   1.00
O94    O     0.36580   0.28029   0.28029   0.00000  Uiso   1.00
O95    O     0.63420   0.78029   0.78029   0.00000  Uiso   1.00
O96    O     0.78029   0.21971   0.36580   0.00000  Uiso   1.00
O97    O     0.21971   0.78029   0.63420   0.00000  Uiso   1.00
O98    O     0.63420   0.21971   0.78029   0.00000  Uiso   1.00
O99    O     0.36580   0.78029   0.21971   0.00000  Uiso   1.00
O100   O     0.21971   0.21971   0.63420   0.00000  Uiso   1.00
O101   O     0.78029   0.78029   0.36580   0.00000  Uiso   1.00
O102   O     0.78029   0.36580   0.21971   0.00000  Uiso   1.00
O103   O     0.21971   0.63420   0.78029   0.00000  Uiso   1.00
O104   O     0.78029   0.63420   0.78029   0.00000  Uiso   1.00
Zn1    Zn    0.20660   0.29340   0.20660   0.00000  Uiso   1.00
Zn2    Zn    0.70660   0.20660   0.20660   0.00000  Uiso   1.00
Zn3    Zn    0.29340   0.20660   0.79340   0.00000  Uiso   1.00
Zn4    Zn    0.70660   0.79340   0.20660   0.00000  Uiso   1.00
Zn5    Zn    0.29340   0.20660   0.20660   0.00000  Uiso   1.00
Zn6    Zn    0.70660   0.79340   0.79340   0.00000  Uiso   1.00
Zn7    Zn    0.29340   0.79340   0.20660   0.00000  Uiso   1.00
Zn8    Zn    0.70660   0.20660   0.79340   0.00000  Uiso   1.00
Zn9    Zn    0.79340   0.20660   0.70660   0.00000  Uiso   1.00
Zn10   Zn    0.20660   0.79340   0.29340   0.00000  Uiso   1.00
Zn11   Zn    0.20660   0.20660   0.70660   0.00000  Uiso   1.00
Zn12   Zn    0.79340   0.70660   0.79340   0.00000  Uiso   1.00
Zn13   Zn    0.79340   0.79340   0.29340   0.00000  Uiso   1.00
Zn14   Zn    0.20660   0.79340   0.70660   0.00000  Uiso   1.00
Zn15   Zn    0.79340   0.20660   0.29340   0.00000  Uiso   1.00
Zn16   Zn    0.79340   0.79340   0.70660   0.00000  Uiso   1.00
Zn17   Zn    0.20660   0.20660   0.29340   0.00000  Uiso   1.00
Zn18   Zn    0.70660   0.29340   0.70660   0.00000  Uiso   1.00
Zn19   Zn    0.29340   0.70660   0.29340   0.00000  Uiso   1.00
Zn20   Zn    0.70660   0.29340   0.29340   0.00000  Uiso   1.00
Zn21   Zn    0.29340   0.70660   0.70660   0.00000  Uiso   1.00
Zn22   Zn    0.29340   0.29340   0.29340   0.00000  Uiso   1.00
Zn23   Zn    0.20660   0.29340   0.79340   0.00000  Uiso   1.00
Zn24   Zn    0.70660   0.70660   0.70660   0.00000  Uiso   1.00
Zn25   Zn    0.29340   0.29340   0.70660   0.00000  Uiso   1.00
Zn26   Zn    0.70660   0.70660   0.29340   0.00000  Uiso   1.00
Zn27   Zn    0.79340   0.70660   0.20660   0.00000  Uiso   1.00
Zn28   Zn    0.79340   0.29340   0.79340   0.00000  Uiso   1.00
Zn29   Zn    0.20660   0.70660   0.20660   0.00000  Uiso   1.00
Zn30   Zn    0.79340   0.29340   0.20660   0.00000  Uiso   1.00
Zn31   Zn    0.20660   0.70660   0.79340   0.00000  Uiso   1.00
Zn32   Zn    0.29340   0.79340   0.79340   0.00000  Uiso   1.00
loop_
_geom_bond_atom_site_label_1
_geom_bond_atom_site_label_2
_geom_bond_distance
_geom_bond_site_symmetry_2
_ccdc_geom_bond_type
C1     O93     1.273   .     A
C1     C62     1.451   .     S
C1     O94     1.273   .     A
C2     O86     1.273   .     A
C2     C65     1.455   .     S
C2     O15     1.273   .     A
C3     C93     1.416   .     A
C3     C162    1.522   .     S
C3     C6      1.410   1_655 S
C4     C89     1.416   .     A
C4     C163    1.522   .     S
C4     C287    1.411   1_455 S
C5     C91     1.411   .     A
C5     C164    1.522   .     S
C5     C286    1.410   1_655 S
C6     C165    1.522   .     S
C6     C87     1.411   .     A
C6     C3      1.410   1_455 S
C7     C88     1.416   .     A
C7     C166    1.521   .     S
C7     C288    1.411   1_655 S
C8     C167    1.522   .     S
C8     C102    1.416   .     A
C8     C14     1.410   1_554 S
C9     C169    1.522   .     S
C9     C100    1.412   .     A
C9     C12     1.410   1_556 S
C10    C170    1.522   .     S
C10    C104    1.417   .     A
C10    C16     1.411   1_554 S
C11    C171    1.523   .     S
C11    C103    1.412   .     A
C11    C15     1.411   1_556 S
C12    C172    1.522   .     S
C12    C97     1.417   .     A
C12    C9      1.410   1_554 S
C13    O91     1.273   .     A
C13    C74     1.456   .     S
C13    O16     1.273   .     A
C14    C173    1.522   .     S
C14    C96     1.412   .     A
C14    C8      1.410   1_556 S
C15    C174    1.522   .     S
C15    C99     1.417   .     A
C15    C11     1.411   1_554 S
C16    C98     1.412   .     A
C16    C175    1.523   .     S
C16    C10     1.411   1_556 S
C17    C176    1.523   .     S
C17    C103    1.412   .     A
C17    C22     1.411   1_556 S
C18    C177    1.522   .     S
C18    C104    1.417   .     A
C18    C21     1.411   1_554 S
C19    C100    1.412   .     A
C19    C178    1.523   .     S
C19    C25     1.411   1_556 S
C20    C180    1.521   .     S
C20    C102    1.417   .     A
C20    C23     1.411   1_554 S
C21    C98     1.412   .     A
C21    C181    1.523   .     S
C21    C18     1.411   1_556 S
C22    C182    1.522   .     S
C22    C99     1.417   .     A
C22    C17     1.411   1_554 S
C23    C183    1.523   .     S
C23    C96     1.412   .     A
C23    C20     1.411   1_556 S
C24    O18     1.273   .     A
C24    O92     1.272   .     A
C24    C75     1.452   .     S
C25    C97     1.417   .     A
C25    C184    1.522   .     S
C25    C19     1.411   1_554 S
C26    C185    1.523   .     S
C26    C31     1.410   .     A
C26    C53     1.414   .     A
C27    C52     1.417   .     A
C27    C30     1.411   .     A
C27    C186    1.522   .     S
C28    C187    1.521   .     S
C28    C33     1.411   .     A
C28    C55     1.417   .     A
C29    C188    1.521   .     S
C29    C32     1.411   .     A
C29    C54     1.417   .     A
C30    C189    1.523   .     S
C30    C58     1.412   .     A
C31    C56     1.415   .     A
C31    C191    1.521   .     S
C32    C192    1.523   .     S
C32    C60     1.412   .     A
C33    C59     1.412   .     A
C33    C193    1.523   .     S
C34    C194    1.522   .     S
C34    C62     1.416   .     A
C34    C40     1.410   .     A
C35    C67     1.455   .     S
C35    O89     1.273   .     A
C35    O19     1.273   .     A
C36    C39     1.410   .     A
C36    C61     1.416   .     A
C36    C195    1.522   .     S
C37    C42     1.411   .     A
C37    C64     1.416   .     A
C37    C196    1.521   .     S
C38    C41     1.411   .     A
C38    C63     1.411   .     A
C38    C197    1.522   .     S
C39    C66     1.411   .     A
C39    C198    1.522   .     S
C40    C65     1.411   .     A
C40    C199    1.522   .     S
C41    C200    1.521   .     S
C41    C69     1.416   .     A
C42    C67     1.411   .     A
C42    C202    1.522   .     S
C43    C71     1.417   .     A
C43    C49     1.411   .     A
C43    C203    1.522   .     S
C44    C70     1.412   .     A
C44    C204    1.523   .     S
C44    C48     1.411   .     A
C45    C205    1.522   .     S
C45    C51     1.410   .     A
C45    C73     1.417   .     A
C46    O90     1.272   .     A
C46    C69     1.451   .     S
C46    O20     1.272   .     A
C47    C50     1.411   .     A
C47    C72     1.412   .     A
C47    C206    1.523   .     S
C48    C207    1.521   .     S
C48    C75     1.417   .     A
C49    C208    1.523   .     S
C49    C74     1.412   .     A
C50    C77     1.417   .     A
C50    C209    1.522   .     S
C51    C210    1.522   .     S
C51    C76     1.412   .     A
C52    C239    1.417   .     A
C52    C101    1.452   .     S
C53    C113    1.455   .     S
C53    C238    1.415   .     A
C54    C241    1.417   .     A
C54    C157    1.453   .     S
C55    C240    1.417   .     A
C55    C146    1.453   .     S
C56    C235    1.414   .     A
C56    C124    1.454   .     S
C57    O87     1.273   .     A
C57    C73     1.452   .     S
C57    O21     1.273   .     A
C58    C233    1.412   .     A
C58    C135    1.456   .     S
C59    C90     1.456   .     S
C59    C237    1.412   .     A
C60    C79     1.456   .     S
C60    C236    1.412   .     A
C61    C248    1.416   .     A
C61    C112    1.451   .     S
C62    C247    1.416   .     A
C63    C250    1.411   .     A
C63    C234    1.455   .     S
C64    C249    1.416   .     A
C64    C245    1.451   .     S
C65    C243    1.411   .     A
C66    C242    1.411   .     A
C66    C278    1.455   .     S
C67    C246    1.411   .     A
C68    O88     1.273   .     A
C68    O22     1.273   .     A
C68    C72     1.456   .     S
C69    C244    1.416   .     A
C70    C256    1.456   .     S
C70    C257    1.412   .     A
C71    C255    1.417   .     A
C71    C267    1.452   .     S
C72    C259    1.411   .     A
C73    C258    1.417   .     A
C74    C252    1.412   .     A
C75    C251    1.417   .     A
C76    C254    1.412   .     A
C76    C223    1.456   .     S
C77    C253    1.417   .     A
C77    C212    1.452   .     S
C78    C227    1.453   .     S
C78    C265    1.417   .     A
C78    C275    1.417   .     A
C79    O23     1.273   .     A
C79    O6      1.273   .     A
C80    C276    1.417   .     A
C80    C264    1.417   .     A
C80    C228    1.453   .     S
C81    C268    1.412   .     A
C81    C226    1.456   .     S
C81    C273    1.412   .     A
C82    C274    1.412   .     A
C82    C266    1.412   .     A
C82    C225    1.456   .     S
C83    C261    1.412   .     A
C83    C229    1.456   .     S
C83    C271    1.412   .     A
C84    C230    1.456   .     S
C84    C260    1.412   .     A
C84    C272    1.412   .     A
C85    C263    1.417   .     A
C85    C269    1.417   .     A
C85    C232    1.452   .     S
C86    C231    1.452   .     S
C86    C270    1.417   .     A
C86    C262    1.417   .     A
C87    C283    1.411   .     A
C87    C217    1.455   .     S
C88    C282    1.416   .     A
C88    C216    1.451   .     S
C89    C285    1.416   .     A
C89    C211    1.451   .     S
C90    O24     1.273   .     A
C90    O7      1.273   .     A
C91    C213    1.455   .     S
C91    C284    1.411   .     A
C92    C179    1.455   .     S
C92    C279    1.411   .     A
C92    C288    1.411   .     A
C93    C277    1.416   .     A
C93    C168    1.451   .     S
C94    C286    1.416   .     A
C94    C220    1.451   .     S
C94    C281    1.416   .     A
C95    C280    1.411   .     A
C95    C287    1.411   .     A
C95    C221    1.455   .     S
C96    C214    1.456   .     S
C97    C215    1.452   .     S
C98    C201    1.456   .     S
C99    C190    1.452   .     S
C100   C218    1.456   .     S
C101   O25     1.273   .     A
C101   O4      1.273   .     A
C102   C219    1.452   .     S
C103   C224    1.456   .     S
C104   C222    1.452   .     S
C105   H112    1.110   .     S
C105   H1      1.105   .     S
C105   H212    1.111   .     S
C105   C233    1.523   .     S
C106   H234    1.111   .     S
C106   H245    1.110   .     S
C106   H223    1.105   .     S
C106   C235    1.523   .     S
C107   H256    1.105   .     S
C107   H278    1.110   .     S
C107   C236    1.523   .     S
C107   H267    1.111   .     S
C108   H2      1.105   .     S
C108   C237    1.523   .     S
C108   H13     1.110   .     S
C108   H24     1.111   .     S
C109   H35     1.110   .     S
C109   H57     1.107   .     S
C109   C238    1.521   .     S
C109   H46     1.110   .     S
C110   H90     1.110   .     S
C110   H79     1.107   .     S
C110   H68     1.110   .     S
C110   C239    1.521   .     S
C111   H113    1.107   .     S
C111   H124    1.110   .     S
C111   H101    1.110   .     S
C111   C240    1.521   .     S
C112   O2      1.273   .     A
C112   O95     1.273   .     A
C113   O5      1.274   .     A
C113   O26     1.272   .     A
C114   H157    1.107   .     S
C114   H135    1.110   .     S
C114   H146    1.110   .     S
C114   C241    1.522   .     S
C115   H179    1.111   .     S
C115   H168    1.105   .     S
C115   C242    1.522   .     S
C115   H190    1.110   .     S
C116   H211    1.110   .     S
C116   H213    1.111   .     S
C116   H201    1.105   .     S
C116   C243    1.522   .     S
C117   H215    1.107   .     S
C117   H216    1.110   .     S
C117   H214    1.110   .     S
C117   C244    1.522   .     S
C118   H217    1.105   .     S
C118   C246    1.522   .     S
C118   H218    1.110   .     S
C118   H219    1.110   .     S
C119   H221    1.110   .     S
C119   C247    1.522   .     S
C119   H220    1.110   .     S
C119   H222    1.107   .     S
C120   H225    1.107   .     S
C120   H224    1.110   .     S
C120   H226    1.110   .     S
C120   C248    1.521   .     S
C121   H228    1.110   .     S
C121   H227    1.110   .     S
C121   H229    1.107   .     S
C121   C249    1.522   .     S
C122   H231    1.110   .     S
C122   C250    1.522   .     S
C122   H232    1.110   .     S
C122   H230    1.105   .     S
C123   H233    1.110   .     S
C123   H236    1.110   .     S
C123   H235    1.107   .     S
C123   C251    1.522   .     S
C124   O104    1.272   .     A
C124   O27     1.274   .     A
C125   H237    1.105   .     S
C125   H239    1.111   .     S
C125   H238    1.110   .     S
C125   C252    1.523   .     S
C126   H242    1.107   .     S
C126   H240    1.110   .     S
C126   H241    1.110   .     S
C126   C253    1.521   .     S
C127   C254    1.523   .     S
C127   H243    1.105   .     S
C127   H246    1.110   .     S
C127   H244    1.111   .     S
C128   C255    1.522   .     S
C128   H248    1.107   .     S
C128   H249    1.110   .     S
C128   H247    1.110   .     S
C129   H251    1.110   .     S
C129   C257    1.523   .     S
C129   H250    1.105   .     S
C129   H252    1.111   .     S
C130   H254    1.110   .     S
C130   C258    1.521   .     S
C130   H255    1.107   .     S
C130   H253    1.110   .     S
C131   H258    1.111   .     S
C131   H259    1.110   .     S
C131   C259    1.523   .     S
C131   H257    1.105   .     S
C132   C260    1.523   .     S
C132   H260    1.105   .     S
C132   H261    1.110   .     S
C132   H262    1.111   .     S
C133   H265    1.110   .     S
C133   C261    1.523   .     S
C133   H263    1.105   .     S
C133   H264    1.111   .     S
C134   H268    1.107   .     S
C134   H266    1.110   .     S
C134   H269    1.110   .     S
C134   C262    1.521   .     S
C135   O3      1.273   .     A
C135   O29     1.273   .     A
C136   H271    1.110   .     S
C136   H272    1.107   .     S
C136   H270    1.110   .     S
C136   C263    1.522   .     S
C137   H273    1.110   .     S
C137   C264    1.521   .     S
C137   H274    1.110   .     S
C137   H275    1.107   .     S
C138   C265    1.521   .     S
C138   H279    1.110   .     S
C138   H276    1.110   .     S
C138   H277    1.107   .     S
C139   H282    1.110   .     S
C139   H281    1.111   .     S
C139   H280    1.105   .     S
C139   C266    1.523   .     S
C140   H284    1.110   .     S
C140   C268    1.523   .     S
C140   H283    1.105   .     S
C140   H285    1.111   .     S
C141   H286    1.110   .     S
C141   H288    1.107   .     S
C141   C269    1.521   .     S
C141   H287    1.110   .     S
C142   H4      1.107   .     S
C142   H5      1.110   .     S
C142   C270    1.522   .     S
C142   H3      1.110   .     S
C143   H6      1.105   .     S
C143   H7      1.111   .     S
C143   C271    1.523   .     S
C143   H8      1.110   .     S
C144   H10     1.110   .     S
C144   C272    1.523   .     S
C144   H9      1.105   .     S
C144   H11     1.111   .     S
C145   H12     1.105   .     S
C145   C273    1.523   .     S
C145   H14     1.110   .     S
C145   H15     1.111   .     S
C146   O102    1.273   .     A
C146   O30     1.273   .     A
C147   H18     1.110   .     S
C147   H16     1.105   .     S
C147   H17     1.111   .     S
C147   C274    1.523   .     S
C148   H19     1.110   .     S
C148   H20     1.107   .     S
C148   C275    1.521   .     S
C148   H21     1.110   .     S
C149   H22     1.110   .     S
C149   C276    1.522   .     S
C149   H25     1.107   .     S
C149   H23     1.110   .     S
C150   H28     1.107   .     S
C150   H26     1.110   .     S
C150   H27     1.110   .     S
C150   C277    1.522   .     S
C151   H30     1.110   .     S
C151   H29     1.105   .     S
C151   C279    1.522   .     S
C151   H31     1.110   .     S
C152   H33     1.110   .     S
C152   H34     1.110   .     S
C152   C280    1.522   .     S
C152   H32     1.105   .     S
C153   H37     1.110   .     S
C153   H38     1.107   .     S
C153   C281    1.522   .     S
C153   H36     1.110   .     S
C154   H39     1.110   .     S
C154   C282    1.522   .     S
C154   H40     1.107   .     S
C154   H41     1.110   .     S
C155   C283    1.522   .     S
C155   H43     1.110   .     S
C155   H44     1.111   .     S
C155   H42     1.105   .     S
C156   H45     1.105   .     S
C156   H47     1.110   .     S
C156   C284    1.522   .     S
C156   H48     1.111   .     S
C157   O31     1.273   .     A
C157   O103    1.272   .     A
C158   H51     1.110   .     S
C158   C285    1.521   .     S
C158   H49     1.110   .     S
C158   H50     1.107   .     S
C159   H53     1.110   .     S
C159   H52     1.110   .     S
C159   C286    1.522   .     S
C159   H54     1.107   .     S
C160   H58     1.110   .     S
C160   H56     1.110   .     S
C160   C287    1.522   .     S
C160   H55     1.105   .     S
C161   H60     1.110   .     S
C161   C288    1.522   .     S
C161   H59     1.105   .     S
C161   H61     1.110   .     S
C162   H64     1.107   .     S
C162   H62     1.110   .     S
C162   H63     1.110   .     S
C163   H66     1.107   .     S
C163   H65     1.110   .     S
C163   H67     1.110   .     S
C164   H69     1.105   .     S
C164   H71     1.111   .     S
C164   H70     1.110   .     S
C165   H72     1.105   .     S
C165   H73     1.110   .     S
C165   H74     1.111   .     S
C166   H75     1.110   .     S
C166   H77     1.110   .     S
C166   H76     1.107   .     S
C167   H81     1.110   .     S
C167   H80     1.107   .     S
C167   H78     1.110   .     S
C168   O79     1.273   .     A
C168   O32     1.273   .     A
C169   H83     1.110   .     S
C169   H82     1.105   .     S
C169   H84     1.111   .     S
C170   H85     1.110   .     S
C170   H87     1.107   .     S
C170   H86     1.110   .     S
C171   H88     1.105   .     S
C171   H91     1.110   .     S
C171   H89     1.111   .     S
C172   H92     1.110   .     S
C172   H93     1.107   .     S
C172   H94     1.110   .     S
C173   H96     1.110   .     S
C173   H95     1.105   .     S
C173   H97     1.111   .     S
C174   H99     1.110   .     S
C174   H100    1.107   .     S
C174   H98     1.110   .     S
C175   H103    1.111   .     S
C175   H104    1.110   .     S
C175   H102    1.105   .     S
C176   H105    1.105   .     S
C176   H107    1.110   .     S
C176   H106    1.111   .     S
C177   H109    1.110   .     S
C177   H108    1.110   .     S
C177   H110    1.107   .     S
C178   H114    1.110   .     S
C178   H111    1.105   .     S
C178   H115    1.111   .     S
C179   O33     1.273   .     A
C179   O78     1.273   .     A
C180   H117    1.107   .     S
C180   H116    1.110   .     S
C180   H118    1.110   .     S
C181   H120    1.111   .     S
C181   H119    1.105   .     S
C181   H121    1.110   .     S
C182   H122    1.110   .     S
C182   H125    1.107   .     S
C182   H123    1.110   .     S
C183   H128    1.111   .     S
C183   H126    1.105   .     S
C183   H127    1.110   .     S
C184   H129    1.110   .     S
C184   H131    1.110   .     S
C184   H130    1.107   .     S
C185   H133    1.110   .     S
C185   H132    1.105   .     S
C185   H134    1.111   .     S
C186   H138    1.110   .     S
C186   H136    1.110   .     S
C186   H137    1.107   .     S
C187   H140    1.107   .     S
C187   H141    1.110   .     S
C187   H139    1.110   .     S
C188   H143    1.110   .     S
C188   H142    1.110   .     S
C188   H144    1.107   .     S
C189   H148    1.111   .     S
C189   H145    1.105   .     S
C189   H147    1.110   .     S
C190   O55     1.273   .     A
C190   O34     1.273   .     A
C191   H150    1.106   .     S
C191   H151    1.110   .     S
C191   H149    1.110   .     S
C192   H152    1.105   .     S
C192   H153    1.111   .     S
C192   H154    1.110   .     S
C193   H155    1.105   .     S
C193   H156    1.110   .     S
C193   H158    1.111   .     S
C194   H161    1.107   .     S
C194   H159    1.110   .     S
C194   H160    1.110   .     S
C195   H163    1.107   .     S
C195   H162    1.110   .     S
C195   H164    1.110   .     S
C196   H166    1.110   .     S
C196   H165    1.110   .     S
C196   H167    1.107   .     S
C197   H169    1.105   .     S
C197   H171    1.110   .     S
C197   H170    1.110   .     S
C198   H172    1.105   .     S
C198   H174    1.110   .     S
C198   H173    1.111   .     S
C199   H175    1.105   .     S
C199   H177    1.111   .     S
C199   H176    1.110   .     S
C200   H180    1.107   .     S
C200   H181    1.110   .     S
C200   H178    1.110   .     S
C201   O54     1.273   .     A
C201   O35     1.273   .     A
C202   H183    1.110   .     S
C202   H184    1.110   .     S
C202   H182    1.105   .     S
C203   H185    1.110   .     S
C203   H187    1.110   .     S
C203   H186    1.107   .     S
C204   H191    1.111   .     S
C204   H188    1.105   .     S
C204   H189    1.110   .     S
C205   H192    1.110   .     S
C205   H194    1.107   .     S
C205   H193    1.110   .     S
C206   H196    1.111   .     S
C206   H197    1.110   .     S
C206   H195    1.105   .     S
C207   H199    1.107   .     S
C207   H198    1.110   .     S
C207   H200    1.110   .     S
C208   H203    1.110   .     S
C208   H204    1.111   .     S
C208   H202    1.105   .     S
C209   H205    1.110   .     S
C209   H206    1.110   .     S
C209   H207    1.107   .     S
C210   H210    1.110   .     S
C210   H208    1.105   .     S
C210   H209    1.111   .     S
C211   O36     1.272   .     A
C211   O70     1.272   .     A
C212   O8      1.273   .     A
C212   O100    1.273   .     A
C213   O37     1.273   .     A
C213   O69     1.273   .     A
C214   O38     1.273   .     A
C214   O59     1.273   .     A
C215   O58     1.273   .     A
C215   O40     1.272   .     A
C216   O41     1.273   .     A
C216   O75     1.272   .     A
C217   O42     1.273   .     A
C217   O74     1.273   .     A
C218   O43     1.273   .     A
C218   O51     1.273   .     A
C219   O44     1.272   .     A
C219   O49     1.272   .     A
C220   O84     1.272   .     A
C220   O45     1.272   .     A
C221   O82     1.273   .     A
C221   O46     1.273   .     A
C222   O47     1.273   .     A
C222   O64     1.273   .     A
C223   O101    1.273   .     A
C223   O9      1.273   .     A
C224   O63     1.273   .     A
C224   O48     1.273   .     A
C225   O52     1.273   .     A
C225   O73     1.273   .     A
C226   O53     1.273   .     A
C226   O71     1.273   .     A
C227   O56     1.273   .     A
C227   O77     1.273   .     A
C228   O57     1.273   .     A
C228   O76     1.273   .     A
C229   O60     1.273   .     A
C229   O68     1.273   .     A
C230   O62     1.273   .     A
C230   O67     1.273   .     A
C231   O81     1.272   .     A
C231   O65     1.273   .     A
C232   O66     1.272   .     A
C232   O80     1.273   .     A
C233   C239    1.410   .     A
C234   O98     1.273   .     A
C234   O10     1.273   .     A
C235   C238    1.411   .     A
C236   C241    1.411   .     A
C237   C240    1.411   .     A
C242   C248    1.410   .     A
C243   C247    1.410   .     A
C244   C250    1.411   .     A
C245   O11     1.272   .     A
C245   O99     1.272   .     A
C246   C249    1.411   .     A
C251   C257    1.411   .     A
C252   C255    1.411   .     A
C253   C259    1.411   .     A
C254   C258    1.411   .     A
C256   O12     1.273   .     A
C256   O96     1.273   .     A
C260   C265    1.411   1_565 S
C261   C264    1.411   1_545 S
C262   C268    1.410   1_565 S
C263   C266    1.411   1_545 S
C264   C261    1.411   1_565 S
C265   C260    1.411   1_545 S
C266   C263    1.411   1_565 S
C267   O97     1.273   .     A
C267   O13     1.273   .     A
C268   C262    1.410   1_545 S
C269   C274    1.411   1_545 S
C270   C273    1.411   1_565 S
C271   C276    1.411   1_545 S
C272   C275    1.411   1_565 S
C273   C270    1.411   1_545 S
C274   C269    1.411   1_565 S
C275   C272    1.411   1_545 S
C276   C271    1.411   1_565 S
C277   C283    1.410   1_655 S
C278   O85     1.273   .     A
C278   O14     1.273   .     A
C279   C282    1.411   1_455 S
C280   C285    1.411   1_655 S
C281   C284    1.410   1_455 S
C282   C279    1.411   1_655 S
C283   C277    1.410   1_455 S
C284   C281    1.410   1_655 S
C285   C280    1.411   1_455 S
C286   C5      1.410   1_455 S
C287   C4      1.411   1_655 S
C288   C7      1.411   1_455 S
O1     Zn1     1.945   .     S
O1     Zn22    1.945   .     S
O1     Zn17    1.945   .     S
O1     Zn5     1.945   .     S
O2     Zn24    1.933   .     S
O3     Zn1     1.934   .     S
O4     Zn29    1.934   .     S
O5     Zn28    1.934   .     S
O6     Zn23    1.934   .     S
O7     Zn27    1.934   .     S
O8     Zn25    1.934   .     S
O9     Zn26    1.934   .     S
O10    Zn18    1.933   .     S
O11    Zn19    1.933   .     S
O12    Zn20    1.934   .     S
O13    Zn21    1.934   .     S
O14    Zn21    1.933   .     S
O15    Zn20    1.933   .     S
O16    Zn19    1.934   .     S
O17    Zn12    1.945   .     S
O17    Zn16    1.945   .     S
O17    Zn24    1.945   .     S
O17    Zn6     1.945   .     S
O18    Zn18    1.934   .     S
O19    Zn26    1.933   .     S
O20    Zn25    1.933   .     S
O21    Zn24    1.934   .     S
O22    Zn22    1.934   .     S
O23    Zn25    1.934   .     S
O24    Zn26    1.934   .     S
O25    Zn19    1.934   .     S
O26    Zn18    1.934   .     S
O27    Zn24    1.934   .     S
O28    Zn23    1.945   .     S
O28    Zn25    1.945   .     S
O28    Zn11    1.945   .     S
O28    Zn3     1.945   .     S
O29    Zn22    1.934   .     S
O30    Zn20    1.934   .     S
O31    Zn21    1.934   .     S
O32    Zn13    1.933   .     S
O33    Zn11    1.933   .     S
O34    Zn7     1.934   .     S
O35    Zn8     1.934   .     S
O36    Zn14    1.933   .     S
O37    Zn15    1.933   .     S
O38    Zn6     1.934   .     S
O39    Zn13    1.945   .     S
O39    Zn26    1.945   .     S
O39    Zn27    1.945   .     S
O39    Zn4     1.945   .     S
O40    Zn5     1.934   .     S
O41    Zn9     1.933   .     S
O42    Zn10    1.933   .     S
O43    Zn3     1.934   .     S
O44    Zn4     1.934   .     S
O45    Zn17    1.933   .     S
O46    Zn16    1.933   .     S
O47    Zn2     1.934   .     S
O48    Zn32    1.934   .     S
O49    Zn27    1.934   .     S
O50    Zn18    1.945   .     S
O50    Zn9     1.945   .     S
O50    Zn28    1.945   .     S
O50    Zn8     1.945   .     S
O51    Zn23    1.934   .     S
O52    Zn16    1.934   .     S
O53    Zn17    1.934   .     S
O54    Zn28    1.934   .     S
O55    Zn29    1.934   .     S
O56    Zn15    1.934   .     S
O57    Zn14    1.934   .     S
O58    Zn1     1.934   .     S
O59    Zn12    1.934   .     S
O60    Zn11    1.934   .     S
O61    Zn29    1.945   .     S
O61    Zn7     1.945   .     S
O61    Zn19    1.945   .     S
O61    Zn10    1.945   .     S
O62    Zn13    1.934   .     S
O63    Zn31    1.934   .     S
O64    Zn30    1.934   .     S
O65    Zn10    1.934   .     S
O66    Zn9     1.934   .     S
O67    Zn4     1.934   .     S
O68    Zn3     1.934   .     S
O69    Zn30    1.933   .     S
O70    Zn31    1.933   .     S
O71    Zn5     1.934   .     S
O72    Zn30    1.945   .     S
O72    Zn15    1.945   .     S
O72    Zn20    1.945   .     S
O72    Zn2     1.945   .     S
O73    Zn6     1.934   .     S
O74    Zn29    1.933   .     S
O75    Zn28    1.933   .     S
O76    Zn32    1.934   .     S
O77    Zn2     1.934   .     S
O78    Zn23    1.933   .     S
O79    Zn27    1.933   .     S
O80    Zn8     1.934   .     S
O81    Zn7     1.934   .     S
O82    Zn12    1.933   .     S
O83    Zn31    1.945   .     S
O83    Zn14    1.945   .     S
O83    Zn32    1.945   .     S
O83    Zn21    1.945   .     S
O84    Zn1     1.933   .     S
O85    Zn32    1.933   .     S
O86    Zn2     1.933   .     S
O87    Zn16    1.934   .     S
O88    Zn17    1.934   .     S
O89    Zn4     1.933   .     S
O90    Zn3     1.933   .     S
O91    Zn10    1.934   .     S
O92    Zn9     1.934   .     S
O93    Zn5     1.933   .     S
O94    Zn22    1.933   .     S
O95    Zn6     1.933   .     S
O96    Zn15    1.934   .     S
O97    Zn14    1.934   .     S
O98    Zn8     1.933   .     S
O99    Zn7     1.933   .     S
O100   Zn11    1.934   .     S
O101   Zn13    1.934   .     S
O102   Zn30    1.934   .     S
O103   Zn31    1.934   .     S
O104   Zn12    1.934   .     S
