data_str_m1_o10_o18_pcu_sym.195
_audit_creation_date              2020-01-03
_audit_creation_method            'Materials Studio'
_symmetry_space_group_name_H-M    'P1'
_symmetry_Int_Tables_number       1
_symmetry_cell_setting            triclinic
loop_
_symmetry_equiv_pos_as_xyz
  x,y,z
_cell_length_a                    32.5554
_cell_length_b                    32.5204
_cell_length_c                    35.8624
_cell_angle_alpha                 98.1142
_cell_angle_beta                  72.9557
_cell_angle_gamma                 98.5597
loop_
_atom_site_label
_atom_site_type_symbol
_atom_site_fract_x
_atom_site_fract_y
_atom_site_fract_z
_atom_site_U_iso_or_equiv
_atom_site_adp_type
_atom_site_occupancy
C1     C     0.05251   0.16000   0.25870   0.00000  Uiso   1.00
C2     C     0.20786   0.14019   0.45925   0.00000  Uiso   1.00
C3     C     0.22897   0.12090   0.47910   0.00000  Uiso   1.00
C4     C     0.28105   0.17357   0.24119   0.00000  Uiso   1.00
C5     C     0.21872   0.12619   0.02002   0.00000  Uiso   1.00
C6     C     0.18639   0.15247   0.04138   0.00000  Uiso   1.00
C7     C     0.24044   0.10601   0.04011   0.00000  Uiso   1.00
C8     C     0.22980   0.11220   0.08103   0.00000  Uiso   1.00
C9     C     0.17579   0.15644   0.08262   0.00000  Uiso   1.00
C10    C     0.32707   0.17616   0.23751   0.00000  Uiso   1.00
C11    C     0.00711   0.15774   0.26217   0.00000  Uiso   1.00
C12    C     0.10951   0.22649   0.41997   0.00000  Uiso   1.00
C13    C     0.18086   0.32216   0.23808   0.00000  Uiso   1.00
C14    C     0.15158   0.01210   0.26210   0.00000  Uiso   1.00
C15    C     0.15595   0.05614   0.25888   0.00000  Uiso   1.00
C16    C     0.17685   0.27767   0.24135   0.00000  Uiso   1.00
C17    C     0.18832   0.14525   0.14417   0.00000  Uiso   1.00
C18    C     0.14550   0.18778   0.35609   0.00000  Uiso   1.00
C19    C     0.13735   0.19712   0.39880   0.00000  Uiso   1.00
C20    C     0.19762   0.13707   0.10190   0.00000  Uiso   1.00
C21    C     0.10258   0.23494   0.46035   0.00000  Uiso   1.00
C22    C     0.27519   0.07826   0.01879   0.00000  Uiso   1.00
C23    C     0.15826   0.17652   0.41841   0.00000  Uiso   1.00
C24    C     0.15303   0.18553   0.45900   0.00000  Uiso   1.00
C25    C     0.12391   0.21464   0.47999   0.00000  Uiso   1.00
C26    C     0.17541   0.16613   0.47931   0.00000  Uiso   1.00
C27    C     0.16573   0.17377   0.02091   0.00000  Uiso   1.00
C28    C     0.13645   0.20318   0.04055   0.00000  Uiso   1.00
C29    C     0.11631   0.22332   0.02036   0.00000  Uiso   1.00
H30    H     0.01684   0.19307   0.21466   0.00000  Uiso   1.00
H31    H     0.28837   0.06530   0.03937   0.00000  Uiso   1.00
H32    H     0.26166   0.05153   0.00141   0.00000  Uiso   1.00
H33    H     0.30242   0.09648   0.49904   0.00000  Uiso   1.00
H34    H     0.20791   0.00276   0.21596   0.00000  Uiso   1.00
H35    H     0.08055   0.25747   0.47626   0.00000  Uiso   1.00
H36    H     0.17786   0.15296   0.40128   0.00000  Uiso   1.00
H37    H     0.12901   0.21241   0.07158   0.00000  Uiso   1.00
H38    H     0.31798   0.14091   0.28539   0.00000  Uiso   1.00
H39    H     0.12418   0.33227   0.28433   0.00000  Uiso   1.00
H40    H     0.15068   0.17438   0.10096   0.00000  Uiso   1.00
H41    H     0.24658   0.09770   0.09684   0.00000  Uiso   1.00
H42    H     0.25362   0.10168   0.46168   0.00000  Uiso   1.00
H43    H     0.09294   0.24276   0.40540   0.00000  Uiso   1.00
H44    H     0.21896   0.13486   0.42780   0.00000  Uiso   1.00
H45    H     0.09435   0.24579   0.03661   0.00000  Uiso   1.00
O46    O     0.16667   0.16667   0.25000   0.00000  Uiso   1.00
O47    O     0.15693   0.12393   0.16625   0.00000  Uiso   1.00
O48    O     0.12687   0.20646   0.33749   0.00000  Uiso   1.00
O49    O     0.21088   0.17493   0.15877   0.00000  Uiso   1.00
O50    O     0.17198   0.16135   0.33749   0.00000  Uiso   1.00
O51    O     0.17849   0.08101   0.27820   0.00000  Uiso   1.00
O52    O     0.14581   0.26136   0.26767   0.00000  Uiso   1.00
O53    O     0.07452   0.13251   0.23607   0.00000  Uiso   1.00
O54    O     0.26785   0.19179   0.21805   0.00000  Uiso   1.00
O55    O     0.06990   0.18960   0.27820   0.00000  Uiso   1.00
O56    O     0.25440   0.15277   0.26767   0.00000  Uiso   1.00
O57    O     0.13800   0.06903   0.23607   0.00000  Uiso   1.00
O58    O     0.20437   0.25527   0.21805   0.00000  Uiso   1.00
Zn59   Zn    0.19244   0.14090   0.28277   0.00000  Uiso   1.00
Zn60   Zn    0.13459   0.12378   0.22257   0.00000  Uiso   1.00
Zn61   Zn    0.21166   0.19664   0.21188   0.00000  Uiso   1.00
Zn62   Zn    0.12798   0.20535   0.28277   0.00000  Uiso   1.00
C63    C     0.38585   0.16000   0.25870   0.00000  Uiso   1.00
C64    C     0.54119   0.14019   0.45925   0.00000  Uiso   1.00
C65    C     0.56230   0.12090   0.47910   0.00000  Uiso   1.00
C66    C     0.61438   0.17357   0.24119   0.00000  Uiso   1.00
C67    C     0.55205   0.12619   0.02002   0.00000  Uiso   1.00
C68    C     0.51973   0.15247   0.04138   0.00000  Uiso   1.00
C69    C     0.57378   0.10601   0.04011   0.00000  Uiso   1.00
C70    C     0.56313   0.11220   0.08103   0.00000  Uiso   1.00
C71    C     0.50912   0.15644   0.08262   0.00000  Uiso   1.00
C72    C     0.66041   0.17616   0.23751   0.00000  Uiso   1.00
C73    C     0.34044   0.15774   0.26217   0.00000  Uiso   1.00
C74    C     0.44285   0.22649   0.41997   0.00000  Uiso   1.00
C75    C     0.51420   0.32216   0.23808   0.00000  Uiso   1.00
C76    C     0.48491   0.01210   0.26210   0.00000  Uiso   1.00
C77    C     0.48928   0.05614   0.25888   0.00000  Uiso   1.00
C78    C     0.51019   0.27767   0.24135   0.00000  Uiso   1.00
C79    C     0.52166   0.14525   0.14417   0.00000  Uiso   1.00
C80    C     0.47883   0.18778   0.35609   0.00000  Uiso   1.00
C81    C     0.47069   0.19712   0.39880   0.00000  Uiso   1.00
C82    C     0.53095   0.13707   0.10190   0.00000  Uiso   1.00
C83    C     0.43591   0.23494   0.46035   0.00000  Uiso   1.00
C84    C     0.60852   0.07826   0.01879   0.00000  Uiso   1.00
C85    C     0.49160   0.17652   0.41841   0.00000  Uiso   1.00
C86    C     0.48636   0.18553   0.45900   0.00000  Uiso   1.00
C87    C     0.45724   0.21464   0.47999   0.00000  Uiso   1.00
C88    C     0.50874   0.16613   0.47931   0.00000  Uiso   1.00
C89    C     0.49907   0.17377   0.02091   0.00000  Uiso   1.00
C90    C     0.46979   0.20318   0.04055   0.00000  Uiso   1.00
C91    C     0.44964   0.22332   0.02036   0.00000  Uiso   1.00
H92    H     0.35018   0.19307   0.21466   0.00000  Uiso   1.00
H93    H     0.62170   0.06530   0.03937   0.00000  Uiso   1.00
H94    H     0.59499   0.05153   0.00141   0.00000  Uiso   1.00
H95    H     0.63576   0.09648   0.49904   0.00000  Uiso   1.00
H96    H     0.54124   0.00276   0.21596   0.00000  Uiso   1.00
H97    H     0.41388   0.25747   0.47626   0.00000  Uiso   1.00
H98    H     0.51120   0.15296   0.40128   0.00000  Uiso   1.00
H99    H     0.46235   0.21241   0.07158   0.00000  Uiso   1.00
H100   H     0.65131   0.14091   0.28539   0.00000  Uiso   1.00
H101   H     0.45751   0.33227   0.28433   0.00000  Uiso   1.00
H102   H     0.48401   0.17438   0.10096   0.00000  Uiso   1.00
H103   H     0.57991   0.09770   0.09684   0.00000  Uiso   1.00
H104   H     0.58696   0.10168   0.46168   0.00000  Uiso   1.00
H105   H     0.42627   0.24276   0.40540   0.00000  Uiso   1.00
H106   H     0.55229   0.13486   0.42780   0.00000  Uiso   1.00
H107   H     0.42768   0.24579   0.03661   0.00000  Uiso   1.00
O108   O     0.50000   0.16667   0.25000   0.00000  Uiso   1.00
O109   O     0.49027   0.12393   0.16625   0.00000  Uiso   1.00
O110   O     0.46020   0.20646   0.33749   0.00000  Uiso   1.00
O111   O     0.54421   0.17493   0.15877   0.00000  Uiso   1.00
O112   O     0.50532   0.16135   0.33749   0.00000  Uiso   1.00
O113   O     0.51182   0.08101   0.27820   0.00000  Uiso   1.00
O114   O     0.47914   0.26136   0.26767   0.00000  Uiso   1.00
O115   O     0.40785   0.13251   0.23607   0.00000  Uiso   1.00
O116   O     0.60119   0.19179   0.21805   0.00000  Uiso   1.00
O117   O     0.40323   0.18960   0.27820   0.00000  Uiso   1.00
O118   O     0.58773   0.15277   0.26767   0.00000  Uiso   1.00
O119   O     0.47133   0.06903   0.23607   0.00000  Uiso   1.00
O120   O     0.53771   0.25527   0.21805   0.00000  Uiso   1.00
Zn121  Zn    0.52577   0.14090   0.28277   0.00000  Uiso   1.00
Zn122  Zn    0.46792   0.12378   0.22257   0.00000  Uiso   1.00
Zn123  Zn    0.54500   0.19664   0.21188   0.00000  Uiso   1.00
Zn124  Zn    0.46131   0.20535   0.28277   0.00000  Uiso   1.00
C125   C     0.71918   0.16000   0.25870   0.00000  Uiso   1.00
C126   C     0.87453   0.14019   0.45925   0.00000  Uiso   1.00
C127   C     0.89564   0.12090   0.47910   0.00000  Uiso   1.00
C128   C     0.94772   0.17357   0.24119   0.00000  Uiso   1.00
C129   C     0.88538   0.12619   0.02002   0.00000  Uiso   1.00
C130   C     0.85306   0.15247   0.04138   0.00000  Uiso   1.00
C131   C     0.90711   0.10601   0.04011   0.00000  Uiso   1.00
C132   C     0.89647   0.11220   0.08103   0.00000  Uiso   1.00
C133   C     0.84245   0.15644   0.08262   0.00000  Uiso   1.00
C134   C     0.99374   0.17616   0.23751   0.00000  Uiso   1.00
C135   C     0.67377   0.15774   0.26217   0.00000  Uiso   1.00
C136   C     0.77618   0.22649   0.41997   0.00000  Uiso   1.00
C137   C     0.84753   0.32216   0.23808   0.00000  Uiso   1.00
C138   C     0.81825   0.01210   0.26210   0.00000  Uiso   1.00
C139   C     0.82261   0.05614   0.25888   0.00000  Uiso   1.00
C140   C     0.84352   0.27767   0.24135   0.00000  Uiso   1.00
C141   C     0.85499   0.14525   0.14417   0.00000  Uiso   1.00
C142   C     0.81216   0.18778   0.35609   0.00000  Uiso   1.00
C143   C     0.80402   0.19712   0.39880   0.00000  Uiso   1.00
C144   C     0.86428   0.13707   0.10190   0.00000  Uiso   1.00
C145   C     0.76924   0.23494   0.46035   0.00000  Uiso   1.00
C146   C     0.94185   0.07826   0.01879   0.00000  Uiso   1.00
C147   C     0.82493   0.17652   0.41841   0.00000  Uiso   1.00
C148   C     0.81969   0.18553   0.45900   0.00000  Uiso   1.00
C149   C     0.79058   0.21464   0.47999   0.00000  Uiso   1.00
C150   C     0.84207   0.16613   0.47931   0.00000  Uiso   1.00
C151   C     0.83240   0.17377   0.02091   0.00000  Uiso   1.00
C152   C     0.80312   0.20318   0.04055   0.00000  Uiso   1.00
C153   C     0.78297   0.22332   0.02036   0.00000  Uiso   1.00
H154   H     0.68351   0.19307   0.21466   0.00000  Uiso   1.00
H155   H     0.95504   0.06530   0.03937   0.00000  Uiso   1.00
H156   H     0.92832   0.05153   0.00141   0.00000  Uiso   1.00
H157   H     0.96909   0.09648   0.49904   0.00000  Uiso   1.00
H158   H     0.87458   0.00276   0.21596   0.00000  Uiso   1.00
H159   H     0.74721   0.25747   0.47626   0.00000  Uiso   1.00
H160   H     0.84453   0.15296   0.40128   0.00000  Uiso   1.00
H161   H     0.79568   0.21241   0.07158   0.00000  Uiso   1.00
H162   H     0.98465   0.14091   0.28539   0.00000  Uiso   1.00
H163   H     0.79085   0.33227   0.28433   0.00000  Uiso   1.00
H164   H     0.81734   0.17438   0.10096   0.00000  Uiso   1.00
H165   H     0.91325   0.09770   0.09684   0.00000  Uiso   1.00
H166   H     0.92029   0.10168   0.46168   0.00000  Uiso   1.00
H167   H     0.75960   0.24276   0.40540   0.00000  Uiso   1.00
H168   H     0.88563   0.13486   0.42780   0.00000  Uiso   1.00
H169   H     0.76102   0.24579   0.03661   0.00000  Uiso   1.00
O170   O     0.83333   0.16667   0.25000   0.00000  Uiso   1.00
O171   O     0.82360   0.12393   0.16625   0.00000  Uiso   1.00
O172   O     0.79354   0.20646   0.33749   0.00000  Uiso   1.00
O173   O     0.87755   0.17493   0.15877   0.00000  Uiso   1.00
O174   O     0.83865   0.16135   0.33749   0.00000  Uiso   1.00
O175   O     0.84515   0.08101   0.27820   0.00000  Uiso   1.00
O176   O     0.81247   0.26136   0.26767   0.00000  Uiso   1.00
O177   O     0.74119   0.13251   0.23607   0.00000  Uiso   1.00
O178   O     0.93452   0.19179   0.21805   0.00000  Uiso   1.00
O179   O     0.73656   0.18960   0.27820   0.00000  Uiso   1.00
O180   O     0.92106   0.15277   0.26767   0.00000  Uiso   1.00
O181   O     0.80467   0.06903   0.23607   0.00000  Uiso   1.00
O182   O     0.87104   0.25527   0.21805   0.00000  Uiso   1.00
Zn183  Zn    0.85910   0.14090   0.28277   0.00000  Uiso   1.00
Zn184  Zn    0.80125   0.12378   0.22257   0.00000  Uiso   1.00
Zn185  Zn    0.87833   0.19664   0.21188   0.00000  Uiso   1.00
Zn186  Zn    0.79465   0.20535   0.28277   0.00000  Uiso   1.00
C187   C     0.05251   0.49334   0.25870   0.00000  Uiso   1.00
C188   C     0.20786   0.47352   0.45925   0.00000  Uiso   1.00
C189   C     0.22897   0.45424   0.47910   0.00000  Uiso   1.00
C190   C     0.28105   0.50691   0.24119   0.00000  Uiso   1.00
C191   C     0.21872   0.45952   0.02002   0.00000  Uiso   1.00
C192   C     0.18639   0.48581   0.04138   0.00000  Uiso   1.00
C193   C     0.24044   0.43934   0.04011   0.00000  Uiso   1.00
C194   C     0.22980   0.44554   0.08103   0.00000  Uiso   1.00
C195   C     0.17579   0.48978   0.08262   0.00000  Uiso   1.00
C196   C     0.32707   0.50949   0.23751   0.00000  Uiso   1.00
C197   C     0.00711   0.49107   0.26217   0.00000  Uiso   1.00
C198   C     0.10951   0.55982   0.41997   0.00000  Uiso   1.00
C199   C     0.18086   0.65549   0.23808   0.00000  Uiso   1.00
C200   C     0.15158   0.34543   0.26210   0.00000  Uiso   1.00
C201   C     0.15595   0.38948   0.25888   0.00000  Uiso   1.00
C202   C     0.17685   0.61100   0.24135   0.00000  Uiso   1.00
C203   C     0.18832   0.47858   0.14417   0.00000  Uiso   1.00
C204   C     0.14550   0.52111   0.35609   0.00000  Uiso   1.00
C205   C     0.13735   0.53045   0.39880   0.00000  Uiso   1.00
C206   C     0.19762   0.47040   0.10190   0.00000  Uiso   1.00
C207   C     0.10258   0.56827   0.46035   0.00000  Uiso   1.00
C208   C     0.27519   0.41160   0.01879   0.00000  Uiso   1.00
C209   C     0.15826   0.50985   0.41841   0.00000  Uiso   1.00
C210   C     0.15303   0.51886   0.45900   0.00000  Uiso   1.00
C211   C     0.12391   0.54798   0.47999   0.00000  Uiso   1.00
C212   C     0.17541   0.49947   0.47931   0.00000  Uiso   1.00
C213   C     0.16573   0.50710   0.02091   0.00000  Uiso   1.00
C214   C     0.13645   0.53651   0.04055   0.00000  Uiso   1.00
C215   C     0.11631   0.55665   0.02036   0.00000  Uiso   1.00
H216   H     0.01684   0.52640   0.21466   0.00000  Uiso   1.00
H217   H     0.28837   0.39863   0.03937   0.00000  Uiso   1.00
H218   H     0.26166   0.38486   0.00141   0.00000  Uiso   1.00
H219   H     0.30242   0.42981   0.49904   0.00000  Uiso   1.00
H220   H     0.20791   0.33610   0.21596   0.00000  Uiso   1.00
H221   H     0.08055   0.59080   0.47626   0.00000  Uiso   1.00
H222   H     0.17786   0.48629   0.40128   0.00000  Uiso   1.00
H223   H     0.12901   0.54574   0.07158   0.00000  Uiso   1.00
H224   H     0.31798   0.47424   0.28539   0.00000  Uiso   1.00
H225   H     0.12418   0.66560   0.28433   0.00000  Uiso   1.00
H226   H     0.15068   0.50771   0.10096   0.00000  Uiso   1.00
H227   H     0.24658   0.43104   0.09684   0.00000  Uiso   1.00
H228   H     0.25362   0.43501   0.46168   0.00000  Uiso   1.00
H229   H     0.09294   0.57610   0.40540   0.00000  Uiso   1.00
H230   H     0.21896   0.46819   0.42780   0.00000  Uiso   1.00
H231   H     0.09435   0.57913   0.03661   0.00000  Uiso   1.00
O232   O     0.16667   0.50000   0.25000   0.00000  Uiso   1.00
O233   O     0.15693   0.45726   0.16625   0.00000  Uiso   1.00
O234   O     0.12687   0.53979   0.33749   0.00000  Uiso   1.00
O235   O     0.21088   0.50826   0.15877   0.00000  Uiso   1.00
O236   O     0.17198   0.49468   0.33749   0.00000  Uiso   1.00
O237   O     0.17849   0.41434   0.27820   0.00000  Uiso   1.00
O238   O     0.14581   0.59469   0.26767   0.00000  Uiso   1.00
O239   O     0.07452   0.46584   0.23607   0.00000  Uiso   1.00
O240   O     0.26785   0.52512   0.21805   0.00000  Uiso   1.00
O241   O     0.06990   0.52293   0.27820   0.00000  Uiso   1.00
O242   O     0.25440   0.48610   0.26767   0.00000  Uiso   1.00
O243   O     0.13800   0.40236   0.23607   0.00000  Uiso   1.00
O244   O     0.20437   0.58860   0.21805   0.00000  Uiso   1.00
Zn245  Zn    0.19244   0.47423   0.28277   0.00000  Uiso   1.00
Zn246  Zn    0.13459   0.45711   0.22257   0.00000  Uiso   1.00
Zn247  Zn    0.21166   0.52997   0.21188   0.00000  Uiso   1.00
Zn248  Zn    0.12798   0.53868   0.28277   0.00000  Uiso   1.00
C249   C     0.38585   0.49334   0.25870   0.00000  Uiso   1.00
C250   C     0.54119   0.47352   0.45925   0.00000  Uiso   1.00
C251   C     0.56230   0.45424   0.47910   0.00000  Uiso   1.00
C252   C     0.61438   0.50691   0.24119   0.00000  Uiso   1.00
C253   C     0.55205   0.45952   0.02002   0.00000  Uiso   1.00
C254   C     0.51973   0.48581   0.04138   0.00000  Uiso   1.00
C255   C     0.57378   0.43934   0.04011   0.00000  Uiso   1.00
C256   C     0.56313   0.44554   0.08103   0.00000  Uiso   1.00
C257   C     0.50912   0.48978   0.08262   0.00000  Uiso   1.00
C258   C     0.66041   0.50949   0.23751   0.00000  Uiso   1.00
C259   C     0.34044   0.49107   0.26217   0.00000  Uiso   1.00
C260   C     0.44285   0.55982   0.41997   0.00000  Uiso   1.00
C261   C     0.51420   0.65549   0.23808   0.00000  Uiso   1.00
C262   C     0.48491   0.34543   0.26210   0.00000  Uiso   1.00
C263   C     0.48928   0.38948   0.25888   0.00000  Uiso   1.00
C264   C     0.51019   0.61100   0.24135   0.00000  Uiso   1.00
C265   C     0.52166   0.47858   0.14417   0.00000  Uiso   1.00
C266   C     0.47883   0.52111   0.35609   0.00000  Uiso   1.00
C267   C     0.47069   0.53045   0.39880   0.00000  Uiso   1.00
C268   C     0.53095   0.47040   0.10190   0.00000  Uiso   1.00
C269   C     0.43591   0.56827   0.46035   0.00000  Uiso   1.00
C270   C     0.60852   0.41160   0.01879   0.00000  Uiso   1.00
C271   C     0.49160   0.50985   0.41841   0.00000  Uiso   1.00
C272   C     0.48636   0.51886   0.45900   0.00000  Uiso   1.00
C273   C     0.45724   0.54798   0.47999   0.00000  Uiso   1.00
C274   C     0.50874   0.49947   0.47931   0.00000  Uiso   1.00
C275   C     0.49907   0.50710   0.02091   0.00000  Uiso   1.00
C276   C     0.46979   0.53651   0.04055   0.00000  Uiso   1.00
C277   C     0.44964   0.55665   0.02036   0.00000  Uiso   1.00
H278   H     0.35018   0.52640   0.21466   0.00000  Uiso   1.00
H279   H     0.62170   0.39863   0.03937   0.00000  Uiso   1.00
H280   H     0.59499   0.38486   0.00141   0.00000  Uiso   1.00
H281   H     0.63576   0.42981   0.49904   0.00000  Uiso   1.00
H282   H     0.54124   0.33610   0.21596   0.00000  Uiso   1.00
H283   H     0.41388   0.59080   0.47626   0.00000  Uiso   1.00
H284   H     0.51120   0.48629   0.40128   0.00000  Uiso   1.00
H285   H     0.46235   0.54574   0.07158   0.00000  Uiso   1.00
H286   H     0.65131   0.47424   0.28539   0.00000  Uiso   1.00
H287   H     0.45751   0.66560   0.28433   0.00000  Uiso   1.00
H288   H     0.48401   0.50771   0.10096   0.00000  Uiso   1.00
H289   H     0.57991   0.43104   0.09684   0.00000  Uiso   1.00
H290   H     0.58696   0.43501   0.46168   0.00000  Uiso   1.00
H291   H     0.42627   0.57610   0.40540   0.00000  Uiso   1.00
H292   H     0.55229   0.46819   0.42780   0.00000  Uiso   1.00
H293   H     0.42768   0.57913   0.03661   0.00000  Uiso   1.00
O294   O     0.50000   0.50000   0.25000   0.00000  Uiso   1.00
O295   O     0.49027   0.45726   0.16625   0.00000  Uiso   1.00
O296   O     0.46020   0.53979   0.33749   0.00000  Uiso   1.00
O297   O     0.54421   0.50826   0.15877   0.00000  Uiso   1.00
O298   O     0.50532   0.49468   0.33749   0.00000  Uiso   1.00
O299   O     0.51182   0.41434   0.27820   0.00000  Uiso   1.00
O300   O     0.47914   0.59469   0.26767   0.00000  Uiso   1.00
O301   O     0.40785   0.46584   0.23607   0.00000  Uiso   1.00
O302   O     0.60119   0.52512   0.21805   0.00000  Uiso   1.00
O303   O     0.40323   0.52293   0.27820   0.00000  Uiso   1.00
O304   O     0.58773   0.48610   0.26767   0.00000  Uiso   1.00
O305   O     0.47133   0.40236   0.23607   0.00000  Uiso   1.00
O306   O     0.53771   0.58860   0.21805   0.00000  Uiso   1.00
Zn307  Zn    0.52577   0.47423   0.28277   0.00000  Uiso   1.00
Zn308  Zn    0.46792   0.45711   0.22257   0.00000  Uiso   1.00
Zn309  Zn    0.54500   0.52997   0.21188   0.00000  Uiso   1.00
Zn310  Zn    0.46131   0.53868   0.28277   0.00000  Uiso   1.00
C311   C     0.71918   0.49334   0.25870   0.00000  Uiso   1.00
C312   C     0.87453   0.47352   0.45925   0.00000  Uiso   1.00
C313   C     0.89564   0.45424   0.47910   0.00000  Uiso   1.00
C314   C     0.94772   0.50691   0.24119   0.00000  Uiso   1.00
C315   C     0.88538   0.45952   0.02002   0.00000  Uiso   1.00
C316   C     0.85306   0.48581   0.04138   0.00000  Uiso   1.00
C317   C     0.90711   0.43934   0.04011   0.00000  Uiso   1.00
C318   C     0.89647   0.44554   0.08103   0.00000  Uiso   1.00
C319   C     0.84245   0.48978   0.08262   0.00000  Uiso   1.00
C320   C     0.99374   0.50949   0.23751   0.00000  Uiso   1.00
C321   C     0.67377   0.49107   0.26217   0.00000  Uiso   1.00
C322   C     0.77618   0.55982   0.41997   0.00000  Uiso   1.00
C323   C     0.84753   0.65549   0.23808   0.00000  Uiso   1.00
C324   C     0.81825   0.34543   0.26210   0.00000  Uiso   1.00
C325   C     0.82261   0.38948   0.25888   0.00000  Uiso   1.00
C326   C     0.84352   0.61100   0.24135   0.00000  Uiso   1.00
C327   C     0.85499   0.47858   0.14417   0.00000  Uiso   1.00
C328   C     0.81216   0.52111   0.35609   0.00000  Uiso   1.00
C329   C     0.80402   0.53045   0.39880   0.00000  Uiso   1.00
C330   C     0.86428   0.47040   0.10190   0.00000  Uiso   1.00
C331   C     0.76924   0.56827   0.46035   0.00000  Uiso   1.00
C332   C     0.94185   0.41160   0.01879   0.00000  Uiso   1.00
C333   C     0.82493   0.50985   0.41841   0.00000  Uiso   1.00
C334   C     0.81969   0.51886   0.45900   0.00000  Uiso   1.00
C335   C     0.79058   0.54798   0.47999   0.00000  Uiso   1.00
C336   C     0.84207   0.49947   0.47931   0.00000  Uiso   1.00
C337   C     0.83240   0.50710   0.02091   0.00000  Uiso   1.00
C338   C     0.80312   0.53651   0.04055   0.00000  Uiso   1.00
C339   C     0.78297   0.55665   0.02036   0.00000  Uiso   1.00
H340   H     0.68351   0.52640   0.21466   0.00000  Uiso   1.00
H341   H     0.95504   0.39863   0.03937   0.00000  Uiso   1.00
H342   H     0.92832   0.38486   0.00141   0.00000  Uiso   1.00
H343   H     0.96909   0.42981   0.49904   0.00000  Uiso   1.00
H344   H     0.87458   0.33610   0.21596   0.00000  Uiso   1.00
H345   H     0.74721   0.59080   0.47626   0.00000  Uiso   1.00
H346   H     0.84453   0.48629   0.40128   0.00000  Uiso   1.00
H347   H     0.79568   0.54574   0.07158   0.00000  Uiso   1.00
H348   H     0.98465   0.47424   0.28539   0.00000  Uiso   1.00
H349   H     0.79085   0.66560   0.28433   0.00000  Uiso   1.00
H350   H     0.81734   0.50771   0.10096   0.00000  Uiso   1.00
H351   H     0.91325   0.43104   0.09684   0.00000  Uiso   1.00
H352   H     0.92029   0.43501   0.46168   0.00000  Uiso   1.00
H353   H     0.75960   0.57610   0.40540   0.00000  Uiso   1.00
H354   H     0.88563   0.46819   0.42780   0.00000  Uiso   1.00
H355   H     0.76102   0.57913   0.03661   0.00000  Uiso   1.00
O356   O     0.83333   0.50000   0.25000   0.00000  Uiso   1.00
O357   O     0.82360   0.45726   0.16625   0.00000  Uiso   1.00
O358   O     0.79354   0.53979   0.33749   0.00000  Uiso   1.00
O359   O     0.87755   0.50826   0.15877   0.00000  Uiso   1.00
O360   O     0.83865   0.49468   0.33749   0.00000  Uiso   1.00
O361   O     0.84515   0.41434   0.27820   0.00000  Uiso   1.00
O362   O     0.81247   0.59469   0.26767   0.00000  Uiso   1.00
O363   O     0.74119   0.46584   0.23607   0.00000  Uiso   1.00
O364   O     0.93452   0.52512   0.21805   0.00000  Uiso   1.00
O365   O     0.73656   0.52293   0.27820   0.00000  Uiso   1.00
O366   O     0.92106   0.48610   0.26767   0.00000  Uiso   1.00
O367   O     0.80467   0.40236   0.23607   0.00000  Uiso   1.00
O368   O     0.87104   0.58860   0.21805   0.00000  Uiso   1.00
Zn369  Zn    0.85910   0.47423   0.28277   0.00000  Uiso   1.00
Zn370  Zn    0.80125   0.45711   0.22257   0.00000  Uiso   1.00
Zn371  Zn    0.87833   0.52997   0.21188   0.00000  Uiso   1.00
Zn372  Zn    0.79465   0.53868   0.28277   0.00000  Uiso   1.00
C373   C     0.05251   0.82667   0.25870   0.00000  Uiso   1.00
C374   C     0.20786   0.80685   0.45925   0.00000  Uiso   1.00
C375   C     0.22897   0.78757   0.47910   0.00000  Uiso   1.00
C376   C     0.28105   0.84024   0.24119   0.00000  Uiso   1.00
C377   C     0.21872   0.79285   0.02002   0.00000  Uiso   1.00
C378   C     0.18639   0.81914   0.04138   0.00000  Uiso   1.00
C379   C     0.24044   0.77267   0.04011   0.00000  Uiso   1.00
C380   C     0.22980   0.77887   0.08103   0.00000  Uiso   1.00
C381   C     0.17579   0.82311   0.08262   0.00000  Uiso   1.00
C382   C     0.32707   0.84282   0.23751   0.00000  Uiso   1.00
C383   C     0.00711   0.82441   0.26217   0.00000  Uiso   1.00
C384   C     0.10951   0.89316   0.41997   0.00000  Uiso   1.00
C385   C     0.18086   0.98883   0.23808   0.00000  Uiso   1.00
C386   C     0.15158   0.67877   0.26210   0.00000  Uiso   1.00
C387   C     0.15595   0.72281   0.25888   0.00000  Uiso   1.00
C388   C     0.17685   0.94434   0.24135   0.00000  Uiso   1.00
C389   C     0.18832   0.81191   0.14417   0.00000  Uiso   1.00
C390   C     0.14550   0.85445   0.35609   0.00000  Uiso   1.00
C391   C     0.13735   0.86379   0.39880   0.00000  Uiso   1.00
C392   C     0.19762   0.80373   0.10190   0.00000  Uiso   1.00
C393   C     0.10258   0.90161   0.46035   0.00000  Uiso   1.00
C394   C     0.27519   0.74493   0.01879   0.00000  Uiso   1.00
C395   C     0.15826   0.84319   0.41841   0.00000  Uiso   1.00
C396   C     0.15303   0.85220   0.45900   0.00000  Uiso   1.00
C397   C     0.12391   0.88131   0.47999   0.00000  Uiso   1.00
C398   C     0.17541   0.83280   0.47931   0.00000  Uiso   1.00
C399   C     0.16573   0.84044   0.02091   0.00000  Uiso   1.00
C400   C     0.13645   0.86985   0.04055   0.00000  Uiso   1.00
C401   C     0.11631   0.88999   0.02036   0.00000  Uiso   1.00
H402   H     0.01684   0.85974   0.21466   0.00000  Uiso   1.00
H403   H     0.28837   0.73196   0.03937   0.00000  Uiso   1.00
H404   H     0.26166   0.71819   0.00141   0.00000  Uiso   1.00
H405   H     0.30242   0.76315   0.49904   0.00000  Uiso   1.00
H406   H     0.20791   0.66943   0.21596   0.00000  Uiso   1.00
H407   H     0.08055   0.92413   0.47626   0.00000  Uiso   1.00
H408   H     0.17786   0.81962   0.40128   0.00000  Uiso   1.00
H409   H     0.12901   0.87908   0.07158   0.00000  Uiso   1.00
H410   H     0.31798   0.80758   0.28539   0.00000  Uiso   1.00
H411   H     0.12418   0.99894   0.28433   0.00000  Uiso   1.00
H412   H     0.15068   0.84105   0.10096   0.00000  Uiso   1.00
H413   H     0.24658   0.76437   0.09684   0.00000  Uiso   1.00
H414   H     0.25362   0.76835   0.46168   0.00000  Uiso   1.00
H415   H     0.09294   0.90943   0.40540   0.00000  Uiso   1.00
H416   H     0.21896   0.80153   0.42780   0.00000  Uiso   1.00
H417   H     0.09435   0.91246   0.03661   0.00000  Uiso   1.00
O418   O     0.16667   0.83333   0.25000   0.00000  Uiso   1.00
O419   O     0.15693   0.79060   0.16625   0.00000  Uiso   1.00
O420   O     0.12687   0.87313   0.33749   0.00000  Uiso   1.00
O421   O     0.21088   0.84159   0.15877   0.00000  Uiso   1.00
O422   O     0.17198   0.82802   0.33749   0.00000  Uiso   1.00
O423   O     0.17849   0.74768   0.27820   0.00000  Uiso   1.00
O424   O     0.14581   0.92803   0.26767   0.00000  Uiso   1.00
O425   O     0.07452   0.79917   0.23607   0.00000  Uiso   1.00
O426   O     0.26785   0.85845   0.21805   0.00000  Uiso   1.00
O427   O     0.06990   0.85627   0.27820   0.00000  Uiso   1.00
O428   O     0.25440   0.81944   0.26767   0.00000  Uiso   1.00
O429   O     0.13800   0.73570   0.23607   0.00000  Uiso   1.00
O430   O     0.20437   0.92193   0.21805   0.00000  Uiso   1.00
Zn431  Zn    0.19244   0.80756   0.28277   0.00000  Uiso   1.00
Zn432  Zn    0.13459   0.79044   0.22257   0.00000  Uiso   1.00
Zn433  Zn    0.21166   0.86331   0.21188   0.00000  Uiso   1.00
Zn434  Zn    0.12798   0.87202   0.28277   0.00000  Uiso   1.00
C435   C     0.38585   0.82667   0.25870   0.00000  Uiso   1.00
C436   C     0.54119   0.80685   0.45925   0.00000  Uiso   1.00
C437   C     0.56230   0.78757   0.47910   0.00000  Uiso   1.00
C438   C     0.61438   0.84024   0.24119   0.00000  Uiso   1.00
C439   C     0.55205   0.79285   0.02002   0.00000  Uiso   1.00
C440   C     0.51973   0.81914   0.04138   0.00000  Uiso   1.00
C441   C     0.57378   0.77267   0.04011   0.00000  Uiso   1.00
C442   C     0.56313   0.77887   0.08103   0.00000  Uiso   1.00
C443   C     0.50912   0.82311   0.08262   0.00000  Uiso   1.00
C444   C     0.66041   0.84282   0.23751   0.00000  Uiso   1.00
C445   C     0.34044   0.82441   0.26217   0.00000  Uiso   1.00
C446   C     0.44285   0.89316   0.41997   0.00000  Uiso   1.00
C447   C     0.51420   0.98883   0.23808   0.00000  Uiso   1.00
C448   C     0.48491   0.67877   0.26210   0.00000  Uiso   1.00
C449   C     0.48928   0.72281   0.25888   0.00000  Uiso   1.00
C450   C     0.51019   0.94434   0.24135   0.00000  Uiso   1.00
C451   C     0.52166   0.81191   0.14417   0.00000  Uiso   1.00
C452   C     0.47883   0.85445   0.35609   0.00000  Uiso   1.00
C453   C     0.47069   0.86379   0.39880   0.00000  Uiso   1.00
C454   C     0.53095   0.80373   0.10190   0.00000  Uiso   1.00
C455   C     0.43591   0.90161   0.46035   0.00000  Uiso   1.00
C456   C     0.60852   0.74493   0.01879   0.00000  Uiso   1.00
C457   C     0.49160   0.84319   0.41841   0.00000  Uiso   1.00
C458   C     0.48636   0.85220   0.45900   0.00000  Uiso   1.00
C459   C     0.45724   0.88131   0.47999   0.00000  Uiso   1.00
C460   C     0.50874   0.83280   0.47931   0.00000  Uiso   1.00
C461   C     0.49907   0.84044   0.02091   0.00000  Uiso   1.00
C462   C     0.46979   0.86985   0.04055   0.00000  Uiso   1.00
C463   C     0.44964   0.88999   0.02036   0.00000  Uiso   1.00
H464   H     0.35018   0.85974   0.21466   0.00000  Uiso   1.00
H465   H     0.62170   0.73196   0.03937   0.00000  Uiso   1.00
H466   H     0.59499   0.71819   0.00141   0.00000  Uiso   1.00
H467   H     0.63576   0.76315   0.49904   0.00000  Uiso   1.00
H468   H     0.54124   0.66943   0.21596   0.00000  Uiso   1.00
H469   H     0.41388   0.92413   0.47626   0.00000  Uiso   1.00
H470   H     0.51120   0.81962   0.40128   0.00000  Uiso   1.00
H471   H     0.46235   0.87908   0.07158   0.00000  Uiso   1.00
H472   H     0.65131   0.80758   0.28539   0.00000  Uiso   1.00
H473   H     0.45751   0.99894   0.28433   0.00000  Uiso   1.00
H474   H     0.48401   0.84105   0.10096   0.00000  Uiso   1.00
H475   H     0.57991   0.76437   0.09684   0.00000  Uiso   1.00
H476   H     0.58696   0.76835   0.46168   0.00000  Uiso   1.00
H477   H     0.42627   0.90943   0.40540   0.00000  Uiso   1.00
H478   H     0.55229   0.80153   0.42780   0.00000  Uiso   1.00
H479   H     0.42768   0.91246   0.03661   0.00000  Uiso   1.00
O480   O     0.50000   0.83333   0.25000   0.00000  Uiso   1.00
O481   O     0.49027   0.79060   0.16625   0.00000  Uiso   1.00
O482   O     0.46020   0.87313   0.33749   0.00000  Uiso   1.00
O483   O     0.54421   0.84159   0.15877   0.00000  Uiso   1.00
O484   O     0.50532   0.82802   0.33749   0.00000  Uiso   1.00
O485   O     0.51182   0.74768   0.27820   0.00000  Uiso   1.00
O486   O     0.47914   0.92803   0.26767   0.00000  Uiso   1.00
O487   O     0.40785   0.79917   0.23607   0.00000  Uiso   1.00
O488   O     0.60119   0.85845   0.21805   0.00000  Uiso   1.00
O489   O     0.40323   0.85627   0.27820   0.00000  Uiso   1.00
O490   O     0.58773   0.81944   0.26767   0.00000  Uiso   1.00
O491   O     0.47133   0.73570   0.23607   0.00000  Uiso   1.00
O492   O     0.53771   0.92193   0.21805   0.00000  Uiso   1.00
Zn493  Zn    0.52577   0.80756   0.28277   0.00000  Uiso   1.00
Zn494  Zn    0.46792   0.79044   0.22257   0.00000  Uiso   1.00
Zn495  Zn    0.54500   0.86331   0.21188   0.00000  Uiso   1.00
Zn496  Zn    0.46131   0.87202   0.28277   0.00000  Uiso   1.00
C497   C     0.71918   0.82667   0.25870   0.00000  Uiso   1.00
C498   C     0.87453   0.80685   0.45925   0.00000  Uiso   1.00
C499   C     0.89564   0.78757   0.47910   0.00000  Uiso   1.00
C500   C     0.94772   0.84024   0.24119   0.00000  Uiso   1.00
C501   C     0.88538   0.79285   0.02002   0.00000  Uiso   1.00
C502   C     0.85306   0.81914   0.04138   0.00000  Uiso   1.00
C503   C     0.90711   0.77267   0.04011   0.00000  Uiso   1.00
C504   C     0.89647   0.77887   0.08103   0.00000  Uiso   1.00
C505   C     0.84245   0.82311   0.08262   0.00000  Uiso   1.00
C506   C     0.99374   0.84282   0.23751   0.00000  Uiso   1.00
C507   C     0.67377   0.82441   0.26217   0.00000  Uiso   1.00
C508   C     0.77618   0.89316   0.41997   0.00000  Uiso   1.00
C509   C     0.84753   0.98883   0.23808   0.00000  Uiso   1.00
C510   C     0.81825   0.67877   0.26210   0.00000  Uiso   1.00
C511   C     0.82261   0.72281   0.25888   0.00000  Uiso   1.00
C512   C     0.84352   0.94434   0.24135   0.00000  Uiso   1.00
C513   C     0.85499   0.81191   0.14417   0.00000  Uiso   1.00
C514   C     0.81216   0.85445   0.35609   0.00000  Uiso   1.00
C515   C     0.80402   0.86379   0.39880   0.00000  Uiso   1.00
C516   C     0.86428   0.80373   0.10190   0.00000  Uiso   1.00
C517   C     0.76924   0.90161   0.46035   0.00000  Uiso   1.00
C518   C     0.94185   0.74493   0.01879   0.00000  Uiso   1.00
C519   C     0.82493   0.84319   0.41841   0.00000  Uiso   1.00
C520   C     0.81969   0.85220   0.45900   0.00000  Uiso   1.00
C521   C     0.79058   0.88131   0.47999   0.00000  Uiso   1.00
C522   C     0.84207   0.83280   0.47931   0.00000  Uiso   1.00
C523   C     0.83240   0.84044   0.02091   0.00000  Uiso   1.00
C524   C     0.80312   0.86985   0.04055   0.00000  Uiso   1.00
C525   C     0.78297   0.88999   0.02036   0.00000  Uiso   1.00
H526   H     0.68351   0.85974   0.21466   0.00000  Uiso   1.00
H527   H     0.95504   0.73196   0.03937   0.00000  Uiso   1.00
H528   H     0.92832   0.71819   0.00141   0.00000  Uiso   1.00
H529   H     0.96909   0.76315   0.49904   0.00000  Uiso   1.00
H530   H     0.87458   0.66943   0.21596   0.00000  Uiso   1.00
H531   H     0.74721   0.92413   0.47626   0.00000  Uiso   1.00
H532   H     0.84453   0.81962   0.40128   0.00000  Uiso   1.00
H533   H     0.79568   0.87908   0.07158   0.00000  Uiso   1.00
H534   H     0.98465   0.80758   0.28539   0.00000  Uiso   1.00
H535   H     0.79085   0.99894   0.28433   0.00000  Uiso   1.00
H536   H     0.81734   0.84105   0.10096   0.00000  Uiso   1.00
H537   H     0.91325   0.76437   0.09684   0.00000  Uiso   1.00
H538   H     0.92029   0.76835   0.46168   0.00000  Uiso   1.00
H539   H     0.75960   0.90943   0.40540   0.00000  Uiso   1.00
H540   H     0.88563   0.80153   0.42780   0.00000  Uiso   1.00
H541   H     0.76102   0.91246   0.03661   0.00000  Uiso   1.00
O542   O     0.83333   0.83333   0.25000   0.00000  Uiso   1.00
O543   O     0.82360   0.79060   0.16625   0.00000  Uiso   1.00
O544   O     0.79354   0.87313   0.33749   0.00000  Uiso   1.00
O545   O     0.87755   0.84159   0.15877   0.00000  Uiso   1.00
O546   O     0.83865   0.82802   0.33749   0.00000  Uiso   1.00
O547   O     0.84515   0.74768   0.27820   0.00000  Uiso   1.00
O548   O     0.81247   0.92803   0.26767   0.00000  Uiso   1.00
O549   O     0.74119   0.79917   0.23607   0.00000  Uiso   1.00
O550   O     0.93452   0.85845   0.21805   0.00000  Uiso   1.00
O551   O     0.73656   0.85627   0.27820   0.00000  Uiso   1.00
O552   O     0.92106   0.81944   0.26767   0.00000  Uiso   1.00
O553   O     0.80467   0.73570   0.23607   0.00000  Uiso   1.00
O554   O     0.87104   0.92193   0.21805   0.00000  Uiso   1.00
Zn555  Zn    0.85910   0.80756   0.28277   0.00000  Uiso   1.00
Zn556  Zn    0.80125   0.79044   0.22257   0.00000  Uiso   1.00
Zn557  Zn    0.87833   0.86331   0.21188   0.00000  Uiso   1.00
Zn558  Zn    0.79465   0.87202   0.28277   0.00000  Uiso   1.00
C559   C     0.05251   0.16000   0.75870   0.00000  Uiso   1.00
C560   C     0.20786   0.14019   0.95925   0.00000  Uiso   1.00
C561   C     0.22897   0.12090   0.97910   0.00000  Uiso   1.00
C562   C     0.28105   0.17357   0.74119   0.00000  Uiso   1.00
C563   C     0.21872   0.12619   0.52002   0.00000  Uiso   1.00
C564   C     0.18639   0.15247   0.54138   0.00000  Uiso   1.00
C565   C     0.24044   0.10601   0.54011   0.00000  Uiso   1.00
C566   C     0.22980   0.11220   0.58103   0.00000  Uiso   1.00
C567   C     0.17579   0.15644   0.58262   0.00000  Uiso   1.00
C568   C     0.32707   0.17616   0.73751   0.00000  Uiso   1.00
C569   C     0.00711   0.15774   0.76217   0.00000  Uiso   1.00
C570   C     0.10951   0.22649   0.91997   0.00000  Uiso   1.00
C571   C     0.18086   0.32216   0.73808   0.00000  Uiso   1.00
C572   C     0.15158   0.01210   0.76210   0.00000  Uiso   1.00
C573   C     0.15595   0.05614   0.75888   0.00000  Uiso   1.00
C574   C     0.17685   0.27767   0.74135   0.00000  Uiso   1.00
C575   C     0.18832   0.14525   0.64417   0.00000  Uiso   1.00
C576   C     0.14550   0.18778   0.85609   0.00000  Uiso   1.00
C577   C     0.13735   0.19712   0.89880   0.00000  Uiso   1.00
C578   C     0.19762   0.13707   0.60190   0.00000  Uiso   1.00
C579   C     0.10258   0.23494   0.96035   0.00000  Uiso   1.00
C580   C     0.27519   0.07826   0.51879   0.00000  Uiso   1.00
C581   C     0.15826   0.17652   0.91841   0.00000  Uiso   1.00
C582   C     0.15303   0.18553   0.95900   0.00000  Uiso   1.00
C583   C     0.12391   0.21464   0.97999   0.00000  Uiso   1.00
C584   C     0.17541   0.16613   0.97931   0.00000  Uiso   1.00
C585   C     0.16573   0.17377   0.52091   0.00000  Uiso   1.00
C586   C     0.13645   0.20318   0.54055   0.00000  Uiso   1.00
C587   C     0.11631   0.22332   0.52036   0.00000  Uiso   1.00
H588   H     0.01684   0.19307   0.71466   0.00000  Uiso   1.00
H589   H     0.28837   0.06530   0.53937   0.00000  Uiso   1.00
H590   H     0.26166   0.05153   0.50141   0.00000  Uiso   1.00
H591   H     0.30242   0.09648   0.99904   0.00000  Uiso   1.00
H592   H     0.20791   0.00276   0.71596   0.00000  Uiso   1.00
H593   H     0.08055   0.25747   0.97626   0.00000  Uiso   1.00
H594   H     0.17786   0.15296   0.90128   0.00000  Uiso   1.00
H595   H     0.12901   0.21241   0.57158   0.00000  Uiso   1.00
H596   H     0.31798   0.14091   0.78539   0.00000  Uiso   1.00
H597   H     0.12418   0.33227   0.78433   0.00000  Uiso   1.00
H598   H     0.15068   0.17438   0.60096   0.00000  Uiso   1.00
H599   H     0.24658   0.09770   0.59684   0.00000  Uiso   1.00
H600   H     0.25362   0.10168   0.96168   0.00000  Uiso   1.00
H601   H     0.09294   0.24276   0.90540   0.00000  Uiso   1.00
H602   H     0.21896   0.13486   0.92780   0.00000  Uiso   1.00
H603   H     0.09435   0.24579   0.53661   0.00000  Uiso   1.00
O604   O     0.16667   0.16667   0.75000   0.00000  Uiso   1.00
O605   O     0.15693   0.12393   0.66625   0.00000  Uiso   1.00
O606   O     0.12687   0.20646   0.83749   0.00000  Uiso   1.00
O607   O     0.21088   0.17493   0.65877   0.00000  Uiso   1.00
O608   O     0.17198   0.16135   0.83749   0.00000  Uiso   1.00
O609   O     0.17849   0.08101   0.77820   0.00000  Uiso   1.00
O610   O     0.14581   0.26136   0.76767   0.00000  Uiso   1.00
O611   O     0.07452   0.13251   0.73607   0.00000  Uiso   1.00
O612   O     0.26785   0.19179   0.71805   0.00000  Uiso   1.00
O613   O     0.06990   0.18960   0.77820   0.00000  Uiso   1.00
O614   O     0.25440   0.15277   0.76767   0.00000  Uiso   1.00
O615   O     0.13800   0.06903   0.73607   0.00000  Uiso   1.00
O616   O     0.20437   0.25527   0.71805   0.00000  Uiso   1.00
Zn617  Zn    0.19244   0.14090   0.78277   0.00000  Uiso   1.00
Zn618  Zn    0.13459   0.12378   0.72257   0.00000  Uiso   1.00
Zn619  Zn    0.21166   0.19664   0.71188   0.00000  Uiso   1.00
Zn620  Zn    0.12798   0.20535   0.78277   0.00000  Uiso   1.00
C621   C     0.38585   0.16000   0.75870   0.00000  Uiso   1.00
C622   C     0.54119   0.14019   0.95925   0.00000  Uiso   1.00
C623   C     0.56230   0.12090   0.97910   0.00000  Uiso   1.00
C624   C     0.61438   0.17357   0.74119   0.00000  Uiso   1.00
C625   C     0.55205   0.12619   0.52002   0.00000  Uiso   1.00
C626   C     0.51973   0.15247   0.54138   0.00000  Uiso   1.00
C627   C     0.57378   0.10601   0.54011   0.00000  Uiso   1.00
C628   C     0.56313   0.11220   0.58103   0.00000  Uiso   1.00
C629   C     0.50912   0.15644   0.58262   0.00000  Uiso   1.00
C630   C     0.66041   0.17616   0.73751   0.00000  Uiso   1.00
C631   C     0.34044   0.15774   0.76217   0.00000  Uiso   1.00
C632   C     0.44285   0.22649   0.91997   0.00000  Uiso   1.00
C633   C     0.51420   0.32216   0.73808   0.00000  Uiso   1.00
C634   C     0.48491   0.01210   0.76210   0.00000  Uiso   1.00
C635   C     0.48928   0.05614   0.75888   0.00000  Uiso   1.00
C636   C     0.51019   0.27767   0.74135   0.00000  Uiso   1.00
C637   C     0.52166   0.14525   0.64417   0.00000  Uiso   1.00
C638   C     0.47883   0.18778   0.85609   0.00000  Uiso   1.00
C639   C     0.47069   0.19712   0.89880   0.00000  Uiso   1.00
C640   C     0.53095   0.13707   0.60190   0.00000  Uiso   1.00
C641   C     0.43591   0.23494   0.96035   0.00000  Uiso   1.00
C642   C     0.60852   0.07826   0.51879   0.00000  Uiso   1.00
C643   C     0.49160   0.17652   0.91841   0.00000  Uiso   1.00
C644   C     0.48636   0.18553   0.95900   0.00000  Uiso   1.00
C645   C     0.45724   0.21464   0.97999   0.00000  Uiso   1.00
C646   C     0.50874   0.16613   0.97931   0.00000  Uiso   1.00
C647   C     0.49907   0.17377   0.52091   0.00000  Uiso   1.00
C648   C     0.46979   0.20318   0.54055   0.00000  Uiso   1.00
C649   C     0.44964   0.22332   0.52036   0.00000  Uiso   1.00
H650   H     0.35018   0.19307   0.71466   0.00000  Uiso   1.00
H651   H     0.62170   0.06530   0.53937   0.00000  Uiso   1.00
H652   H     0.59499   0.05153   0.50141   0.00000  Uiso   1.00
H653   H     0.63576   0.09648   0.99904   0.00000  Uiso   1.00
H654   H     0.54124   0.00276   0.71596   0.00000  Uiso   1.00
H655   H     0.41388   0.25747   0.97626   0.00000  Uiso   1.00
H656   H     0.51120   0.15296   0.90128   0.00000  Uiso   1.00
H657   H     0.46235   0.21241   0.57158   0.00000  Uiso   1.00
H658   H     0.65131   0.14091   0.78539   0.00000  Uiso   1.00
H659   H     0.45751   0.33227   0.78433   0.00000  Uiso   1.00
H660   H     0.48401   0.17438   0.60096   0.00000  Uiso   1.00
H661   H     0.57991   0.09770   0.59684   0.00000  Uiso   1.00
H662   H     0.58696   0.10168   0.96168   0.00000  Uiso   1.00
H663   H     0.42627   0.24276   0.90540   0.00000  Uiso   1.00
H664   H     0.55229   0.13486   0.92780   0.00000  Uiso   1.00
H665   H     0.42768   0.24579   0.53661   0.00000  Uiso   1.00
O666   O     0.50000   0.16667   0.75000   0.00000  Uiso   1.00
O667   O     0.49027   0.12393   0.66625   0.00000  Uiso   1.00
O668   O     0.46020   0.20646   0.83749   0.00000  Uiso   1.00
O669   O     0.54421   0.17493   0.65877   0.00000  Uiso   1.00
O670   O     0.50532   0.16135   0.83749   0.00000  Uiso   1.00
O671   O     0.51182   0.08101   0.77820   0.00000  Uiso   1.00
O672   O     0.47914   0.26136   0.76767   0.00000  Uiso   1.00
O673   O     0.40785   0.13251   0.73607   0.00000  Uiso   1.00
O674   O     0.60119   0.19179   0.71805   0.00000  Uiso   1.00
O675   O     0.40323   0.18960   0.77820   0.00000  Uiso   1.00
O676   O     0.58773   0.15277   0.76767   0.00000  Uiso   1.00
O677   O     0.47133   0.06903   0.73607   0.00000  Uiso   1.00
O678   O     0.53771   0.25527   0.71805   0.00000  Uiso   1.00
Zn679  Zn    0.52577   0.14090   0.78277   0.00000  Uiso   1.00
Zn680  Zn    0.46792   0.12378   0.72257   0.00000  Uiso   1.00
Zn681  Zn    0.54500   0.19664   0.71188   0.00000  Uiso   1.00
Zn682  Zn    0.46131   0.20535   0.78277   0.00000  Uiso   1.00
C683   C     0.71918   0.16000   0.75870   0.00000  Uiso   1.00
C684   C     0.87453   0.14019   0.95925   0.00000  Uiso   1.00
C685   C     0.89564   0.12090   0.97910   0.00000  Uiso   1.00
C686   C     0.94772   0.17357   0.74119   0.00000  Uiso   1.00
C687   C     0.88538   0.12619   0.52002   0.00000  Uiso   1.00
C688   C     0.85306   0.15247   0.54138   0.00000  Uiso   1.00
C689   C     0.90711   0.10601   0.54011   0.00000  Uiso   1.00
C690   C     0.89647   0.11220   0.58103   0.00000  Uiso   1.00
C691   C     0.84245   0.15644   0.58262   0.00000  Uiso   1.00
C692   C     0.99374   0.17616   0.73751   0.00000  Uiso   1.00
C693   C     0.67377   0.15774   0.76217   0.00000  Uiso   1.00
C694   C     0.77618   0.22649   0.91997   0.00000  Uiso   1.00
C695   C     0.84753   0.32216   0.73808   0.00000  Uiso   1.00
C696   C     0.81825   0.01210   0.76210   0.00000  Uiso   1.00
C697   C     0.82261   0.05614   0.75888   0.00000  Uiso   1.00
C698   C     0.84352   0.27767   0.74135   0.00000  Uiso   1.00
C699   C     0.85499   0.14525   0.64417   0.00000  Uiso   1.00
C700   C     0.81216   0.18778   0.85609   0.00000  Uiso   1.00
C701   C     0.80402   0.19712   0.89880   0.00000  Uiso   1.00
C702   C     0.86428   0.13707   0.60190   0.00000  Uiso   1.00
C703   C     0.76924   0.23494   0.96035   0.00000  Uiso   1.00
C704   C     0.94185   0.07826   0.51879   0.00000  Uiso   1.00
C705   C     0.82493   0.17652   0.91841   0.00000  Uiso   1.00
C706   C     0.81969   0.18553   0.95900   0.00000  Uiso   1.00
C707   C     0.79058   0.21464   0.97999   0.00000  Uiso   1.00
C708   C     0.84207   0.16613   0.97931   0.00000  Uiso   1.00
C709   C     0.83240   0.17377   0.52091   0.00000  Uiso   1.00
C710   C     0.80312   0.20318   0.54055   0.00000  Uiso   1.00
C711   C     0.78297   0.22332   0.52036   0.00000  Uiso   1.00
H712   H     0.68351   0.19307   0.71466   0.00000  Uiso   1.00
H713   H     0.95504   0.06530   0.53937   0.00000  Uiso   1.00
H714   H     0.92832   0.05153   0.50141   0.00000  Uiso   1.00
H715   H     0.96909   0.09648   0.99904   0.00000  Uiso   1.00
H716   H     0.87458   0.00276   0.71596   0.00000  Uiso   1.00
H717   H     0.74721   0.25747   0.97626   0.00000  Uiso   1.00
H718   H     0.84453   0.15296   0.90128   0.00000  Uiso   1.00
H719   H     0.79568   0.21241   0.57158   0.00000  Uiso   1.00
H720   H     0.98465   0.14091   0.78539   0.00000  Uiso   1.00
H721   H     0.79085   0.33227   0.78433   0.00000  Uiso   1.00
H722   H     0.81734   0.17438   0.60096   0.00000  Uiso   1.00
H723   H     0.91325   0.09770   0.59684   0.00000  Uiso   1.00
H724   H     0.92029   0.10168   0.96168   0.00000  Uiso   1.00
H725   H     0.75960   0.24276   0.90540   0.00000  Uiso   1.00
H726   H     0.88563   0.13486   0.92780   0.00000  Uiso   1.00
H727   H     0.76102   0.24579   0.53661   0.00000  Uiso   1.00
O728   O     0.83333   0.16667   0.75000   0.00000  Uiso   1.00
O729   O     0.82360   0.12393   0.66625   0.00000  Uiso   1.00
O730   O     0.79354   0.20646   0.83749   0.00000  Uiso   1.00
O731   O     0.87755   0.17493   0.65877   0.00000  Uiso   1.00
O732   O     0.83865   0.16135   0.83749   0.00000  Uiso   1.00
O733   O     0.84515   0.08101   0.77820   0.00000  Uiso   1.00
O734   O     0.81247   0.26136   0.76767   0.00000  Uiso   1.00
O735   O     0.74119   0.13251   0.73607   0.00000  Uiso   1.00
O736   O     0.93452   0.19179   0.71805   0.00000  Uiso   1.00
O737   O     0.73656   0.18960   0.77820   0.00000  Uiso   1.00
O738   O     0.92106   0.15277   0.76767   0.00000  Uiso   1.00
O739   O     0.80467   0.06903   0.73607   0.00000  Uiso   1.00
O740   O     0.87104   0.25527   0.71805   0.00000  Uiso   1.00
Zn741  Zn    0.85910   0.14090   0.78277   0.00000  Uiso   1.00
Zn742  Zn    0.80125   0.12378   0.72257   0.00000  Uiso   1.00
Zn743  Zn    0.87833   0.19664   0.71188   0.00000  Uiso   1.00
Zn744  Zn    0.79465   0.20535   0.78277   0.00000  Uiso   1.00
C745   C     0.05251   0.49334   0.75870   0.00000  Uiso   1.00
C746   C     0.20786   0.47352   0.95925   0.00000  Uiso   1.00
C747   C     0.22897   0.45424   0.97910   0.00000  Uiso   1.00
C748   C     0.28105   0.50691   0.74119   0.00000  Uiso   1.00
C749   C     0.21872   0.45952   0.52002   0.00000  Uiso   1.00
C750   C     0.18639   0.48581   0.54138   0.00000  Uiso   1.00
C751   C     0.24044   0.43934   0.54011   0.00000  Uiso   1.00
C752   C     0.22980   0.44554   0.58103   0.00000  Uiso   1.00
C753   C     0.17579   0.48978   0.58262   0.00000  Uiso   1.00
C754   C     0.32707   0.50949   0.73751   0.00000  Uiso   1.00
C755   C     0.00711   0.49107   0.76217   0.00000  Uiso   1.00
C756   C     0.10951   0.55982   0.91997   0.00000  Uiso   1.00
C757   C     0.18086   0.65549   0.73808   0.00000  Uiso   1.00
C758   C     0.15158   0.34543   0.76210   0.00000  Uiso   1.00
C759   C     0.15595   0.38948   0.75888   0.00000  Uiso   1.00
C760   C     0.17685   0.61100   0.74135   0.00000  Uiso   1.00
C761   C     0.18832   0.47858   0.64417   0.00000  Uiso   1.00
C762   C     0.14550   0.52111   0.85609   0.00000  Uiso   1.00
C763   C     0.13735   0.53045   0.89880   0.00000  Uiso   1.00
C764   C     0.19762   0.47040   0.60190   0.00000  Uiso   1.00
C765   C     0.10258   0.56827   0.96035   0.00000  Uiso   1.00
C766   C     0.27519   0.41160   0.51879   0.00000  Uiso   1.00
C767   C     0.15826   0.50985   0.91841   0.00000  Uiso   1.00
C768   C     0.15303   0.51886   0.95900   0.00000  Uiso   1.00
C769   C     0.12391   0.54798   0.97999   0.00000  Uiso   1.00
C770   C     0.17541   0.49947   0.97931   0.00000  Uiso   1.00
C771   C     0.16573   0.50710   0.52091   0.00000  Uiso   1.00
C772   C     0.13645   0.53651   0.54055   0.00000  Uiso   1.00
C773   C     0.11631   0.55665   0.52036   0.00000  Uiso   1.00
H774   H     0.01684   0.52640   0.71466   0.00000  Uiso   1.00
H775   H     0.28837   0.39863   0.53937   0.00000  Uiso   1.00
H776   H     0.26166   0.38486   0.50141   0.00000  Uiso   1.00
H777   H     0.30242   0.42981   0.99904   0.00000  Uiso   1.00
H778   H     0.20791   0.33610   0.71596   0.00000  Uiso   1.00
H779   H     0.08055   0.59080   0.97626   0.00000  Uiso   1.00
H780   H     0.17786   0.48629   0.90128   0.00000  Uiso   1.00
H781   H     0.12901   0.54574   0.57158   0.00000  Uiso   1.00
H782   H     0.31798   0.47424   0.78539   0.00000  Uiso   1.00
H783   H     0.12418   0.66560   0.78433   0.00000  Uiso   1.00
H784   H     0.15068   0.50771   0.60096   0.00000  Uiso   1.00
H785   H     0.24658   0.43104   0.59684   0.00000  Uiso   1.00
H786   H     0.25362   0.43501   0.96168   0.00000  Uiso   1.00
H787   H     0.09294   0.57610   0.90540   0.00000  Uiso   1.00
H788   H     0.21896   0.46819   0.92780   0.00000  Uiso   1.00
H789   H     0.09435   0.57913   0.53661   0.00000  Uiso   1.00
O790   O     0.16667   0.50000   0.75000   0.00000  Uiso   1.00
O791   O     0.15693   0.45726   0.66625   0.00000  Uiso   1.00
O792   O     0.12687   0.53979   0.83749   0.00000  Uiso   1.00
O793   O     0.21088   0.50826   0.65877   0.00000  Uiso   1.00
O794   O     0.17198   0.49468   0.83749   0.00000  Uiso   1.00
O795   O     0.17849   0.41434   0.77820   0.00000  Uiso   1.00
O796   O     0.14581   0.59469   0.76767   0.00000  Uiso   1.00
O797   O     0.07452   0.46584   0.73607   0.00000  Uiso   1.00
O798   O     0.26785   0.52512   0.71805   0.00000  Uiso   1.00
O799   O     0.06990   0.52293   0.77820   0.00000  Uiso   1.00
O800   O     0.25440   0.48610   0.76767   0.00000  Uiso   1.00
O801   O     0.13800   0.40236   0.73607   0.00000  Uiso   1.00
O802   O     0.20437   0.58860   0.71805   0.00000  Uiso   1.00
Zn803  Zn    0.19244   0.47423   0.78277   0.00000  Uiso   1.00
Zn804  Zn    0.13459   0.45711   0.72257   0.00000  Uiso   1.00
Zn805  Zn    0.21166   0.52997   0.71188   0.00000  Uiso   1.00
Zn806  Zn    0.12798   0.53868   0.78277   0.00000  Uiso   1.00
C807   C     0.38585   0.49334   0.75870   0.00000  Uiso   1.00
C808   C     0.54119   0.47352   0.95925   0.00000  Uiso   1.00
C809   C     0.56230   0.45424   0.97910   0.00000  Uiso   1.00
C810   C     0.61438   0.50691   0.74119   0.00000  Uiso   1.00
C811   C     0.55205   0.45952   0.52002   0.00000  Uiso   1.00
C812   C     0.51973   0.48581   0.54138   0.00000  Uiso   1.00
C813   C     0.57378   0.43934   0.54011   0.00000  Uiso   1.00
C814   C     0.56313   0.44554   0.58103   0.00000  Uiso   1.00
C815   C     0.50912   0.48978   0.58262   0.00000  Uiso   1.00
C816   C     0.66041   0.50949   0.73751   0.00000  Uiso   1.00
C817   C     0.34044   0.49107   0.76217   0.00000  Uiso   1.00
C818   C     0.44285   0.55982   0.91997   0.00000  Uiso   1.00
C819   C     0.51420   0.65549   0.73808   0.00000  Uiso   1.00
C820   C     0.48491   0.34543   0.76210   0.00000  Uiso   1.00
C821   C     0.48928   0.38948   0.75888   0.00000  Uiso   1.00
C822   C     0.51019   0.61100   0.74135   0.00000  Uiso   1.00
C823   C     0.52166   0.47858   0.64417   0.00000  Uiso   1.00
C824   C     0.47883   0.52111   0.85609   0.00000  Uiso   1.00
C825   C     0.47069   0.53045   0.89880   0.00000  Uiso   1.00
C826   C     0.53095   0.47040   0.60190   0.00000  Uiso   1.00
C827   C     0.43591   0.56827   0.96035   0.00000  Uiso   1.00
C828   C     0.60852   0.41160   0.51879   0.00000  Uiso   1.00
C829   C     0.49160   0.50985   0.91841   0.00000  Uiso   1.00
C830   C     0.48636   0.51886   0.95900   0.00000  Uiso   1.00
C831   C     0.45724   0.54798   0.97999   0.00000  Uiso   1.00
C832   C     0.50874   0.49947   0.97931   0.00000  Uiso   1.00
C833   C     0.49907   0.50710   0.52091   0.00000  Uiso   1.00
C834   C     0.46979   0.53651   0.54055   0.00000  Uiso   1.00
C835   C     0.44964   0.55665   0.52036   0.00000  Uiso   1.00
H836   H     0.35018   0.52640   0.71466   0.00000  Uiso   1.00
H837   H     0.62170   0.39863   0.53937   0.00000  Uiso   1.00
H838   H     0.59499   0.38486   0.50141   0.00000  Uiso   1.00
H839   H     0.63576   0.42981   0.99904   0.00000  Uiso   1.00
H840   H     0.54124   0.33610   0.71596   0.00000  Uiso   1.00
H841   H     0.41388   0.59080   0.97626   0.00000  Uiso   1.00
H842   H     0.51120   0.48629   0.90128   0.00000  Uiso   1.00
H843   H     0.46235   0.54574   0.57158   0.00000  Uiso   1.00
H844   H     0.65131   0.47424   0.78539   0.00000  Uiso   1.00
H845   H     0.45751   0.66560   0.78433   0.00000  Uiso   1.00
H846   H     0.48401   0.50771   0.60096   0.00000  Uiso   1.00
H847   H     0.57991   0.43104   0.59684   0.00000  Uiso   1.00
H848   H     0.58696   0.43501   0.96168   0.00000  Uiso   1.00
H849   H     0.42627   0.57610   0.90540   0.00000  Uiso   1.00
H850   H     0.55229   0.46819   0.92780   0.00000  Uiso   1.00
H851   H     0.42768   0.57913   0.53661   0.00000  Uiso   1.00
O852   O     0.50000   0.50000   0.75000   0.00000  Uiso   1.00
O853   O     0.49027   0.45726   0.66625   0.00000  Uiso   1.00
O854   O     0.46020   0.53979   0.83749   0.00000  Uiso   1.00
O855   O     0.54421   0.50826   0.65877   0.00000  Uiso   1.00
O856   O     0.50532   0.49468   0.83749   0.00000  Uiso   1.00
O857   O     0.51182   0.41434   0.77820   0.00000  Uiso   1.00
O858   O     0.47914   0.59469   0.76767   0.00000  Uiso   1.00
O859   O     0.40785   0.46584   0.73607   0.00000  Uiso   1.00
O860   O     0.60119   0.52512   0.71805   0.00000  Uiso   1.00
O861   O     0.40323   0.52293   0.77820   0.00000  Uiso   1.00
O862   O     0.58773   0.48610   0.76767   0.00000  Uiso   1.00
O863   O     0.47133   0.40236   0.73607   0.00000  Uiso   1.00
O864   O     0.53771   0.58860   0.71805   0.00000  Uiso   1.00
Zn865  Zn    0.52577   0.47423   0.78277   0.00000  Uiso   1.00
Zn866  Zn    0.46792   0.45711   0.72257   0.00000  Uiso   1.00
Zn867  Zn    0.54500   0.52997   0.71188   0.00000  Uiso   1.00
Zn868  Zn    0.46131   0.53868   0.78277   0.00000  Uiso   1.00
C869   C     0.71918   0.49334   0.75870   0.00000  Uiso   1.00
C870   C     0.87453   0.47352   0.95925   0.00000  Uiso   1.00
C871   C     0.89564   0.45424   0.97910   0.00000  Uiso   1.00
C872   C     0.94772   0.50691   0.74119   0.00000  Uiso   1.00
C873   C     0.88538   0.45952   0.52002   0.00000  Uiso   1.00
C874   C     0.85306   0.48581   0.54138   0.00000  Uiso   1.00
C875   C     0.90711   0.43934   0.54011   0.00000  Uiso   1.00
C876   C     0.89647   0.44554   0.58103   0.00000  Uiso   1.00
C877   C     0.84245   0.48978   0.58262   0.00000  Uiso   1.00
C878   C     0.99374   0.50949   0.73751   0.00000  Uiso   1.00
C879   C     0.67377   0.49107   0.76217   0.00000  Uiso   1.00
C880   C     0.77618   0.55982   0.91997   0.00000  Uiso   1.00
C881   C     0.84753   0.65549   0.73808   0.00000  Uiso   1.00
C882   C     0.81825   0.34543   0.76210   0.00000  Uiso   1.00
C883   C     0.82261   0.38948   0.75888   0.00000  Uiso   1.00
C884   C     0.84352   0.61100   0.74135   0.00000  Uiso   1.00
C885   C     0.85499   0.47858   0.64417   0.00000  Uiso   1.00
C886   C     0.81216   0.52111   0.85609   0.00000  Uiso   1.00
C887   C     0.80402   0.53045   0.89880   0.00000  Uiso   1.00
C888   C     0.86428   0.47040   0.60190   0.00000  Uiso   1.00
C889   C     0.76924   0.56827   0.96035   0.00000  Uiso   1.00
C890   C     0.94185   0.41160   0.51879   0.00000  Uiso   1.00
C891   C     0.82493   0.50985   0.91841   0.00000  Uiso   1.00
C892   C     0.81969   0.51886   0.95900   0.00000  Uiso   1.00
C893   C     0.79058   0.54798   0.97999   0.00000  Uiso   1.00
C894   C     0.84207   0.49947   0.97931   0.00000  Uiso   1.00
C895   C     0.83240   0.50710   0.52091   0.00000  Uiso   1.00
C896   C     0.80312   0.53651   0.54055   0.00000  Uiso   1.00
C897   C     0.78297   0.55665   0.52036   0.00000  Uiso   1.00
H898   H     0.68351   0.52640   0.71466   0.00000  Uiso   1.00
H899   H     0.95504   0.39863   0.53937   0.00000  Uiso   1.00
H900   H     0.92832   0.38486   0.50141   0.00000  Uiso   1.00
H901   H     0.96909   0.42981   0.99904   0.00000  Uiso   1.00
H902   H     0.87458   0.33610   0.71596   0.00000  Uiso   1.00
H903   H     0.74721   0.59080   0.97626   0.00000  Uiso   1.00
H904   H     0.84453   0.48629   0.90128   0.00000  Uiso   1.00
H905   H     0.79568   0.54574   0.57158   0.00000  Uiso   1.00
H906   H     0.98465   0.47424   0.78539   0.00000  Uiso   1.00
H907   H     0.79085   0.66560   0.78433   0.00000  Uiso   1.00
H908   H     0.81734   0.50771   0.60096   0.00000  Uiso   1.00
H909   H     0.91325   0.43104   0.59684   0.00000  Uiso   1.00
H910   H     0.92029   0.43501   0.96168   0.00000  Uiso   1.00
H911   H     0.75960   0.57610   0.90540   0.00000  Uiso   1.00
H912   H     0.88563   0.46819   0.92780   0.00000  Uiso   1.00
H913   H     0.76102   0.57913   0.53661   0.00000  Uiso   1.00
O914   O     0.83333   0.50000   0.75000   0.00000  Uiso   1.00
O915   O     0.82360   0.45726   0.66625   0.00000  Uiso   1.00
O916   O     0.79354   0.53979   0.83749   0.00000  Uiso   1.00
O917   O     0.87755   0.50826   0.65877   0.00000  Uiso   1.00
O918   O     0.83865   0.49468   0.83749   0.00000  Uiso   1.00
O919   O     0.84515   0.41434   0.77820   0.00000  Uiso   1.00
O920   O     0.81247   0.59469   0.76767   0.00000  Uiso   1.00
O921   O     0.74119   0.46584   0.73607   0.00000  Uiso   1.00
O922   O     0.93452   0.52512   0.71805   0.00000  Uiso   1.00
O923   O     0.73656   0.52293   0.77820   0.00000  Uiso   1.00
O924   O     0.92106   0.48610   0.76767   0.00000  Uiso   1.00
O925   O     0.80467   0.40236   0.73607   0.00000  Uiso   1.00
O926   O     0.87104   0.58860   0.71805   0.00000  Uiso   1.00
Zn927  Zn    0.85910   0.47423   0.78277   0.00000  Uiso   1.00
Zn928  Zn    0.80125   0.45711   0.72257   0.00000  Uiso   1.00
Zn929  Zn    0.87833   0.52997   0.71188   0.00000  Uiso   1.00
Zn930  Zn    0.79465   0.53868   0.78277   0.00000  Uiso   1.00
C931   C     0.05251   0.82667   0.75870   0.00000  Uiso   1.00
C932   C     0.20786   0.80685   0.95925   0.00000  Uiso   1.00
C933   C     0.22897   0.78757   0.97910   0.00000  Uiso   1.00
C934   C     0.28105   0.84024   0.74119   0.00000  Uiso   1.00
C935   C     0.21872   0.79285   0.52002   0.00000  Uiso   1.00
C936   C     0.18639   0.81914   0.54138   0.00000  Uiso   1.00
C937   C     0.24044   0.77267   0.54011   0.00000  Uiso   1.00
C938   C     0.22980   0.77887   0.58103   0.00000  Uiso   1.00
C939   C     0.17579   0.82311   0.58262   0.00000  Uiso   1.00
C940   C     0.32707   0.84282   0.73751   0.00000  Uiso   1.00
C941   C     0.00711   0.82441   0.76217   0.00000  Uiso   1.00
C942   C     0.10951   0.89316   0.91997   0.00000  Uiso   1.00
C943   C     0.18086   0.98883   0.73808   0.00000  Uiso   1.00
C944   C     0.15158   0.67877   0.76210   0.00000  Uiso   1.00
C945   C     0.15595   0.72281   0.75888   0.00000  Uiso   1.00
C946   C     0.17685   0.94434   0.74135   0.00000  Uiso   1.00
C947   C     0.18832   0.81191   0.64417   0.00000  Uiso   1.00
C948   C     0.14550   0.85445   0.85609   0.00000  Uiso   1.00
C949   C     0.13735   0.86379   0.89880   0.00000  Uiso   1.00
C950   C     0.19762   0.80373   0.60190   0.00000  Uiso   1.00
C951   C     0.10258   0.90161   0.96035   0.00000  Uiso   1.00
C952   C     0.27519   0.74493   0.51879   0.00000  Uiso   1.00
C953   C     0.15826   0.84319   0.91841   0.00000  Uiso   1.00
C954   C     0.15303   0.85220   0.95900   0.00000  Uiso   1.00
C955   C     0.12391   0.88131   0.97999   0.00000  Uiso   1.00
C956   C     0.17541   0.83280   0.97931   0.00000  Uiso   1.00
C957   C     0.16573   0.84044   0.52091   0.00000  Uiso   1.00
C958   C     0.13645   0.86985   0.54055   0.00000  Uiso   1.00
C959   C     0.11631   0.88999   0.52036   0.00000  Uiso   1.00
H960   H     0.01684   0.85974   0.71466   0.00000  Uiso   1.00
H961   H     0.28837   0.73196   0.53937   0.00000  Uiso   1.00
H962   H     0.26166   0.71819   0.50141   0.00000  Uiso   1.00
H963   H     0.30242   0.76315   0.99904   0.00000  Uiso   1.00
H964   H     0.20791   0.66943   0.71596   0.00000  Uiso   1.00
H965   H     0.08055   0.92413   0.97626   0.00000  Uiso   1.00
H966   H     0.17786   0.81962   0.90128   0.00000  Uiso   1.00
H967   H     0.12901   0.87908   0.57158   0.00000  Uiso   1.00
H968   H     0.31798   0.80758   0.78539   0.00000  Uiso   1.00
H969   H     0.12418   0.99894   0.78433   0.00000  Uiso   1.00
H970   H     0.15068   0.84105   0.60096   0.00000  Uiso   1.00
H971   H     0.24658   0.76437   0.59684   0.00000  Uiso   1.00
H972   H     0.25362   0.76835   0.96168   0.00000  Uiso   1.00
H973   H     0.09294   0.90943   0.90540   0.00000  Uiso   1.00
H974   H     0.21896   0.80153   0.92780   0.00000  Uiso   1.00
H975   H     0.09435   0.91246   0.53661   0.00000  Uiso   1.00
O976   O     0.16667   0.83333   0.75000   0.00000  Uiso   1.00
O977   O     0.15693   0.79060   0.66625   0.00000  Uiso   1.00
O978   O     0.12687   0.87313   0.83749   0.00000  Uiso   1.00
O979   O     0.21088   0.84159   0.65877   0.00000  Uiso   1.00
O980   O     0.17198   0.82802   0.83749   0.00000  Uiso   1.00
O981   O     0.17849   0.74768   0.77820   0.00000  Uiso   1.00
O982   O     0.14581   0.92803   0.76767   0.00000  Uiso   1.00
O983   O     0.07452   0.79917   0.73607   0.00000  Uiso   1.00
O984   O     0.26785   0.85845   0.71805   0.00000  Uiso   1.00
O985   O     0.06990   0.85627   0.77820   0.00000  Uiso   1.00
O986   O     0.25440   0.81944   0.76767   0.00000  Uiso   1.00
O987   O     0.13800   0.73570   0.73607   0.00000  Uiso   1.00
O988   O     0.20437   0.92193   0.71805   0.00000  Uiso   1.00
Zn989  Zn    0.19244   0.80756   0.78277   0.00000  Uiso   1.00
Zn990  Zn    0.13459   0.79044   0.72257   0.00000  Uiso   1.00
Zn991  Zn    0.21166   0.86331   0.71188   0.00000  Uiso   1.00
Zn992  Zn    0.12798   0.87202   0.78277   0.00000  Uiso   1.00
C993   C     0.38585   0.82667   0.75870   0.00000  Uiso   1.00
C994   C     0.54119   0.80685   0.95925   0.00000  Uiso   1.00
C995   C     0.56230   0.78757   0.97910   0.00000  Uiso   1.00
C996   C     0.61438   0.84024   0.74119   0.00000  Uiso   1.00
C997   C     0.55205   0.79285   0.52002   0.00000  Uiso   1.00
C998   C     0.51973   0.81914   0.54138   0.00000  Uiso   1.00
C999   C     0.57378   0.77267   0.54011   0.00000  Uiso   1.00
C1000  C     0.56313   0.77887   0.58103   0.00000  Uiso   1.00
C1001  C     0.50912   0.82311   0.58262   0.00000  Uiso   1.00
C1002  C     0.66041   0.84282   0.73751   0.00000  Uiso   1.00
C1003  C     0.34044   0.82441   0.76217   0.00000  Uiso   1.00
C1004  C     0.44285   0.89316   0.91997   0.00000  Uiso   1.00
C1005  C     0.51420   0.98883   0.73808   0.00000  Uiso   1.00
C1006  C     0.48491   0.67877   0.76210   0.00000  Uiso   1.00
C1007  C     0.48928   0.72281   0.75888   0.00000  Uiso   1.00
C1008  C     0.51019   0.94434   0.74135   0.00000  Uiso   1.00
C1009  C     0.52166   0.81191   0.64417   0.00000  Uiso   1.00
C1010  C     0.47883   0.85445   0.85609   0.00000  Uiso   1.00
C1011  C     0.47069   0.86379   0.89880   0.00000  Uiso   1.00
C1012  C     0.53095   0.80373   0.60190   0.00000  Uiso   1.00
C1013  C     0.43591   0.90161   0.96035   0.00000  Uiso   1.00
C1014  C     0.60852   0.74493   0.51879   0.00000  Uiso   1.00
C1015  C     0.49160   0.84319   0.91841   0.00000  Uiso   1.00
C1016  C     0.48636   0.85220   0.95900   0.00000  Uiso   1.00
C1017  C     0.45724   0.88131   0.97999   0.00000  Uiso   1.00
C1018  C     0.50874   0.83280   0.97931   0.00000  Uiso   1.00
C1019  C     0.49907   0.84044   0.52091   0.00000  Uiso   1.00
C1020  C     0.46979   0.86985   0.54055   0.00000  Uiso   1.00
C1021  C     0.44964   0.88999   0.52036   0.00000  Uiso   1.00
H1022  H     0.35018   0.85974   0.71466   0.00000  Uiso   1.00
H1023  H     0.62170   0.73196   0.53937   0.00000  Uiso   1.00
H1024  H     0.59499   0.71819   0.50141   0.00000  Uiso   1.00
H1025  H     0.63576   0.76315   0.99904   0.00000  Uiso   1.00
H1026  H     0.54124   0.66943   0.71596   0.00000  Uiso   1.00
H1027  H     0.41388   0.92413   0.97626   0.00000  Uiso   1.00
H1028  H     0.51120   0.81962   0.90128   0.00000  Uiso   1.00
H1029  H     0.46235   0.87908   0.57158   0.00000  Uiso   1.00
H1030  H     0.65131   0.80758   0.78539   0.00000  Uiso   1.00
H1031  H     0.45751   0.99894   0.78433   0.00000  Uiso   1.00
H1032  H     0.48401   0.84105   0.60096   0.00000  Uiso   1.00
H1033  H     0.57991   0.76437   0.59684   0.00000  Uiso   1.00
H1034  H     0.58696   0.76835   0.96168   0.00000  Uiso   1.00
H1035  H     0.42627   0.90943   0.90540   0.00000  Uiso   1.00
H1036  H     0.55229   0.80153   0.92780   0.00000  Uiso   1.00
H1037  H     0.42768   0.91246   0.53661   0.00000  Uiso   1.00
O1038  O     0.50000   0.83333   0.75000   0.00000  Uiso   1.00
O1039  O     0.49027   0.79060   0.66625   0.00000  Uiso   1.00
O1040  O     0.46020   0.87313   0.83749   0.00000  Uiso   1.00
O1041  O     0.54421   0.84159   0.65877   0.00000  Uiso   1.00
O1042  O     0.50532   0.82802   0.83749   0.00000  Uiso   1.00
O1043  O     0.51182   0.74768   0.77820   0.00000  Uiso   1.00
O1044  O     0.47914   0.92803   0.76767   0.00000  Uiso   1.00
O1045  O     0.40785   0.79917   0.73607   0.00000  Uiso   1.00
O1046  O     0.60119   0.85845   0.71805   0.00000  Uiso   1.00
O1047  O     0.40323   0.85627   0.77820   0.00000  Uiso   1.00
O1048  O     0.58773   0.81944   0.76767   0.00000  Uiso   1.00
O1049  O     0.47133   0.73570   0.73607   0.00000  Uiso   1.00
O1050  O     0.53771   0.92193   0.71805   0.00000  Uiso   1.00
Zn1051 Zn    0.52577   0.80756   0.78277   0.00000  Uiso   1.00
Zn1052 Zn    0.46792   0.79044   0.72257   0.00000  Uiso   1.00
Zn1053 Zn    0.54500   0.86331   0.71188   0.00000  Uiso   1.00
Zn1054 Zn    0.46131   0.87202   0.78277   0.00000  Uiso   1.00
C1055  C     0.71918   0.82667   0.75870   0.00000  Uiso   1.00
C1056  C     0.87453   0.80685   0.95925   0.00000  Uiso   1.00
C1057  C     0.89564   0.78757   0.97910   0.00000  Uiso   1.00
C1058  C     0.94772   0.84024   0.74119   0.00000  Uiso   1.00
C1059  C     0.88538   0.79285   0.52002   0.00000  Uiso   1.00
C1060  C     0.85306   0.81914   0.54138   0.00000  Uiso   1.00
C1061  C     0.90711   0.77267   0.54011   0.00000  Uiso   1.00
C1062  C     0.89647   0.77887   0.58103   0.00000  Uiso   1.00
C1063  C     0.84245   0.82311   0.58262   0.00000  Uiso   1.00
C1064  C     0.99374   0.84282   0.73751   0.00000  Uiso   1.00
C1065  C     0.67377   0.82441   0.76217   0.00000  Uiso   1.00
C1066  C     0.77618   0.89316   0.91997   0.00000  Uiso   1.00
C1067  C     0.84753   0.98883   0.73808   0.00000  Uiso   1.00
C1068  C     0.81825   0.67877   0.76210   0.00000  Uiso   1.00
C1069  C     0.82261   0.72281   0.75888   0.00000  Uiso   1.00
C1070  C     0.84352   0.94434   0.74135   0.00000  Uiso   1.00
C1071  C     0.85499   0.81191   0.64417   0.00000  Uiso   1.00
C1072  C     0.81216   0.85445   0.85609   0.00000  Uiso   1.00
C1073  C     0.80402   0.86379   0.89880   0.00000  Uiso   1.00
C1074  C     0.86428   0.80373   0.60190   0.00000  Uiso   1.00
C1075  C     0.76924   0.90161   0.96035   0.00000  Uiso   1.00
C1076  C     0.94185   0.74493   0.51879   0.00000  Uiso   1.00
C1077  C     0.82493   0.84319   0.91841   0.00000  Uiso   1.00
C1078  C     0.81969   0.85220   0.95900   0.00000  Uiso   1.00
C1079  C     0.79058   0.88131   0.97999   0.00000  Uiso   1.00
C1080  C     0.84207   0.83280   0.97931   0.00000  Uiso   1.00
C1081  C     0.83240   0.84044   0.52091   0.00000  Uiso   1.00
C1082  C     0.80312   0.86985   0.54055   0.00000  Uiso   1.00
C1083  C     0.78297   0.88999   0.52036   0.00000  Uiso   1.00
H1084  H     0.68351   0.85974   0.71466   0.00000  Uiso   1.00
H1085  H     0.95504   0.73196   0.53937   0.00000  Uiso   1.00
H1086  H     0.92832   0.71819   0.50141   0.00000  Uiso   1.00
H1087  H     0.96909   0.76315   0.99904   0.00000  Uiso   1.00
H1088  H     0.87458   0.66943   0.71596   0.00000  Uiso   1.00
H1089  H     0.74721   0.92413   0.97626   0.00000  Uiso   1.00
H1090  H     0.84453   0.81962   0.90128   0.00000  Uiso   1.00
H1091  H     0.79568   0.87908   0.57158   0.00000  Uiso   1.00
H1092  H     0.98465   0.80758   0.78539   0.00000  Uiso   1.00
H1093  H     0.79085   0.99894   0.78433   0.00000  Uiso   1.00
H1094  H     0.81734   0.84105   0.60096   0.00000  Uiso   1.00
H1095  H     0.91325   0.76437   0.59684   0.00000  Uiso   1.00
H1096  H     0.92029   0.76835   0.96168   0.00000  Uiso   1.00
H1097  H     0.75960   0.90943   0.90540   0.00000  Uiso   1.00
H1098  H     0.88563   0.80153   0.92780   0.00000  Uiso   1.00
H1099  H     0.76102   0.91246   0.53661   0.00000  Uiso   1.00
O1100  O     0.83333   0.83333   0.75000   0.00000  Uiso   1.00
O1101  O     0.82360   0.79060   0.66625   0.00000  Uiso   1.00
O1102  O     0.79354   0.87313   0.83749   0.00000  Uiso   1.00
O1103  O     0.87755   0.84159   0.65877   0.00000  Uiso   1.00
O1104  O     0.83865   0.82802   0.83749   0.00000  Uiso   1.00
O1105  O     0.84515   0.74768   0.77820   0.00000  Uiso   1.00
O1106  O     0.81247   0.92803   0.76767   0.00000  Uiso   1.00
O1107  O     0.74119   0.79917   0.73607   0.00000  Uiso   1.00
O1108  O     0.93452   0.85845   0.71805   0.00000  Uiso   1.00
O1109  O     0.73656   0.85627   0.77820   0.00000  Uiso   1.00
O1110  O     0.92106   0.81944   0.76767   0.00000  Uiso   1.00
O1111  O     0.80467   0.73570   0.73607   0.00000  Uiso   1.00
O1112  O     0.87104   0.92193   0.71805   0.00000  Uiso   1.00
Zn1113 Zn    0.85910   0.80756   0.78277   0.00000  Uiso   1.00
Zn1114 Zn    0.80125   0.79044   0.72257   0.00000  Uiso   1.00
Zn1115 Zn    0.87833   0.86331   0.71188   0.00000  Uiso   1.00
Zn1116 Zn    0.79465   0.87202   0.78277   0.00000  Uiso   1.00
loop_
_geom_bond_atom_site_label_1
_geom_bond_atom_site_label_2
_geom_bond_distance
_geom_bond_site_symmetry_2
_ccdc_geom_bond_type
C1     C11     1.438   .     S
C1     O55     1.271   .     A
C1     O53     1.271   .     A
C2     C3      1.383   .     A
C2     C26     1.412   .     A
C2     H44     1.076   .     S
C3     H42     1.082   .     S
C3     C563    1.398   .     S
C4     O54     1.283   .     A
C4     O56     1.279   .     A
C4     C10     1.456   .     S
C5     C6      1.427   .     A
C5     C7      1.421   .     A
C5     C561    1.398   1_554 S
C6     C27     1.429   .     A
C6     C9      1.408   .     A
C7     C22     1.510   .     S
C7     C8      1.397   .     A
C8     C20     1.390   .     A
C8     H41     1.084   .     S
C9     C20     1.387   .     A
C9     H40     1.077   .     S
C10    C73     1.335   .     S
C10    H92     1.088   .     S
C11    C134    1.335   1_455 S
C11    H162    1.086   1_455 S
C12    C19     1.400   .     A
C12    H43     1.083   .     S
C12    C21     1.392   .     A
C13    C16     1.451   .     S
C13    C200    1.332   .     S
C13    H220    1.088   .     S
C14    C15     1.436   .     S
C14    C385    1.332   1_545 S
C14    H411    1.086   1_545 S
C15    O51     1.279   .     A
C15    O57     1.279   .     A
C16    O58     1.271   .     A
C16    O52     1.271   .     A
C17    C20     1.450   .     S
C17    O47     1.273   .     A
C17    O49     1.272   .     A
C18    C19     1.471   .     S
C18    O50     1.284   .     A
C18    O48     1.282   .     A
C19    C23     1.399   .     A
C21    H35     1.084   .     S
C21    C25     1.403   .     A
C22    H32     1.110   .     S
C22    H31     1.111   .     S
C22    H591    1.110   1_554 S
C23    C24     1.408   .     A
C23    H36     1.075   .     S
C24    C25     1.417   .     A
C24    C26     1.427   .     A
C25    C587    1.390   .     S
C26    C585    1.425   .     S
C27    C28     1.417   .     A
C27    C584    1.425   1_554 S
C28    H37     1.076   .     S
C28    C29     1.387   .     A
C29    H45     1.084   .     S
C29    C583    1.390   1_554 S
H30    C134    1.088   1_455 S
H33    C580    1.110   .     S
H34    C385    1.088   1_545 S
H38    C73     1.086   .     S
H39    C200    1.086   .     S
O46    Zn59    1.963   .     S
O46    Zn62    1.933   .     S
O46    Zn61    1.934   .     S
O46    Zn60    1.945   .     S
O47    Zn60    1.936   .     S
O48    Zn62    1.947   .     S
O49    Zn61    1.942   .     S
O50    Zn59    1.932   .     S
O51    Zn59    1.928   .     S
O52    Zn62    1.931   .     S
O53    Zn60    1.926   .     S
O54    Zn61    1.937   .     S
O55    Zn62    1.932   .     S
O56    Zn59    1.923   .     S
O57    Zn60    1.936   .     S
O58    Zn61    1.930   .     S
C63    C73     1.438   .     S
C63    O117    1.271   .     A
C63    O115    1.271   .     A
C64    C65     1.383   .     A
C64    C88     1.412   .     A
C64    H106    1.076   .     S
C65    H104    1.082   .     S
C65    C625    1.398   .     S
C66    O116    1.283   .     A
C66    O118    1.279   .     A
C66    C72     1.456   .     S
C67    C68     1.427   .     A
C67    C69     1.421   .     A
C67    C623    1.398   1_554 S
C68    C89     1.429   .     A
C68    C71     1.408   .     A
C69    C84     1.510   .     S
C69    C70     1.397   .     A
C70    C82     1.390   .     A
C70    H103    1.084   .     S
C71    C82     1.387   .     A
C71    H102    1.077   .     S
C72    C135    1.335   .     S
C72    H154    1.088   .     S
C74    C81     1.400   .     A
C74    H105    1.083   .     S
C74    C83     1.392   .     A
C75    C78     1.451   .     S
C75    C262    1.332   .     S
C75    H282    1.088   .     S
C76    C77     1.436   .     S
C76    C447    1.332   1_545 S
C76    H473    1.086   1_545 S
C77    O113    1.279   .     A
C77    O119    1.279   .     A
C78    O120    1.271   .     A
C78    O114    1.271   .     A
C79    C82     1.450   .     S
C79    O109    1.273   .     A
C79    O111    1.272   .     A
C80    C81     1.471   .     S
C80    O112    1.284   .     A
C80    O110    1.282   .     A
C81    C85     1.399   .     A
C83    H97     1.084   .     S
C83    C87     1.403   .     A
C84    H94     1.110   .     S
C84    H93     1.111   .     S
C84    H653    1.110   1_554 S
C85    C86     1.408   .     A
C85    H98     1.075   .     S
C86    C87     1.417   .     A
C86    C88     1.427   .     A
C87    C649    1.390   .     S
C88    C647    1.425   .     S
C89    C90     1.417   .     A
C89    C646    1.425   1_554 S
C90    H99     1.076   .     S
C90    C91     1.387   .     A
C91    H107    1.084   .     S
C91    C645    1.390   1_554 S
H95    C642    1.110   .     S
H96    C447    1.088   1_545 S
H100   C135    1.086   .     S
H101   C262    1.086   .     S
O108   Zn121   1.963   .     S
O108   Zn124   1.933   .     S
O108   Zn123   1.934   .     S
O108   Zn122   1.945   .     S
O109   Zn122   1.936   .     S
O110   Zn124   1.947   .     S
O111   Zn123   1.942   .     S
O112   Zn121   1.932   .     S
O113   Zn121   1.928   .     S
O114   Zn124   1.931   .     S
O115   Zn122   1.926   .     S
O116   Zn123   1.937   .     S
O117   Zn124   1.932   .     S
O118   Zn121   1.923   .     S
O119   Zn122   1.936   .     S
O120   Zn123   1.930   .     S
C125   C135    1.438   .     S
C125   O179    1.271   .     A
C125   O177    1.271   .     A
C126   C127    1.383   .     A
C126   C150    1.412   .     A
C126   H168    1.076   .     S
C127   H166    1.082   .     S
C127   C687    1.398   .     S
C128   O178    1.283   .     A
C128   O180    1.279   .     A
C128   C134    1.456   .     S
C129   C130    1.427   .     A
C129   C131    1.421   .     A
C129   C685    1.398   1_554 S
C130   C151    1.429   .     A
C130   C133    1.408   .     A
C131   C146    1.510   .     S
C131   C132    1.397   .     A
C132   C144    1.390   .     A
C132   H165    1.084   .     S
C133   C144    1.387   .     A
C133   H164    1.077   .     S
C134   C11     1.335   1_655 S
C134   H30     1.088   1_655 S
C136   C143    1.400   .     A
C136   H167    1.083   .     S
C136   C145    1.392   .     A
C137   C140    1.451   .     S
C137   C324    1.332   .     S
C137   H344    1.088   .     S
C138   C139    1.436   .     S
C138   C509    1.332   1_545 S
C138   H535    1.086   1_545 S
C139   O175    1.279   .     A
C139   O181    1.279   .     A
C140   O182    1.271   .     A
C140   O176    1.271   .     A
C141   C144    1.450   .     S
C141   O171    1.273   .     A
C141   O173    1.272   .     A
C142   C143    1.471   .     S
C142   O174    1.284   .     A
C142   O172    1.282   .     A
C143   C147    1.399   .     A
C145   H159    1.084   .     S
C145   C149    1.403   .     A
C146   H156    1.110   .     S
C146   H155    1.111   .     S
C146   H715    1.110   1_554 S
C147   C148    1.408   .     A
C147   H160    1.075   .     S
C148   C149    1.417   .     A
C148   C150    1.427   .     A
C149   C711    1.390   .     S
C150   C709    1.425   .     S
C151   C152    1.417   .     A
C151   C708    1.425   1_554 S
C152   H161    1.076   .     S
C152   C153    1.387   .     A
C153   H169    1.084   .     S
C153   C707    1.390   1_554 S
H157   C704    1.110   .     S
H158   C509    1.088   1_545 S
H162   C11     1.086   1_655 S
H163   C324    1.086   .     S
O170   Zn183   1.963   .     S
O170   Zn186   1.933   .     S
O170   Zn185   1.934   .     S
O170   Zn184   1.945   .     S
O171   Zn184   1.936   .     S
O172   Zn186   1.947   .     S
O173   Zn185   1.942   .     S
O174   Zn183   1.932   .     S
O175   Zn183   1.928   .     S
O176   Zn186   1.931   .     S
O177   Zn184   1.926   .     S
O178   Zn185   1.937   .     S
O179   Zn186   1.932   .     S
O180   Zn183   1.923   .     S
O181   Zn184   1.936   .     S
O182   Zn185   1.930   .     S
C187   C197    1.438   .     S
C187   O241    1.271   .     A
C187   O239    1.271   .     A
C188   C189    1.383   .     A
C188   C212    1.412   .     A
C188   H230    1.076   .     S
C189   H228    1.082   .     S
C189   C749    1.398   .     S
C190   O240    1.283   .     A
C190   O242    1.279   .     A
C190   C196    1.456   .     S
C191   C192    1.427   .     A
C191   C193    1.421   .     A
C191   C747    1.398   1_554 S
C192   C213    1.429   .     A
C192   C195    1.408   .     A
C193   C208    1.510   .     S
C193   C194    1.397   .     A
C194   C206    1.390   .     A
C194   H227    1.084   .     S
C195   C206    1.387   .     A
C195   H226    1.077   .     S
C196   C259    1.335   .     S
C196   H278    1.088   .     S
C197   C320    1.335   1_455 S
C197   H348    1.086   1_455 S
C198   C205    1.400   .     A
C198   H229    1.083   .     S
C198   C207    1.392   .     A
C199   C202    1.451   .     S
C199   C386    1.332   .     S
C199   H406    1.088   .     S
C200   C201    1.436   .     S
C201   O237    1.279   .     A
C201   O243    1.279   .     A
C202   O244    1.271   .     A
C202   O238    1.271   .     A
C203   C206    1.450   .     S
C203   O233    1.273   .     A
C203   O235    1.272   .     A
C204   C205    1.471   .     S
C204   O236    1.284   .     A
C204   O234    1.282   .     A
C205   C209    1.399   .     A
C207   H221    1.084   .     S
C207   C211    1.403   .     A
C208   H218    1.110   .     S
C208   H217    1.111   .     S
C208   H777    1.110   1_554 S
C209   C210    1.408   .     A
C209   H222    1.075   .     S
C210   C211    1.417   .     A
C210   C212    1.427   .     A
C211   C773    1.390   .     S
C212   C771    1.425   .     S
C213   C214    1.417   .     A
C213   C770    1.425   1_554 S
C214   H223    1.076   .     S
C214   C215    1.387   .     A
C215   H231    1.084   .     S
C215   C769    1.390   1_554 S
H216   C320    1.088   1_455 S
H219   C766    1.110   .     S
H224   C259    1.086   .     S
H225   C386    1.086   .     S
O232   Zn245   1.963   .     S
O232   Zn248   1.933   .     S
O232   Zn247   1.934   .     S
O232   Zn246   1.945   .     S
O233   Zn246   1.936   .     S
O234   Zn248   1.947   .     S
O235   Zn247   1.942   .     S
O236   Zn245   1.932   .     S
O237   Zn245   1.928   .     S
O238   Zn248   1.931   .     S
O239   Zn246   1.926   .     S
O240   Zn247   1.937   .     S
O241   Zn248   1.932   .     S
O242   Zn245   1.923   .     S
O243   Zn246   1.936   .     S
O244   Zn247   1.930   .     S
C249   C259    1.438   .     S
C249   O303    1.271   .     A
C249   O301    1.271   .     A
C250   C251    1.383   .     A
C250   C274    1.412   .     A
C250   H292    1.076   .     S
C251   H290    1.082   .     S
C251   C811    1.398   .     S
C252   O302    1.283   .     A
C252   O304    1.279   .     A
C252   C258    1.456   .     S
C253   C254    1.427   .     A
C253   C255    1.421   .     A
C253   C809    1.398   1_554 S
C254   C275    1.429   .     A
C254   C257    1.408   .     A
C255   C270    1.510   .     S
C255   C256    1.397   .     A
C256   C268    1.390   .     A
C256   H289    1.084   .     S
C257   C268    1.387   .     A
C257   H288    1.077   .     S
C258   C321    1.335   .     S
C258   H340    1.088   .     S
C260   C267    1.400   .     A
C260   H291    1.083   .     S
C260   C269    1.392   .     A
C261   C264    1.451   .     S
C261   C448    1.332   .     S
C261   H468    1.088   .     S
C262   C263    1.436   .     S
C263   O299    1.279   .     A
C263   O305    1.279   .     A
C264   O306    1.271   .     A
C264   O300    1.271   .     A
C265   C268    1.450   .     S
C265   O295    1.273   .     A
C265   O297    1.272   .     A
C266   C267    1.471   .     S
C266   O298    1.284   .     A
C266   O296    1.282   .     A
C267   C271    1.399   .     A
C269   H283    1.084   .     S
C269   C273    1.403   .     A
C270   H280    1.110   .     S
C270   H279    1.111   .     S
C270   H839    1.110   1_554 S
C271   C272    1.408   .     A
C271   H284    1.075   .     S
C272   C273    1.417   .     A
C272   C274    1.427   .     A
C273   C835    1.390   .     S
C274   C833    1.425   .     S
C275   C276    1.417   .     A
C275   C832    1.425   1_554 S
C276   H285    1.076   .     S
C276   C277    1.387   .     A
C277   H293    1.084   .     S
C277   C831    1.390   1_554 S
H281   C828    1.110   .     S
H286   C321    1.086   .     S
H287   C448    1.086   .     S
O294   Zn307   1.963   .     S
O294   Zn310   1.933   .     S
O294   Zn309   1.934   .     S
O294   Zn308   1.945   .     S
O295   Zn308   1.936   .     S
O296   Zn310   1.947   .     S
O297   Zn309   1.942   .     S
O298   Zn307   1.932   .     S
O299   Zn307   1.928   .     S
O300   Zn310   1.931   .     S
O301   Zn308   1.926   .     S
O302   Zn309   1.937   .     S
O303   Zn310   1.932   .     S
O304   Zn307   1.923   .     S
O305   Zn308   1.936   .     S
O306   Zn309   1.930   .     S
C311   C321    1.438   .     S
C311   O365    1.271   .     A
C311   O363    1.271   .     A
C312   C313    1.383   .     A
C312   C336    1.412   .     A
C312   H354    1.076   .     S
C313   H352    1.082   .     S
C313   C873    1.398   .     S
C314   O364    1.283   .     A
C314   O366    1.279   .     A
C314   C320    1.456   .     S
C315   C316    1.427   .     A
C315   C317    1.421   .     A
C315   C871    1.398   1_554 S
C316   C337    1.429   .     A
C316   C319    1.408   .     A
C317   C332    1.510   .     S
C317   C318    1.397   .     A
C318   C330    1.390   .     A
C318   H351    1.084   .     S
C319   C330    1.387   .     A
C319   H350    1.077   .     S
C320   C197    1.335   1_655 S
C320   H216    1.088   1_655 S
C322   C329    1.400   .     A
C322   H353    1.083   .     S
C322   C331    1.392   .     A
C323   C326    1.451   .     S
C323   C510    1.332   .     S
C323   H530    1.088   .     S
C324   C325    1.436   .     S
C325   O361    1.279   .     A
C325   O367    1.279   .     A
C326   O368    1.271   .     A
C326   O362    1.271   .     A
C327   C330    1.450   .     S
C327   O357    1.273   .     A
C327   O359    1.272   .     A
C328   C329    1.471   .     S
C328   O360    1.284   .     A
C328   O358    1.282   .     A
C329   C333    1.399   .     A
C331   H345    1.084   .     S
C331   C335    1.403   .     A
C332   H342    1.110   .     S
C332   H341    1.111   .     S
C332   H901    1.110   1_554 S
C333   C334    1.408   .     A
C333   H346    1.075   .     S
C334   C335    1.417   .     A
C334   C336    1.427   .     A
C335   C897    1.390   .     S
C336   C895    1.425   .     S
C337   C338    1.417   .     A
C337   C894    1.425   1_554 S
C338   H347    1.076   .     S
C338   C339    1.387   .     A
C339   H355    1.084   .     S
C339   C893    1.390   1_554 S
H343   C890    1.110   .     S
H348   C197    1.086   1_655 S
H349   C510    1.086   .     S
O356   Zn369   1.963   .     S
O356   Zn372   1.933   .     S
O356   Zn371   1.934   .     S
O356   Zn370   1.945   .     S
O357   Zn370   1.936   .     S
O358   Zn372   1.947   .     S
O359   Zn371   1.942   .     S
O360   Zn369   1.932   .     S
O361   Zn369   1.928   .     S
O362   Zn372   1.931   .     S
O363   Zn370   1.926   .     S
O364   Zn371   1.937   .     S
O365   Zn372   1.932   .     S
O366   Zn369   1.923   .     S
O367   Zn370   1.936   .     S
O368   Zn371   1.930   .     S
C373   C383    1.438   .     S
C373   O427    1.271   .     A
C373   O425    1.271   .     A
C374   C375    1.383   .     A
C374   C398    1.412   .     A
C374   H416    1.076   .     S
C375   H414    1.082   .     S
C375   C935    1.398   .     S
C376   O426    1.283   .     A
C376   O428    1.279   .     A
C376   C382    1.456   .     S
C377   C378    1.427   .     A
C377   C379    1.421   .     A
C377   C933    1.398   1_554 S
C378   C399    1.429   .     A
C378   C381    1.408   .     A
C379   C394    1.510   .     S
C379   C380    1.397   .     A
C380   C392    1.390   .     A
C380   H413    1.084   .     S
C381   C392    1.387   .     A
C381   H412    1.077   .     S
C382   C445    1.335   .     S
C382   H464    1.088   .     S
C383   C506    1.335   1_455 S
C383   H534    1.086   1_455 S
C384   C391    1.400   .     A
C384   H415    1.083   .     S
C384   C393    1.392   .     A
C385   C388    1.451   .     S
C385   C14     1.332   1_565 S
C385   H34     1.088   1_565 S
C386   C387    1.436   .     S
C387   O423    1.279   .     A
C387   O429    1.279   .     A
C388   O430    1.271   .     A
C388   O424    1.271   .     A
C389   C392    1.450   .     S
C389   O419    1.273   .     A
C389   O421    1.272   .     A
C390   C391    1.471   .     S
C390   O422    1.284   .     A
C390   O420    1.282   .     A
C391   C395    1.399   .     A
C393   H407    1.084   .     S
C393   C397    1.403   .     A
C394   H404    1.110   .     S
C394   H403    1.111   .     S
C394   H963    1.110   1_554 S
C395   C396    1.408   .     A
C395   H408    1.075   .     S
C396   C397    1.417   .     A
C396   C398    1.427   .     A
C397   C959    1.390   .     S
C398   C957    1.425   .     S
C399   C400    1.417   .     A
C399   C956    1.425   1_554 S
C400   H409    1.076   .     S
C400   C401    1.387   .     A
C401   H417    1.084   .     S
C401   C955    1.390   1_554 S
H402   C506    1.088   1_455 S
H405   C952    1.110   .     S
H410   C445    1.086   .     S
H411   C14     1.086   1_565 S
O418   Zn431   1.963   .     S
O418   Zn434   1.933   .     S
O418   Zn433   1.934   .     S
O418   Zn432   1.945   .     S
O419   Zn432   1.936   .     S
O420   Zn434   1.947   .     S
O421   Zn433   1.942   .     S
O422   Zn431   1.932   .     S
O423   Zn431   1.928   .     S
O424   Zn434   1.931   .     S
O425   Zn432   1.926   .     S
O426   Zn433   1.937   .     S
O427   Zn434   1.932   .     S
O428   Zn431   1.923   .     S
O429   Zn432   1.936   .     S
O430   Zn433   1.930   .     S
C435   C445    1.438   .     S
C435   O489    1.271   .     A
C435   O487    1.271   .     A
C436   C437    1.383   .     A
C436   C460    1.412   .     A
C436   H478    1.076   .     S
C437   H476    1.082   .     S
C437   C997    1.398   .     S
C438   O488    1.283   .     A
C438   O490    1.279   .     A
C438   C444    1.456   .     S
C439   C440    1.427   .     A
C439   C441    1.421   .     A
C439   C995    1.398   1_554 S
C440   C461    1.429   .     A
C440   C443    1.408   .     A
C441   C456    1.510   .     S
C441   C442    1.397   .     A
C442   C454    1.390   .     A
C442   H475    1.084   .     S
C443   C454    1.387   .     A
C443   H474    1.077   .     S
C444   C507    1.335   .     S
C444   H526    1.088   .     S
C446   C453    1.400   .     A
C446   H477    1.083   .     S
C446   C455    1.392   .     A
C447   C450    1.451   .     S
C447   C76     1.332   1_565 S
C447   H96     1.088   1_565 S
C448   C449    1.436   .     S
C449   O485    1.279   .     A
C449   O491    1.279   .     A
C450   O492    1.271   .     A
C450   O486    1.271   .     A
C451   C454    1.450   .     S
C451   O481    1.273   .     A
C451   O483    1.272   .     A
C452   C453    1.471   .     S
C452   O484    1.284   .     A
C452   O482    1.282   .     A
C453   C457    1.399   .     A
C455   H469    1.084   .     S
C455   C459    1.403   .     A
C456   H466    1.110   .     S
C456   H465    1.111   .     S
C456   H1025   1.110   1_554 S
C457   C458    1.408   .     A
C457   H470    1.075   .     S
C458   C459    1.417   .     A
C458   C460    1.427   .     A
C459   C1021   1.390   .     S
C460   C1019   1.425   .     S
C461   C462    1.417   .     A
C461   C1018   1.425   1_554 S
C462   H471    1.076   .     S
C462   C463    1.387   .     A
C463   H479    1.084   .     S
C463   C1017   1.390   1_554 S
H467   C1014   1.110   .     S
H472   C507    1.086   .     S
H473   C76     1.086   1_565 S
O480   Zn493   1.963   .     S
O480   Zn496   1.933   .     S
O480   Zn495   1.934   .     S
O480   Zn494   1.945   .     S
O481   Zn494   1.936   .     S
O482   Zn496   1.947   .     S
O483   Zn495   1.942   .     S
O484   Zn493   1.932   .     S
O485   Zn493   1.928   .     S
O486   Zn496   1.931   .     S
O487   Zn494   1.926   .     S
O488   Zn495   1.937   .     S
O489   Zn496   1.932   .     S
O490   Zn493   1.923   .     S
O491   Zn494   1.936   .     S
O492   Zn495   1.930   .     S
C497   C507    1.438   .     S
C497   O551    1.271   .     A
C497   O549    1.271   .     A
C498   C499    1.383   .     A
C498   C522    1.412   .     A
C498   H540    1.076   .     S
C499   H538    1.082   .     S
C499   C1059   1.398   .     S
C500   O550    1.283   .     A
C500   O552    1.279   .     A
C500   C506    1.456   .     S
C501   C502    1.427   .     A
C501   C503    1.421   .     A
C501   C1057   1.398   1_554 S
C502   C523    1.429   .     A
C502   C505    1.408   .     A
C503   C518    1.510   .     S
C503   C504    1.397   .     A
C504   C516    1.390   .     A
C504   H537    1.084   .     S
C505   C516    1.387   .     A
C505   H536    1.077   .     S
C506   C383    1.335   1_655 S
C506   H402    1.088   1_655 S
C508   C515    1.400   .     A
C508   H539    1.083   .     S
C508   C517    1.392   .     A
C509   C512    1.451   .     S
C509   C138    1.332   1_565 S
C509   H158    1.088   1_565 S
C510   C511    1.436   .     S
C511   O547    1.279   .     A
C511   O553    1.279   .     A
C512   O554    1.271   .     A
C512   O548    1.271   .     A
C513   C516    1.450   .     S
C513   O543    1.273   .     A
C513   O545    1.272   .     A
C514   C515    1.471   .     S
C514   O546    1.284   .     A
C514   O544    1.282   .     A
C515   C519    1.399   .     A
C517   H531    1.084   .     S
C517   C521    1.403   .     A
C518   H528    1.110   .     S
C518   H527    1.111   .     S
C518   H1087   1.110   1_554 S
C519   C520    1.408   .     A
C519   H532    1.075   .     S
C520   C521    1.417   .     A
C520   C522    1.427   .     A
C521   C1083   1.390   .     S
C522   C1081   1.425   .     S
C523   C524    1.417   .     A
C523   C1080   1.425   1_554 S
C524   H533    1.076   .     S
C524   C525    1.387   .     A
C525   H541    1.084   .     S
C525   C1079   1.390   1_554 S
H529   C1076   1.110   .     S
H534   C383    1.086   1_655 S
H535   C138    1.086   1_565 S
O542   Zn555   1.963   .     S
O542   Zn558   1.933   .     S
O542   Zn557   1.934   .     S
O542   Zn556   1.945   .     S
O543   Zn556   1.936   .     S
O544   Zn558   1.947   .     S
O545   Zn557   1.942   .     S
O546   Zn555   1.932   .     S
O547   Zn555   1.928   .     S
O548   Zn558   1.931   .     S
O549   Zn556   1.926   .     S
O550   Zn557   1.937   .     S
O551   Zn558   1.932   .     S
O552   Zn555   1.923   .     S
O553   Zn556   1.936   .     S
O554   Zn557   1.930   .     S
C559   C569    1.438   .     S
C559   O613    1.271   .     A
C559   O611    1.271   .     A
C560   C561    1.383   .     A
C560   C584    1.412   .     A
C560   H602    1.076   .     S
C561   H600    1.082   .     S
C561   C5      1.398   1_556 S
C562   O612    1.283   .     A
C562   O614    1.279   .     A
C562   C568    1.456   .     S
C563   C564    1.427   .     A
C563   C565    1.421   .     A
C564   C585    1.429   .     A
C564   C567    1.408   .     A
C565   C580    1.510   .     S
C565   C566    1.397   .     A
C566   C578    1.390   .     A
C566   H599    1.084   .     S
C567   C578    1.387   .     A
C567   H598    1.077   .     S
C568   C631    1.335   .     S
C568   H650    1.088   .     S
C569   C692    1.335   1_455 S
C569   H720    1.086   1_455 S
C570   C577    1.400   .     A
C570   H601    1.083   .     S
C570   C579    1.392   .     A
C571   C574    1.451   .     S
C571   C758    1.332   .     S
C571   H778    1.088   .     S
C572   C573    1.436   .     S
C572   C943    1.332   1_545 S
C572   H969    1.086   1_545 S
C573   O609    1.279   .     A
C573   O615    1.279   .     A
C574   O616    1.271   .     A
C574   O610    1.271   .     A
C575   C578    1.450   .     S
C575   O605    1.273   .     A
C575   O607    1.272   .     A
C576   C577    1.471   .     S
C576   O608    1.284   .     A
C576   O606    1.282   .     A
C577   C581    1.399   .     A
C579   H593    1.084   .     S
C579   C583    1.403   .     A
C580   H590    1.110   .     S
C580   H589    1.111   .     S
C581   C582    1.408   .     A
C581   H594    1.075   .     S
C582   C583    1.417   .     A
C582   C584    1.427   .     A
C583   C29     1.390   1_556 S
C584   C27     1.425   1_556 S
C585   C586    1.417   .     A
C586   H595    1.076   .     S
C586   C587    1.387   .     A
C587   H603    1.084   .     S
H588   C692    1.088   1_455 S
H591   C22     1.110   1_556 S
H592   C943    1.088   1_545 S
H596   C631    1.086   .     S
H597   C758    1.086   .     S
O604   Zn617   1.963   .     S
O604   Zn620   1.933   .     S
O604   Zn619   1.934   .     S
O604   Zn618   1.945   .     S
O605   Zn618   1.936   .     S
O606   Zn620   1.947   .     S
O607   Zn619   1.942   .     S
O608   Zn617   1.932   .     S
O609   Zn617   1.928   .     S
O610   Zn620   1.931   .     S
O611   Zn618   1.926   .     S
O612   Zn619   1.937   .     S
O613   Zn620   1.932   .     S
O614   Zn617   1.923   .     S
O615   Zn618   1.936   .     S
O616   Zn619   1.930   .     S
C621   C631    1.438   .     S
C621   O675    1.271   .     A
C621   O673    1.271   .     A
C622   C623    1.383   .     A
C622   C646    1.412   .     A
C622   H664    1.076   .     S
C623   H662    1.082   .     S
C623   C67     1.398   1_556 S
C624   O674    1.283   .     A
C624   O676    1.279   .     A
C624   C630    1.456   .     S
C625   C626    1.427   .     A
C625   C627    1.421   .     A
C626   C647    1.429   .     A
C626   C629    1.408   .     A
C627   C642    1.510   .     S
C627   C628    1.397   .     A
C628   C640    1.390   .     A
C628   H661    1.084   .     S
C629   C640    1.387   .     A
C629   H660    1.077   .     S
C630   C693    1.335   .     S
C630   H712    1.088   .     S
C632   C639    1.400   .     A
C632   H663    1.083   .     S
C632   C641    1.392   .     A
C633   C636    1.451   .     S
C633   C820    1.332   .     S
C633   H840    1.088   .     S
C634   C635    1.436   .     S
C634   C1005   1.332   1_545 S
C634   H1031   1.086   1_545 S
C635   O671    1.279   .     A
C635   O677    1.279   .     A
C636   O678    1.271   .     A
C636   O672    1.271   .     A
C637   C640    1.450   .     S
C637   O667    1.273   .     A
C637   O669    1.272   .     A
C638   C639    1.471   .     S
C638   O670    1.284   .     A
C638   O668    1.282   .     A
C639   C643    1.399   .     A
C641   H655    1.084   .     S
C641   C645    1.403   .     A
C642   H652    1.110   .     S
C642   H651    1.111   .     S
C643   C644    1.408   .     A
C643   H656    1.075   .     S
C644   C645    1.417   .     A
C644   C646    1.427   .     A
C645   C91     1.390   1_556 S
C646   C89     1.425   1_556 S
C647   C648    1.417   .     A
C648   H657    1.076   .     S
C648   C649    1.387   .     A
C649   H665    1.084   .     S
H653   C84     1.110   1_556 S
H654   C1005   1.088   1_545 S
H658   C693    1.086   .     S
H659   C820    1.086   .     S
O666   Zn679   1.963   .     S
O666   Zn682   1.933   .     S
O666   Zn681   1.934   .     S
O666   Zn680   1.945   .     S
O667   Zn680   1.936   .     S
O668   Zn682   1.947   .     S
O669   Zn681   1.942   .     S
O670   Zn679   1.932   .     S
O671   Zn679   1.928   .     S
O672   Zn682   1.931   .     S
O673   Zn680   1.926   .     S
O674   Zn681   1.937   .     S
O675   Zn682   1.932   .     S
O676   Zn679   1.923   .     S
O677   Zn680   1.936   .     S
O678   Zn681   1.930   .     S
C683   C693    1.438   .     S
C683   O737    1.271   .     A
C683   O735    1.271   .     A
C684   C685    1.383   .     A
C684   C708    1.412   .     A
C684   H726    1.076   .     S
C685   H724    1.082   .     S
C685   C129    1.398   1_556 S
C686   O736    1.283   .     A
C686   O738    1.279   .     A
C686   C692    1.456   .     S
C687   C688    1.427   .     A
C687   C689    1.421   .     A
C688   C709    1.429   .     A
C688   C691    1.408   .     A
C689   C704    1.510   .     S
C689   C690    1.397   .     A
C690   C702    1.390   .     A
C690   H723    1.084   .     S
C691   C702    1.387   .     A
C691   H722    1.077   .     S
C692   C569    1.335   1_655 S
C692   H588    1.088   1_655 S
C694   C701    1.400   .     A
C694   H725    1.083   .     S
C694   C703    1.392   .     A
C695   C698    1.451   .     S
C695   C882    1.332   .     S
C695   H902    1.088   .     S
C696   C697    1.436   .     S
C696   C1067   1.332   1_545 S
C696   H1093   1.086   1_545 S
C697   O733    1.279   .     A
C697   O739    1.279   .     A
C698   O740    1.271   .     A
C698   O734    1.271   .     A
C699   C702    1.450   .     S
C699   O729    1.273   .     A
C699   O731    1.272   .     A
C700   C701    1.471   .     S
C700   O732    1.284   .     A
C700   O730    1.282   .     A
C701   C705    1.399   .     A
C703   H717    1.084   .     S
C703   C707    1.403   .     A
C704   H714    1.110   .     S
C704   H713    1.111   .     S
C705   C706    1.408   .     A
C705   H718    1.075   .     S
C706   C707    1.417   .     A
C706   C708    1.427   .     A
C707   C153    1.390   1_556 S
C708   C151    1.425   1_556 S
C709   C710    1.417   .     A
C710   H719    1.076   .     S
C710   C711    1.387   .     A
C711   H727    1.084   .     S
H715   C146    1.110   1_556 S
H716   C1067   1.088   1_545 S
H720   C569    1.086   1_655 S
H721   C882    1.086   .     S
O728   Zn741   1.963   .     S
O728   Zn744   1.933   .     S
O728   Zn743   1.934   .     S
O728   Zn742   1.945   .     S
O729   Zn742   1.936   .     S
O730   Zn744   1.947   .     S
O731   Zn743   1.942   .     S
O732   Zn741   1.932   .     S
O733   Zn741   1.928   .     S
O734   Zn744   1.931   .     S
O735   Zn742   1.926   .     S
O736   Zn743   1.937   .     S
O737   Zn744   1.932   .     S
O738   Zn741   1.923   .     S
O739   Zn742   1.936   .     S
O740   Zn743   1.930   .     S
C745   C755    1.438   .     S
C745   O799    1.271   .     A
C745   O797    1.271   .     A
C746   C747    1.383   .     A
C746   C770    1.412   .     A
C746   H788    1.076   .     S
C747   H786    1.082   .     S
C747   C191    1.398   1_556 S
C748   O798    1.283   .     A
C748   O800    1.279   .     A
C748   C754    1.456   .     S
C749   C750    1.427   .     A
C749   C751    1.421   .     A
C750   C771    1.429   .     A
C750   C753    1.408   .     A
C751   C766    1.510   .     S
C751   C752    1.397   .     A
C752   C764    1.390   .     A
C752   H785    1.084   .     S
C753   C764    1.387   .     A
C753   H784    1.077   .     S
C754   C817    1.335   .     S
C754   H836    1.088   .     S
C755   C878    1.335   1_455 S
C755   H906    1.086   1_455 S
C756   C763    1.400   .     A
C756   H787    1.083   .     S
C756   C765    1.392   .     A
C757   C760    1.451   .     S
C757   C944    1.332   .     S
C757   H964    1.088   .     S
C758   C759    1.436   .     S
C759   O795    1.279   .     A
C759   O801    1.279   .     A
C760   O802    1.271   .     A
C760   O796    1.271   .     A
C761   C764    1.450   .     S
C761   O791    1.273   .     A
C761   O793    1.272   .     A
C762   C763    1.471   .     S
C762   O794    1.284   .     A
C762   O792    1.282   .     A
C763   C767    1.399   .     A
C765   H779    1.084   .     S
C765   C769    1.403   .     A
C766   H776    1.110   .     S
C766   H775    1.111   .     S
C767   C768    1.408   .     A
C767   H780    1.075   .     S
C768   C769    1.417   .     A
C768   C770    1.427   .     A
C769   C215    1.390   1_556 S
C770   C213    1.425   1_556 S
C771   C772    1.417   .     A
C772   H781    1.076   .     S
C772   C773    1.387   .     A
C773   H789    1.084   .     S
H774   C878    1.088   1_455 S
H777   C208    1.110   1_556 S
H782   C817    1.086   .     S
H783   C944    1.086   .     S
O790   Zn803   1.963   .     S
O790   Zn806   1.933   .     S
O790   Zn805   1.934   .     S
O790   Zn804   1.945   .     S
O791   Zn804   1.936   .     S
O792   Zn806   1.947   .     S
O793   Zn805   1.942   .     S
O794   Zn803   1.932   .     S
O795   Zn803   1.928   .     S
O796   Zn806   1.931   .     S
O797   Zn804   1.926   .     S
O798   Zn805   1.937   .     S
O799   Zn806   1.932   .     S
O800   Zn803   1.923   .     S
O801   Zn804   1.936   .     S
O802   Zn805   1.930   .     S
C807   C817    1.438   .     S
C807   O861    1.271   .     A
C807   O859    1.271   .     A
C808   C809    1.383   .     A
C808   C832    1.412   .     A
C808   H850    1.076   .     S
C809   H848    1.082   .     S
C809   C253    1.398   1_556 S
C810   O860    1.283   .     A
C810   O862    1.279   .     A
C810   C816    1.456   .     S
C811   C812    1.427   .     A
C811   C813    1.421   .     A
C812   C833    1.429   .     A
C812   C815    1.408   .     A
C813   C828    1.510   .     S
C813   C814    1.397   .     A
C814   C826    1.390   .     A
C814   H847    1.084   .     S
C815   C826    1.387   .     A
C815   H846    1.077   .     S
C816   C879    1.335   .     S
C816   H898    1.088   .     S
C818   C825    1.400   .     A
C818   H849    1.083   .     S
C818   C827    1.392   .     A
C819   C822    1.451   .     S
C819   C1006   1.332   .     S
C819   H1026   1.088   .     S
C820   C821    1.436   .     S
C821   O857    1.279   .     A
C821   O863    1.279   .     A
C822   O864    1.271   .     A
C822   O858    1.271   .     A
C823   C826    1.450   .     S
C823   O853    1.273   .     A
C823   O855    1.272   .     A
C824   C825    1.471   .     S
C824   O856    1.284   .     A
C824   O854    1.282   .     A
C825   C829    1.399   .     A
C827   H841    1.084   .     S
C827   C831    1.403   .     A
C828   H838    1.110   .     S
C828   H837    1.111   .     S
C829   C830    1.408   .     A
C829   H842    1.075   .     S
C830   C831    1.417   .     A
C830   C832    1.427   .     A
C831   C277    1.390   1_556 S
C832   C275    1.425   1_556 S
C833   C834    1.417   .     A
C834   H843    1.076   .     S
C834   C835    1.387   .     A
C835   H851    1.084   .     S
H839   C270    1.110   1_556 S
H844   C879    1.086   .     S
H845   C1006   1.086   .     S
O852   Zn865   1.963   .     S
O852   Zn868   1.933   .     S
O852   Zn867   1.934   .     S
O852   Zn866   1.945   .     S
O853   Zn866   1.936   .     S
O854   Zn868   1.947   .     S
O855   Zn867   1.942   .     S
O856   Zn865   1.932   .     S
O857   Zn865   1.928   .     S
O858   Zn868   1.931   .     S
O859   Zn866   1.926   .     S
O860   Zn867   1.937   .     S
O861   Zn868   1.932   .     S
O862   Zn865   1.923   .     S
O863   Zn866   1.936   .     S
O864   Zn867   1.930   .     S
C869   C879    1.438   .     S
C869   O923    1.271   .     A
C869   O921    1.271   .     A
C870   C871    1.383   .     A
C870   C894    1.412   .     A
C870   H912    1.076   .     S
C871   H910    1.082   .     S
C871   C315    1.398   1_556 S
C872   O922    1.283   .     A
C872   O924    1.279   .     A
C872   C878    1.456   .     S
C873   C874    1.427   .     A
C873   C875    1.421   .     A
C874   C895    1.429   .     A
C874   C877    1.408   .     A
C875   C890    1.510   .     S
C875   C876    1.397   .     A
C876   C888    1.390   .     A
C876   H909    1.084   .     S
C877   C888    1.387   .     A
C877   H908    1.077   .     S
C878   C755    1.335   1_655 S
C878   H774    1.088   1_655 S
C880   C887    1.400   .     A
C880   H911    1.083   .     S
C880   C889    1.392   .     A
C881   C884    1.451   .     S
C881   C1068   1.332   .     S
C881   H1088   1.088   .     S
C882   C883    1.436   .     S
C883   O919    1.279   .     A
C883   O925    1.279   .     A
C884   O926    1.271   .     A
C884   O920    1.271   .     A
C885   C888    1.450   .     S
C885   O915    1.273   .     A
C885   O917    1.272   .     A
C886   C887    1.471   .     S
C886   O918    1.284   .     A
C886   O916    1.282   .     A
C887   C891    1.399   .     A
C889   H903    1.084   .     S
C889   C893    1.403   .     A
C890   H900    1.110   .     S
C890   H899    1.111   .     S
C891   C892    1.408   .     A
C891   H904    1.075   .     S
C892   C893    1.417   .     A
C892   C894    1.427   .     A
C893   C339    1.390   1_556 S
C894   C337    1.425   1_556 S
C895   C896    1.417   .     A
C896   H905    1.076   .     S
C896   C897    1.387   .     A
C897   H913    1.084   .     S
H901   C332    1.110   1_556 S
H906   C755    1.086   1_655 S
H907   C1068   1.086   .     S
O914   Zn927   1.963   .     S
O914   Zn930   1.933   .     S
O914   Zn929   1.934   .     S
O914   Zn928   1.945   .     S
O915   Zn928   1.936   .     S
O916   Zn930   1.947   .     S
O917   Zn929   1.942   .     S
O918   Zn927   1.932   .     S
O919   Zn927   1.928   .     S
O920   Zn930   1.931   .     S
O921   Zn928   1.926   .     S
O922   Zn929   1.937   .     S
O923   Zn930   1.932   .     S
O924   Zn927   1.923   .     S
O925   Zn928   1.936   .     S
O926   Zn929   1.930   .     S
C931   C941    1.438   .     S
C931   O985    1.271   .     A
C931   O983    1.271   .     A
C932   C933    1.383   .     A
C932   C956    1.412   .     A
C932   H974    1.076   .     S
C933   H972    1.082   .     S
C933   C377    1.398   1_556 S
C934   O984    1.283   .     A
C934   O986    1.279   .     A
C934   C940    1.456   .     S
C935   C936    1.427   .     A
C935   C937    1.421   .     A
C936   C957    1.429   .     A
C936   C939    1.408   .     A
C937   C952    1.510   .     S
C937   C938    1.397   .     A
C938   C950    1.390   .     A
C938   H971    1.084   .     S
C939   C950    1.387   .     A
C939   H970    1.077   .     S
C940   C1003   1.335   .     S
C940   H1022   1.088   .     S
C941   C1064   1.335   1_455 S
C941   H1092   1.086   1_455 S
C942   C949    1.400   .     A
C942   H973    1.083   .     S
C942   C951    1.392   .     A
C943   C946    1.451   .     S
C943   C572    1.332   1_565 S
C943   H592    1.088   1_565 S
C944   C945    1.436   .     S
C945   O981    1.279   .     A
C945   O987    1.279   .     A
C946   O988    1.271   .     A
C946   O982    1.271   .     A
C947   C950    1.450   .     S
C947   O977    1.273   .     A
C947   O979    1.272   .     A
C948   C949    1.471   .     S
C948   O980    1.284   .     A
C948   O978    1.282   .     A
C949   C953    1.399   .     A
C951   H965    1.084   .     S
C951   C955    1.403   .     A
C952   H962    1.110   .     S
C952   H961    1.111   .     S
C953   C954    1.408   .     A
C953   H966    1.075   .     S
C954   C955    1.417   .     A
C954   C956    1.427   .     A
C955   C401    1.390   1_556 S
C956   C399    1.425   1_556 S
C957   C958    1.417   .     A
C958   H967    1.076   .     S
C958   C959    1.387   .     A
C959   H975    1.084   .     S
H960   C1064   1.088   1_455 S
H963   C394    1.110   1_556 S
H968   C1003   1.086   .     S
H969   C572    1.086   1_565 S
O976   Zn989   1.963   .     S
O976   Zn992   1.933   .     S
O976   Zn991   1.934   .     S
O976   Zn990   1.945   .     S
O977   Zn990   1.936   .     S
O978   Zn992   1.947   .     S
O979   Zn991   1.942   .     S
O980   Zn989   1.932   .     S
O981   Zn989   1.928   .     S
O982   Zn992   1.931   .     S
O983   Zn990   1.926   .     S
O984   Zn991   1.937   .     S
O985   Zn992   1.932   .     S
O986   Zn989   1.923   .     S
O987   Zn990   1.936   .     S
O988   Zn991   1.930   .     S
C993   C1003   1.438   .     S
C993   O1047   1.271   .     A
C993   O1045   1.271   .     A
C994   C995    1.383   .     A
C994   C1018   1.412   .     A
C994   H1036   1.076   .     S
C995   H1034   1.082   .     S
C995   C439    1.398   1_556 S
C996   O1046   1.283   .     A
C996   O1048   1.279   .     A
C996   C1002   1.456   .     S
C997   C998    1.427   .     A
C997   C999    1.421   .     A
C998   C1019   1.429   .     A
C998   C1001   1.408   .     A
C999   C1014   1.510   .     S
C999   C1000   1.397   .     A
C1000  C1012   1.390   .     A
C1000  H1033   1.084   .     S
C1001  C1012   1.387   .     A
C1001  H1032   1.077   .     S
C1002  C1065   1.335   .     S
C1002  H1084   1.088   .     S
C1004  C1011   1.400   .     A
C1004  H1035   1.083   .     S
C1004  C1013   1.392   .     A
C1005  C1008   1.451   .     S
C1005  C634    1.332   1_565 S
C1005  H654    1.088   1_565 S
C1006  C1007   1.436   .     S
C1007  O1043   1.279   .     A
C1007  O1049   1.279   .     A
C1008  O1050   1.271   .     A
C1008  O1044   1.271   .     A
C1009  C1012   1.450   .     S
C1009  O1039   1.273   .     A
C1009  O1041   1.272   .     A
C1010  C1011   1.471   .     S
C1010  O1042   1.284   .     A
C1010  O1040   1.282   .     A
C1011  C1015   1.399   .     A
C1013  H1027   1.084   .     S
C1013  C1017   1.403   .     A
C1014  H1024   1.110   .     S
C1014  H1023   1.111   .     S
C1015  C1016   1.408   .     A
C1015  H1028   1.075   .     S
C1016  C1017   1.417   .     A
C1016  C1018   1.427   .     A
C1017  C463    1.390   1_556 S
C1018  C461    1.425   1_556 S
C1019  C1020   1.417   .     A
C1020  H1029   1.076   .     S
C1020  C1021   1.387   .     A
C1021  H1037   1.084   .     S
H1025  C456    1.110   1_556 S
H1030  C1065   1.086   .     S
H1031  C634    1.086   1_565 S
O1038  Zn1051  1.963   .     S
O1038  Zn1054  1.933   .     S
O1038  Zn1053  1.934   .     S
O1038  Zn1052  1.945   .     S
O1039  Zn1052  1.936   .     S
O1040  Zn1054  1.947   .     S
O1041  Zn1053  1.942   .     S
O1042  Zn1051  1.932   .     S
O1043  Zn1051  1.928   .     S
O1044  Zn1054  1.931   .     S
O1045  Zn1052  1.926   .     S
O1046  Zn1053  1.937   .     S
O1047  Zn1054  1.932   .     S
O1048  Zn1051  1.923   .     S
O1049  Zn1052  1.936   .     S
O1050  Zn1053  1.930   .     S
C1055  C1065   1.438   .     S
C1055  O1109   1.271   .     A
C1055  O1107   1.271   .     A
C1056  C1057   1.383   .     A
C1056  C1080   1.412   .     A
C1056  H1098   1.076   .     S
C1057  H1096   1.082   .     S
C1057  C501    1.398   1_556 S
C1058  O1108   1.283   .     A
C1058  O1110   1.279   .     A
C1058  C1064   1.456   .     S
C1059  C1060   1.427   .     A
C1059  C1061   1.421   .     A
C1060  C1081   1.429   .     A
C1060  C1063   1.408   .     A
C1061  C1076   1.510   .     S
C1061  C1062   1.397   .     A
C1062  C1074   1.390   .     A
C1062  H1095   1.084   .     S
C1063  C1074   1.387   .     A
C1063  H1094   1.077   .     S
C1064  C941    1.335   1_655 S
C1064  H960    1.088   1_655 S
C1066  C1073   1.400   .     A
C1066  H1097   1.083   .     S
C1066  C1075   1.392   .     A
C1067  C1070   1.451   .     S
C1067  C696    1.332   1_565 S
C1067  H716    1.088   1_565 S
C1068  C1069   1.436   .     S
C1069  O1105   1.279   .     A
C1069  O1111   1.279   .     A
C1070  O1112   1.271   .     A
C1070  O1106   1.271   .     A
C1071  C1074   1.450   .     S
C1071  O1101   1.273   .     A
C1071  O1103   1.272   .     A
C1072  C1073   1.471   .     S
C1072  O1104   1.284   .     A
C1072  O1102   1.282   .     A
C1073  C1077   1.399   .     A
C1075  H1089   1.084   .     S
C1075  C1079   1.403   .     A
C1076  H1086   1.110   .     S
C1076  H1085   1.111   .     S
C1077  C1078   1.408   .     A
C1077  H1090   1.075   .     S
C1078  C1079   1.417   .     A
C1078  C1080   1.427   .     A
C1079  C525    1.390   1_556 S
C1080  C523    1.425   1_556 S
C1081  C1082   1.417   .     A
C1082  H1091   1.076   .     S
C1082  C1083   1.387   .     A
C1083  H1099   1.084   .     S
H1087  C518    1.110   1_556 S
H1092  C941    1.086   1_655 S
H1093  C696    1.086   1_565 S
O1100  Zn1113  1.963   .     S
O1100  Zn1116  1.933   .     S
O1100  Zn1115  1.934   .     S
O1100  Zn1114  1.945   .     S
O1101  Zn1114  1.936   .     S
O1102  Zn1116  1.947   .     S
O1103  Zn1115  1.942   .     S
O1104  Zn1113  1.932   .     S
O1105  Zn1113  1.928   .     S
O1106  Zn1116  1.931   .     S
O1107  Zn1114  1.926   .     S
O1108  Zn1115  1.937   .     S
O1109  Zn1116  1.932   .     S
O1110  Zn1113  1.923   .     S
O1111  Zn1114  1.936   .     S
O1112  Zn1115  1.930   .     S
