data_str_m2_o1_o18_pcu_sym.156
_audit_creation_date              2020-01-03
_audit_creation_method            'Materials Studio'
_symmetry_space_group_name_H-M    'P1'
_symmetry_Int_Tables_number       1
_symmetry_cell_setting            triclinic
loop_
_symmetry_equiv_pos_as_xyz
  x,y,z
_cell_length_a                    28.9249
_cell_length_b                    32.4489
_cell_length_c                    30.9526
_cell_angle_alpha                 87.2675
_cell_angle_beta                  74.3394
_cell_angle_gamma                 89.8325
loop_
_atom_site_label
_atom_site_type_symbol
_atom_site_fract_x
_atom_site_fract_y
_atom_site_fract_z
_atom_site_U_iso_or_equiv
_atom_site_adp_type
_atom_site_occupancy
C1     C     0.00003   0.08749   0.25000   0.00000  Uiso   1.00
C2     C     0.33330   0.24584   0.25001   0.00000  Uiso   1.00
C3     C     0.19447   0.16053   0.04806   0.00000  Uiso   1.00
C4     C     0.14205   0.19022   0.45353   0.00000  Uiso   1.00
C5     C     0.24256   0.15596   0.02588   0.00000  Uiso   1.00
C6     C     0.09408   0.19536   0.47579   0.00000  Uiso   1.00
C7     C     0.29575   0.02190   0.23959   0.00000  Uiso   1.00
C8     C     0.03755   0.31143   0.26047   0.00000  Uiso   1.00
C9     C     0.29557   0.31257   0.23981   0.00000  Uiso   1.00
C10    C     0.03774   0.02076   0.26023   0.00000  Uiso   1.00
C11    C     0.33321   0.29052   0.25014   0.00000  Uiso   1.00
C12    C     0.00010   0.04281   0.24990   0.00000  Uiso   1.00
C13    C     0.18309   0.14122   0.27951   0.00000  Uiso   1.00
C14    C     0.15021   0.19209   0.22047   0.00000  Uiso   1.00
C15    C     0.13324   0.14220   0.28072   0.00000  Uiso   1.00
C16    C     0.20006   0.19121   0.21932   0.00000  Uiso   1.00
C17    C     0.30608   0.16664   0.33601   0.00000  Uiso   1.00
C18    C     0.02728   0.16706   0.16399   0.00000  Uiso   1.00
C19    C     0.29078   0.16614   0.38535   0.00000  Uiso   1.00
C20    C     0.04290   0.17065   0.11467   0.00000  Uiso   1.00
C21    C     0.30685   0.15436   0.45756   0.00000  Uiso   1.00
C22    C     0.02882   0.19200   0.04352   0.00000  Uiso   1.00
C23    C     0.32314   0.15787   0.41094   0.00000  Uiso   1.00
C24    C     0.01157   0.18381   0.08960   0.00000  Uiso   1.00
C25    C     0.24232   0.17257   0.40699   0.00000  Uiso   1.00
C26    C     0.09130   0.16426   0.09290   0.00000  Uiso   1.00
C27    C     0.22508   0.17039   0.45411   0.00000  Uiso   1.00
C28    C     0.11006   0.17349   0.04660   0.00000  Uiso   1.00
C29    C     0.25821   0.16029   0.47929   0.00000  Uiso   1.00
C30    C     0.07761   0.18688   0.02185   0.00000  Uiso   1.00
C31    C     0.17580   0.17672   0.47674   0.00000  Uiso   1.00
C32    C     0.15989   0.16988   0.02431   0.00000  Uiso   1.00
Cu33   Cu    0.04689   0.16667   0.25000   0.00000  Uiso   1.00
Cu34   Cu    0.28645   0.16666   0.25000   0.00000  Uiso   1.00
H35    H     0.26766   0.14856   0.04547   0.00000  Uiso   1.00
H36    H     0.06960   0.20599   0.45667   0.00000  Uiso   1.00
H37    H     0.11352   0.15192   0.11308   0.00000  Uiso   1.00
H38    H     0.21851   0.17817   0.38611   0.00000  Uiso   1.00
H39    H     0.30741   0.18866   0.10564   0.00000  Uiso   1.00
H40    H     0.02741   0.15313   0.39500   0.00000  Uiso   1.00
H41    H     0.33225   0.14637   0.47660   0.00000  Uiso   1.00
H42    H     0.00410   0.20310   0.02492   0.00000  Uiso   1.00
H43    H     0.18595   0.15737   0.08413   0.00000  Uiso   1.00
H44    H     0.15151   0.19826   0.41809   0.00000  Uiso   1.00
H45    H     0.26667   0.03844   0.23094   0.00000  Uiso   1.00
H46    H     0.06662   0.29489   0.26915   0.00000  Uiso   1.00
H47    H     0.26627   0.29696   0.23153   0.00000  Uiso   1.00
H48    H     0.06705   0.03636   0.26851   0.00000  Uiso   1.00
N49    N     0.11736   0.16668   0.24999   0.00000  Uiso   1.00
N50    N     0.21597   0.16666   0.25001   0.00000  Uiso   1.00
O51    O     0.03958   0.10655   0.25000   0.00000  Uiso   1.00
O52    O     0.29375   0.22678   0.25000   0.00000  Uiso   1.00
O53    O     0.29372   0.10654   0.25000   0.00000  Uiso   1.00
O54    O     0.03961   0.22679   0.25000   0.00000  Uiso   1.00
O55    O     0.01852   0.16668   0.31492   0.00000  Uiso   1.00
O56    O     0.31481   0.16666   0.18508   0.00000  Uiso   1.00
O57    O     0.27267   0.16667   0.31492   0.00000  Uiso   1.00
O58    O     0.06067   0.16667   0.18508   0.00000  Uiso   1.00
C59    C     0.19968   0.10970   0.30775   0.00000  Uiso   1.00
H60    H     0.20933   0.11795   0.33763   0.00000  Uiso   1.00
O61    O     0.19947   0.07338   0.29921   0.00000  Uiso   1.00
C62    C     0.13350   0.22341   0.19210   0.00000  Uiso   1.00
H63    H     0.12456   0.21501   0.16191   0.00000  Uiso   1.00
O64    O     0.13297   0.25972   0.20081   0.00000  Uiso   1.00
C65    C     0.09845   0.11812   0.31735   0.00000  Uiso   1.00
H66    H     0.06717   0.10364   0.31228   0.00000  Uiso   1.00
O67    O     0.10429   0.11450   0.35498   0.00000  Uiso   1.00
C68    C     0.23477   0.21559   0.18286   0.00000  Uiso   1.00
H69    H     0.26653   0.22932   0.18771   0.00000  Uiso   1.00
O70    O     0.22833   0.22033   0.14554   0.00000  Uiso   1.00
C71    C     0.33336   0.08749   0.25000   0.00000  Uiso   1.00
C72    C     0.66663   0.24584   0.25001   0.00000  Uiso   1.00
C73    C     0.52780   0.16053   0.04806   0.00000  Uiso   1.00
C74    C     0.47538   0.19022   0.45353   0.00000  Uiso   1.00
C75    C     0.57590   0.15596   0.02588   0.00000  Uiso   1.00
C76    C     0.42741   0.19536   0.47579   0.00000  Uiso   1.00
C77    C     0.62908   0.02190   0.23959   0.00000  Uiso   1.00
C78    C     0.37088   0.31143   0.26047   0.00000  Uiso   1.00
C79    C     0.62891   0.31257   0.23981   0.00000  Uiso   1.00
C80    C     0.37107   0.02076   0.26023   0.00000  Uiso   1.00
C81    C     0.66655   0.29052   0.25014   0.00000  Uiso   1.00
C82    C     0.33344   0.04281   0.24990   0.00000  Uiso   1.00
C83    C     0.51642   0.14122   0.27951   0.00000  Uiso   1.00
C84    C     0.48354   0.19209   0.22047   0.00000  Uiso   1.00
C85    C     0.46657   0.14220   0.28072   0.00000  Uiso   1.00
C86    C     0.53339   0.19121   0.21932   0.00000  Uiso   1.00
C87    C     0.63942   0.16664   0.33601   0.00000  Uiso   1.00
C88    C     0.36061   0.16706   0.16399   0.00000  Uiso   1.00
C89    C     0.62411   0.16614   0.38535   0.00000  Uiso   1.00
C90    C     0.37623   0.17065   0.11467   0.00000  Uiso   1.00
C91    C     0.64018   0.15436   0.45756   0.00000  Uiso   1.00
C92    C     0.36216   0.19200   0.04352   0.00000  Uiso   1.00
C93    C     0.65648   0.15787   0.41094   0.00000  Uiso   1.00
C94    C     0.34490   0.18381   0.08960   0.00000  Uiso   1.00
C95    C     0.57566   0.17257   0.40699   0.00000  Uiso   1.00
C96    C     0.42463   0.16426   0.09290   0.00000  Uiso   1.00
C97    C     0.55841   0.17039   0.45411   0.00000  Uiso   1.00
C98    C     0.44339   0.17349   0.04660   0.00000  Uiso   1.00
C99    C     0.59154   0.16029   0.47929   0.00000  Uiso   1.00
C100   C     0.41095   0.18688   0.02185   0.00000  Uiso   1.00
C101   C     0.50913   0.17672   0.47674   0.00000  Uiso   1.00
C102   C     0.49322   0.16988   0.02431   0.00000  Uiso   1.00
Cu103  Cu    0.38022   0.16667   0.25000   0.00000  Uiso   1.00
Cu104  Cu    0.61978   0.16666   0.25000   0.00000  Uiso   1.00
H105   H     0.60100   0.14856   0.04547   0.00000  Uiso   1.00
H106   H     0.40294   0.20599   0.45667   0.00000  Uiso   1.00
H107   H     0.44686   0.15192   0.11308   0.00000  Uiso   1.00
H108   H     0.55185   0.17817   0.38611   0.00000  Uiso   1.00
H109   H     0.64075   0.18866   0.10564   0.00000  Uiso   1.00
H110   H     0.36074   0.15313   0.39500   0.00000  Uiso   1.00
H111   H     0.66558   0.14637   0.47660   0.00000  Uiso   1.00
H112   H     0.33744   0.20310   0.02492   0.00000  Uiso   1.00
H113   H     0.51929   0.15737   0.08413   0.00000  Uiso   1.00
H114   H     0.48485   0.19826   0.41809   0.00000  Uiso   1.00
H115   H     0.60001   0.03844   0.23094   0.00000  Uiso   1.00
H116   H     0.39995   0.29489   0.26915   0.00000  Uiso   1.00
H117   H     0.59960   0.29696   0.23153   0.00000  Uiso   1.00
H118   H     0.40038   0.03636   0.26851   0.00000  Uiso   1.00
N119   N     0.45069   0.16668   0.24999   0.00000  Uiso   1.00
N120   N     0.54931   0.16666   0.25001   0.00000  Uiso   1.00
O121   O     0.37291   0.10655   0.25000   0.00000  Uiso   1.00
O122   O     0.62709   0.22678   0.25000   0.00000  Uiso   1.00
O123   O     0.62706   0.10654   0.25000   0.00000  Uiso   1.00
O124   O     0.37294   0.22679   0.25000   0.00000  Uiso   1.00
O125   O     0.35186   0.16668   0.31492   0.00000  Uiso   1.00
O126   O     0.64814   0.16666   0.18508   0.00000  Uiso   1.00
O127   O     0.60600   0.16667   0.31492   0.00000  Uiso   1.00
O128   O     0.39400   0.16667   0.18508   0.00000  Uiso   1.00
C129   C     0.53302   0.10970   0.30775   0.00000  Uiso   1.00
H130   H     0.54267   0.11795   0.33763   0.00000  Uiso   1.00
O131   O     0.53280   0.07338   0.29921   0.00000  Uiso   1.00
C132   C     0.46683   0.22341   0.19210   0.00000  Uiso   1.00
H133   H     0.45790   0.21501   0.16191   0.00000  Uiso   1.00
O134   O     0.46630   0.25972   0.20081   0.00000  Uiso   1.00
C135   C     0.43178   0.11812   0.31735   0.00000  Uiso   1.00
H136   H     0.40050   0.10364   0.31228   0.00000  Uiso   1.00
O137   O     0.43762   0.11450   0.35498   0.00000  Uiso   1.00
C138   C     0.56810   0.21559   0.18286   0.00000  Uiso   1.00
H139   H     0.59987   0.22932   0.18771   0.00000  Uiso   1.00
O140   O     0.56166   0.22033   0.14554   0.00000  Uiso   1.00
C141   C     0.66670   0.08749   0.25000   0.00000  Uiso   1.00
C142   C     0.99997   0.24584   0.25001   0.00000  Uiso   1.00
C143   C     0.86113   0.16053   0.04806   0.00000  Uiso   1.00
C144   C     0.80871   0.19022   0.45353   0.00000  Uiso   1.00
C145   C     0.90923   0.15596   0.02588   0.00000  Uiso   1.00
C146   C     0.76075   0.19536   0.47579   0.00000  Uiso   1.00
C147   C     0.96242   0.02190   0.23959   0.00000  Uiso   1.00
C148   C     0.70422   0.31143   0.26047   0.00000  Uiso   1.00
C149   C     0.96224   0.31257   0.23981   0.00000  Uiso   1.00
C150   C     0.70440   0.02076   0.26023   0.00000  Uiso   1.00
C151   C     0.99988   0.29052   0.25014   0.00000  Uiso   1.00
C152   C     0.66677   0.04281   0.24990   0.00000  Uiso   1.00
C153   C     0.84975   0.14122   0.27951   0.00000  Uiso   1.00
C154   C     0.81687   0.19209   0.22047   0.00000  Uiso   1.00
C155   C     0.79990   0.14220   0.28072   0.00000  Uiso   1.00
C156   C     0.86673   0.19121   0.21932   0.00000  Uiso   1.00
C157   C     0.97275   0.16664   0.33601   0.00000  Uiso   1.00
C158   C     0.69395   0.16706   0.16399   0.00000  Uiso   1.00
C159   C     0.95745   0.16614   0.38535   0.00000  Uiso   1.00
C160   C     0.70956   0.17065   0.11467   0.00000  Uiso   1.00
C161   C     0.97352   0.15436   0.45756   0.00000  Uiso   1.00
C162   C     0.69549   0.19200   0.04352   0.00000  Uiso   1.00
C163   C     0.98981   0.15787   0.41094   0.00000  Uiso   1.00
C164   C     0.67824   0.18381   0.08960   0.00000  Uiso   1.00
C165   C     0.90899   0.17257   0.40699   0.00000  Uiso   1.00
C166   C     0.75797   0.16426   0.09290   0.00000  Uiso   1.00
C167   C     0.89174   0.17039   0.45411   0.00000  Uiso   1.00
C168   C     0.77673   0.17349   0.04660   0.00000  Uiso   1.00
C169   C     0.92487   0.16029   0.47929   0.00000  Uiso   1.00
C170   C     0.74428   0.18688   0.02185   0.00000  Uiso   1.00
C171   C     0.84246   0.17672   0.47674   0.00000  Uiso   1.00
C172   C     0.82656   0.16988   0.02431   0.00000  Uiso   1.00
Cu173  Cu    0.71355   0.16667   0.25000   0.00000  Uiso   1.00
Cu174  Cu    0.95311   0.16666   0.25000   0.00000  Uiso   1.00
H175   H     0.93433   0.14856   0.04547   0.00000  Uiso   1.00
H176   H     0.73627   0.20599   0.45667   0.00000  Uiso   1.00
H177   H     0.78019   0.15192   0.11308   0.00000  Uiso   1.00
H178   H     0.88518   0.17817   0.38611   0.00000  Uiso   1.00
H179   H     0.97408   0.18866   0.10564   0.00000  Uiso   1.00
H180   H     0.69407   0.15313   0.39500   0.00000  Uiso   1.00
H181   H     0.99892   0.14637   0.47660   0.00000  Uiso   1.00
H182   H     0.67077   0.20310   0.02492   0.00000  Uiso   1.00
H183   H     0.85262   0.15737   0.08413   0.00000  Uiso   1.00
H184   H     0.81818   0.19826   0.41809   0.00000  Uiso   1.00
H185   H     0.93334   0.03844   0.23094   0.00000  Uiso   1.00
H186   H     0.73328   0.29489   0.26915   0.00000  Uiso   1.00
H187   H     0.93293   0.29696   0.23153   0.00000  Uiso   1.00
H188   H     0.73371   0.03636   0.26851   0.00000  Uiso   1.00
N189   N     0.78403   0.16668   0.24999   0.00000  Uiso   1.00
N190   N     0.88264   0.16666   0.25001   0.00000  Uiso   1.00
O191   O     0.70625   0.10655   0.25000   0.00000  Uiso   1.00
O192   O     0.96042   0.22678   0.25000   0.00000  Uiso   1.00
O193   O     0.96039   0.10654   0.25000   0.00000  Uiso   1.00
O194   O     0.70628   0.22679   0.25000   0.00000  Uiso   1.00
O195   O     0.68519   0.16668   0.31492   0.00000  Uiso   1.00
O196   O     0.98148   0.16666   0.18508   0.00000  Uiso   1.00
O197   O     0.93933   0.16667   0.31492   0.00000  Uiso   1.00
O198   O     0.72733   0.16667   0.18508   0.00000  Uiso   1.00
C199   C     0.86635   0.10970   0.30775   0.00000  Uiso   1.00
H200   H     0.87600   0.11795   0.33763   0.00000  Uiso   1.00
O201   O     0.86613   0.07338   0.29921   0.00000  Uiso   1.00
C202   C     0.80016   0.22341   0.19210   0.00000  Uiso   1.00
H203   H     0.79123   0.21501   0.16191   0.00000  Uiso   1.00
O204   O     0.79963   0.25972   0.20081   0.00000  Uiso   1.00
C205   C     0.76511   0.11812   0.31735   0.00000  Uiso   1.00
H206   H     0.73384   0.10364   0.31228   0.00000  Uiso   1.00
O207   O     0.77095   0.11450   0.35498   0.00000  Uiso   1.00
C208   C     0.90144   0.21559   0.18286   0.00000  Uiso   1.00
H209   H     0.93320   0.22932   0.18771   0.00000  Uiso   1.00
O210   O     0.89500   0.22033   0.14554   0.00000  Uiso   1.00
C211   C     0.00003   0.42082   0.25000   0.00000  Uiso   1.00
C212   C     0.33330   0.57918   0.25001   0.00000  Uiso   1.00
C213   C     0.19447   0.49387   0.04806   0.00000  Uiso   1.00
C214   C     0.14205   0.52355   0.45353   0.00000  Uiso   1.00
C215   C     0.24256   0.48930   0.02588   0.00000  Uiso   1.00
C216   C     0.09408   0.52869   0.47579   0.00000  Uiso   1.00
C217   C     0.29575   0.35523   0.23959   0.00000  Uiso   1.00
C218   C     0.03755   0.64477   0.26047   0.00000  Uiso   1.00
C219   C     0.29557   0.64590   0.23981   0.00000  Uiso   1.00
C220   C     0.03774   0.35409   0.26023   0.00000  Uiso   1.00
C221   C     0.33321   0.62385   0.25014   0.00000  Uiso   1.00
C222   C     0.00010   0.37615   0.24990   0.00000  Uiso   1.00
C223   C     0.18309   0.47456   0.27951   0.00000  Uiso   1.00
C224   C     0.15021   0.52543   0.22047   0.00000  Uiso   1.00
C225   C     0.13324   0.47554   0.28072   0.00000  Uiso   1.00
C226   C     0.20006   0.52454   0.21932   0.00000  Uiso   1.00
C227   C     0.30608   0.49997   0.33601   0.00000  Uiso   1.00
C228   C     0.02728   0.50039   0.16399   0.00000  Uiso   1.00
C229   C     0.29078   0.49948   0.38535   0.00000  Uiso   1.00
C230   C     0.04290   0.50399   0.11467   0.00000  Uiso   1.00
C231   C     0.30685   0.48769   0.45756   0.00000  Uiso   1.00
C232   C     0.02882   0.52533   0.04352   0.00000  Uiso   1.00
C233   C     0.32314   0.49121   0.41094   0.00000  Uiso   1.00
C234   C     0.01157   0.51715   0.08960   0.00000  Uiso   1.00
C235   C     0.24232   0.50590   0.40699   0.00000  Uiso   1.00
C236   C     0.09130   0.49760   0.09290   0.00000  Uiso   1.00
C237   C     0.22508   0.50373   0.45411   0.00000  Uiso   1.00
C238   C     0.11006   0.50682   0.04660   0.00000  Uiso   1.00
C239   C     0.25821   0.49362   0.47929   0.00000  Uiso   1.00
C240   C     0.07761   0.52021   0.02185   0.00000  Uiso   1.00
C241   C     0.17580   0.51006   0.47674   0.00000  Uiso   1.00
C242   C     0.15989   0.50321   0.02431   0.00000  Uiso   1.00
Cu243  Cu    0.04689   0.50001   0.25000   0.00000  Uiso   1.00
Cu244  Cu    0.28645   0.49999   0.25000   0.00000  Uiso   1.00
H245   H     0.26766   0.48190   0.04547   0.00000  Uiso   1.00
H246   H     0.06960   0.53932   0.45667   0.00000  Uiso   1.00
H247   H     0.11352   0.48525   0.11308   0.00000  Uiso   1.00
H248   H     0.21851   0.51150   0.38611   0.00000  Uiso   1.00
H249   H     0.30741   0.52199   0.10564   0.00000  Uiso   1.00
H250   H     0.02741   0.48646   0.39500   0.00000  Uiso   1.00
H251   H     0.33225   0.47970   0.47660   0.00000  Uiso   1.00
H252   H     0.00410   0.53643   0.02492   0.00000  Uiso   1.00
H253   H     0.18595   0.49070   0.08413   0.00000  Uiso   1.00
H254   H     0.15151   0.53160   0.41809   0.00000  Uiso   1.00
H255   H     0.26667   0.37177   0.23094   0.00000  Uiso   1.00
H256   H     0.06662   0.62823   0.26915   0.00000  Uiso   1.00
H257   H     0.26627   0.63030   0.23153   0.00000  Uiso   1.00
H258   H     0.06705   0.36970   0.26851   0.00000  Uiso   1.00
N259   N     0.11736   0.50001   0.24999   0.00000  Uiso   1.00
N260   N     0.21597   0.49999   0.25001   0.00000  Uiso   1.00
O261   O     0.03958   0.43989   0.25000   0.00000  Uiso   1.00
O262   O     0.29375   0.56011   0.25000   0.00000  Uiso   1.00
O263   O     0.29372   0.43988   0.25000   0.00000  Uiso   1.00
O264   O     0.03961   0.56012   0.25000   0.00000  Uiso   1.00
O265   O     0.01852   0.50001   0.31492   0.00000  Uiso   1.00
O266   O     0.31481   0.49999   0.18508   0.00000  Uiso   1.00
O267   O     0.27267   0.50000   0.31492   0.00000  Uiso   1.00
O268   O     0.06067   0.50000   0.18508   0.00000  Uiso   1.00
C269   C     0.19968   0.44303   0.30775   0.00000  Uiso   1.00
H270   H     0.20933   0.45128   0.33763   0.00000  Uiso   1.00
O271   O     0.19947   0.40672   0.29921   0.00000  Uiso   1.00
C272   C     0.13350   0.55674   0.19210   0.00000  Uiso   1.00
H273   H     0.12456   0.54834   0.16191   0.00000  Uiso   1.00
O274   O     0.13297   0.59306   0.20081   0.00000  Uiso   1.00
C275   C     0.09845   0.45145   0.31735   0.00000  Uiso   1.00
H276   H     0.06717   0.43697   0.31228   0.00000  Uiso   1.00
O277   O     0.10429   0.44783   0.35498   0.00000  Uiso   1.00
C278   C     0.23477   0.54892   0.18286   0.00000  Uiso   1.00
H279   H     0.26653   0.56265   0.18771   0.00000  Uiso   1.00
O280   O     0.22833   0.55367   0.14554   0.00000  Uiso   1.00
C281   C     0.33336   0.42082   0.25000   0.00000  Uiso   1.00
C282   C     0.66663   0.57918   0.25001   0.00000  Uiso   1.00
C283   C     0.52780   0.49387   0.04806   0.00000  Uiso   1.00
C284   C     0.47538   0.52355   0.45353   0.00000  Uiso   1.00
C285   C     0.57590   0.48930   0.02588   0.00000  Uiso   1.00
C286   C     0.42741   0.52869   0.47579   0.00000  Uiso   1.00
C287   C     0.62908   0.35523   0.23959   0.00000  Uiso   1.00
C288   C     0.37088   0.64477   0.26047   0.00000  Uiso   1.00
C289   C     0.62891   0.64590   0.23981   0.00000  Uiso   1.00
C290   C     0.37107   0.35409   0.26023   0.00000  Uiso   1.00
C291   C     0.66655   0.62385   0.25014   0.00000  Uiso   1.00
C292   C     0.33344   0.37615   0.24990   0.00000  Uiso   1.00
C293   C     0.51642   0.47456   0.27951   0.00000  Uiso   1.00
C294   C     0.48354   0.52543   0.22047   0.00000  Uiso   1.00
C295   C     0.46657   0.47554   0.28072   0.00000  Uiso   1.00
C296   C     0.53339   0.52454   0.21932   0.00000  Uiso   1.00
C297   C     0.63942   0.49997   0.33601   0.00000  Uiso   1.00
C298   C     0.36061   0.50039   0.16399   0.00000  Uiso   1.00
C299   C     0.62411   0.49948   0.38535   0.00000  Uiso   1.00
C300   C     0.37623   0.50399   0.11467   0.00000  Uiso   1.00
C301   C     0.64018   0.48769   0.45756   0.00000  Uiso   1.00
C302   C     0.36216   0.52533   0.04352   0.00000  Uiso   1.00
C303   C     0.65648   0.49121   0.41094   0.00000  Uiso   1.00
C304   C     0.34490   0.51715   0.08960   0.00000  Uiso   1.00
C305   C     0.57566   0.50590   0.40699   0.00000  Uiso   1.00
C306   C     0.42463   0.49760   0.09290   0.00000  Uiso   1.00
C307   C     0.55841   0.50373   0.45411   0.00000  Uiso   1.00
C308   C     0.44339   0.50682   0.04660   0.00000  Uiso   1.00
C309   C     0.59154   0.49362   0.47929   0.00000  Uiso   1.00
C310   C     0.41095   0.52021   0.02185   0.00000  Uiso   1.00
C311   C     0.50913   0.51006   0.47674   0.00000  Uiso   1.00
C312   C     0.49322   0.50321   0.02431   0.00000  Uiso   1.00
Cu313  Cu    0.38022   0.50001   0.25000   0.00000  Uiso   1.00
Cu314  Cu    0.61978   0.49999   0.25000   0.00000  Uiso   1.00
H315   H     0.60100   0.48190   0.04547   0.00000  Uiso   1.00
H316   H     0.40294   0.53932   0.45667   0.00000  Uiso   1.00
H317   H     0.44686   0.48525   0.11308   0.00000  Uiso   1.00
H318   H     0.55185   0.51150   0.38611   0.00000  Uiso   1.00
H319   H     0.64075   0.52199   0.10564   0.00000  Uiso   1.00
H320   H     0.36074   0.48646   0.39500   0.00000  Uiso   1.00
H321   H     0.66558   0.47970   0.47660   0.00000  Uiso   1.00
H322   H     0.33744   0.53643   0.02492   0.00000  Uiso   1.00
H323   H     0.51929   0.49070   0.08413   0.00000  Uiso   1.00
H324   H     0.48485   0.53160   0.41809   0.00000  Uiso   1.00
H325   H     0.60001   0.37177   0.23094   0.00000  Uiso   1.00
H326   H     0.39995   0.62823   0.26915   0.00000  Uiso   1.00
H327   H     0.59960   0.63030   0.23153   0.00000  Uiso   1.00
H328   H     0.40038   0.36970   0.26851   0.00000  Uiso   1.00
N329   N     0.45069   0.50001   0.24999   0.00000  Uiso   1.00
N330   N     0.54931   0.49999   0.25001   0.00000  Uiso   1.00
O331   O     0.37291   0.43989   0.25000   0.00000  Uiso   1.00
O332   O     0.62709   0.56011   0.25000   0.00000  Uiso   1.00
O333   O     0.62706   0.43988   0.25000   0.00000  Uiso   1.00
O334   O     0.37294   0.56012   0.25000   0.00000  Uiso   1.00
O335   O     0.35186   0.50001   0.31492   0.00000  Uiso   1.00
O336   O     0.64814   0.49999   0.18508   0.00000  Uiso   1.00
O337   O     0.60600   0.50000   0.31492   0.00000  Uiso   1.00
O338   O     0.39400   0.50000   0.18508   0.00000  Uiso   1.00
C339   C     0.53302   0.44303   0.30775   0.00000  Uiso   1.00
H340   H     0.54267   0.45128   0.33763   0.00000  Uiso   1.00
O341   O     0.53280   0.40672   0.29921   0.00000  Uiso   1.00
C342   C     0.46683   0.55674   0.19210   0.00000  Uiso   1.00
H343   H     0.45790   0.54834   0.16191   0.00000  Uiso   1.00
O344   O     0.46630   0.59306   0.20081   0.00000  Uiso   1.00
C345   C     0.43178   0.45145   0.31735   0.00000  Uiso   1.00
H346   H     0.40050   0.43697   0.31228   0.00000  Uiso   1.00
O347   O     0.43762   0.44783   0.35498   0.00000  Uiso   1.00
C348   C     0.56810   0.54892   0.18286   0.00000  Uiso   1.00
H349   H     0.59987   0.56265   0.18771   0.00000  Uiso   1.00
O350   O     0.56166   0.55367   0.14554   0.00000  Uiso   1.00
C351   C     0.66670   0.42082   0.25000   0.00000  Uiso   1.00
C352   C     0.99997   0.57918   0.25001   0.00000  Uiso   1.00
C353   C     0.86113   0.49387   0.04806   0.00000  Uiso   1.00
C354   C     0.80871   0.52355   0.45353   0.00000  Uiso   1.00
C355   C     0.90923   0.48930   0.02588   0.00000  Uiso   1.00
C356   C     0.76075   0.52869   0.47579   0.00000  Uiso   1.00
C357   C     0.96242   0.35523   0.23959   0.00000  Uiso   1.00
C358   C     0.70422   0.64477   0.26047   0.00000  Uiso   1.00
C359   C     0.96224   0.64590   0.23981   0.00000  Uiso   1.00
C360   C     0.70440   0.35409   0.26023   0.00000  Uiso   1.00
C361   C     0.99988   0.62385   0.25014   0.00000  Uiso   1.00
C362   C     0.66677   0.37615   0.24990   0.00000  Uiso   1.00
C363   C     0.84975   0.47456   0.27951   0.00000  Uiso   1.00
C364   C     0.81687   0.52543   0.22047   0.00000  Uiso   1.00
C365   C     0.79990   0.47554   0.28072   0.00000  Uiso   1.00
C366   C     0.86673   0.52454   0.21932   0.00000  Uiso   1.00
C367   C     0.97275   0.49997   0.33601   0.00000  Uiso   1.00
C368   C     0.69395   0.50039   0.16399   0.00000  Uiso   1.00
C369   C     0.95745   0.49948   0.38535   0.00000  Uiso   1.00
C370   C     0.70956   0.50399   0.11467   0.00000  Uiso   1.00
C371   C     0.97352   0.48769   0.45756   0.00000  Uiso   1.00
C372   C     0.69549   0.52533   0.04352   0.00000  Uiso   1.00
C373   C     0.98981   0.49121   0.41094   0.00000  Uiso   1.00
C374   C     0.67824   0.51715   0.08960   0.00000  Uiso   1.00
C375   C     0.90899   0.50590   0.40699   0.00000  Uiso   1.00
C376   C     0.75797   0.49760   0.09290   0.00000  Uiso   1.00
C377   C     0.89174   0.50373   0.45411   0.00000  Uiso   1.00
C378   C     0.77673   0.50682   0.04660   0.00000  Uiso   1.00
C379   C     0.92487   0.49362   0.47929   0.00000  Uiso   1.00
C380   C     0.74428   0.52021   0.02185   0.00000  Uiso   1.00
C381   C     0.84246   0.51006   0.47674   0.00000  Uiso   1.00
C382   C     0.82656   0.50321   0.02431   0.00000  Uiso   1.00
Cu383  Cu    0.71355   0.50001   0.25000   0.00000  Uiso   1.00
Cu384  Cu    0.95311   0.49999   0.25000   0.00000  Uiso   1.00
H385   H     0.93433   0.48190   0.04547   0.00000  Uiso   1.00
H386   H     0.73627   0.53932   0.45667   0.00000  Uiso   1.00
H387   H     0.78019   0.48525   0.11308   0.00000  Uiso   1.00
H388   H     0.88518   0.51150   0.38611   0.00000  Uiso   1.00
H389   H     0.97408   0.52199   0.10564   0.00000  Uiso   1.00
H390   H     0.69407   0.48646   0.39500   0.00000  Uiso   1.00
H391   H     0.99892   0.47970   0.47660   0.00000  Uiso   1.00
H392   H     0.67077   0.53643   0.02492   0.00000  Uiso   1.00
H393   H     0.85262   0.49070   0.08413   0.00000  Uiso   1.00
H394   H     0.81818   0.53160   0.41809   0.00000  Uiso   1.00
H395   H     0.93334   0.37177   0.23094   0.00000  Uiso   1.00
H396   H     0.73328   0.62823   0.26915   0.00000  Uiso   1.00
H397   H     0.93293   0.63030   0.23153   0.00000  Uiso   1.00
H398   H     0.73371   0.36970   0.26851   0.00000  Uiso   1.00
N399   N     0.78403   0.50001   0.24999   0.00000  Uiso   1.00
N400   N     0.88264   0.49999   0.25001   0.00000  Uiso   1.00
O401   O     0.70625   0.43989   0.25000   0.00000  Uiso   1.00
O402   O     0.96042   0.56011   0.25000   0.00000  Uiso   1.00
O403   O     0.96039   0.43988   0.25000   0.00000  Uiso   1.00
O404   O     0.70628   0.56012   0.25000   0.00000  Uiso   1.00
O405   O     0.68519   0.50001   0.31492   0.00000  Uiso   1.00
O406   O     0.98148   0.49999   0.18508   0.00000  Uiso   1.00
O407   O     0.93933   0.50000   0.31492   0.00000  Uiso   1.00
O408   O     0.72733   0.50000   0.18508   0.00000  Uiso   1.00
C409   C     0.86635   0.44303   0.30775   0.00000  Uiso   1.00
H410   H     0.87600   0.45128   0.33763   0.00000  Uiso   1.00
O411   O     0.86613   0.40672   0.29921   0.00000  Uiso   1.00
C412   C     0.80016   0.55674   0.19210   0.00000  Uiso   1.00
H413   H     0.79123   0.54834   0.16191   0.00000  Uiso   1.00
O414   O     0.79963   0.59306   0.20081   0.00000  Uiso   1.00
C415   C     0.76511   0.45145   0.31735   0.00000  Uiso   1.00
H416   H     0.73384   0.43697   0.31228   0.00000  Uiso   1.00
O417   O     0.77095   0.44783   0.35498   0.00000  Uiso   1.00
C418   C     0.90144   0.54892   0.18286   0.00000  Uiso   1.00
H419   H     0.93320   0.56265   0.18771   0.00000  Uiso   1.00
O420   O     0.89500   0.55367   0.14554   0.00000  Uiso   1.00
C421   C     0.00003   0.75416   0.25000   0.00000  Uiso   1.00
C422   C     0.33330   0.91251   0.25001   0.00000  Uiso   1.00
C423   C     0.19447   0.82720   0.04806   0.00000  Uiso   1.00
C424   C     0.14205   0.85688   0.45353   0.00000  Uiso   1.00
C425   C     0.24256   0.82263   0.02588   0.00000  Uiso   1.00
C426   C     0.09408   0.86202   0.47579   0.00000  Uiso   1.00
C427   C     0.29575   0.68856   0.23959   0.00000  Uiso   1.00
C428   C     0.03755   0.97810   0.26047   0.00000  Uiso   1.00
C429   C     0.29557   0.97924   0.23981   0.00000  Uiso   1.00
C430   C     0.03774   0.68743   0.26023   0.00000  Uiso   1.00
C431   C     0.33321   0.95718   0.25014   0.00000  Uiso   1.00
C432   C     0.00010   0.70948   0.24990   0.00000  Uiso   1.00
C433   C     0.18309   0.80789   0.27951   0.00000  Uiso   1.00
C434   C     0.15021   0.85876   0.22047   0.00000  Uiso   1.00
C435   C     0.13324   0.80887   0.28072   0.00000  Uiso   1.00
C436   C     0.20006   0.85788   0.21932   0.00000  Uiso   1.00
C437   C     0.30608   0.83331   0.33601   0.00000  Uiso   1.00
C438   C     0.02728   0.83372   0.16399   0.00000  Uiso   1.00
C439   C     0.29078   0.83281   0.38535   0.00000  Uiso   1.00
C440   C     0.04290   0.83732   0.11467   0.00000  Uiso   1.00
C441   C     0.30685   0.82102   0.45756   0.00000  Uiso   1.00
C442   C     0.02882   0.85867   0.04352   0.00000  Uiso   1.00
C443   C     0.32314   0.82454   0.41094   0.00000  Uiso   1.00
C444   C     0.01157   0.85048   0.08960   0.00000  Uiso   1.00
C445   C     0.24232   0.83923   0.40699   0.00000  Uiso   1.00
C446   C     0.09130   0.83093   0.09290   0.00000  Uiso   1.00
C447   C     0.22508   0.83706   0.45411   0.00000  Uiso   1.00
C448   C     0.11006   0.84015   0.04660   0.00000  Uiso   1.00
C449   C     0.25821   0.82695   0.47929   0.00000  Uiso   1.00
C450   C     0.07761   0.85354   0.02185   0.00000  Uiso   1.00
C451   C     0.17580   0.84339   0.47674   0.00000  Uiso   1.00
C452   C     0.15989   0.83654   0.02431   0.00000  Uiso   1.00
Cu453  Cu    0.04689   0.83334   0.25000   0.00000  Uiso   1.00
Cu454  Cu    0.28645   0.83333   0.25000   0.00000  Uiso   1.00
H455   H     0.26766   0.81523   0.04547   0.00000  Uiso   1.00
H456   H     0.06960   0.87265   0.45667   0.00000  Uiso   1.00
H457   H     0.11352   0.81858   0.11308   0.00000  Uiso   1.00
H458   H     0.21851   0.84484   0.38611   0.00000  Uiso   1.00
H459   H     0.30741   0.85532   0.10564   0.00000  Uiso   1.00
H460   H     0.02741   0.81979   0.39500   0.00000  Uiso   1.00
H461   H     0.33225   0.81304   0.47660   0.00000  Uiso   1.00
H462   H     0.00410   0.86976   0.02492   0.00000  Uiso   1.00
H463   H     0.18595   0.82404   0.08413   0.00000  Uiso   1.00
H464   H     0.15151   0.86493   0.41809   0.00000  Uiso   1.00
H465   H     0.26667   0.70510   0.23094   0.00000  Uiso   1.00
H466   H     0.06662   0.96156   0.26915   0.00000  Uiso   1.00
H467   H     0.26627   0.96363   0.23153   0.00000  Uiso   1.00
H468   H     0.06705   0.70303   0.26851   0.00000  Uiso   1.00
N469   N     0.11736   0.83334   0.24999   0.00000  Uiso   1.00
N470   N     0.21597   0.83332   0.25001   0.00000  Uiso   1.00
O471   O     0.03958   0.77322   0.25000   0.00000  Uiso   1.00
O472   O     0.29375   0.89345   0.25000   0.00000  Uiso   1.00
O473   O     0.29372   0.77321   0.25000   0.00000  Uiso   1.00
O474   O     0.03961   0.89346   0.25000   0.00000  Uiso   1.00
O475   O     0.01852   0.83334   0.31492   0.00000  Uiso   1.00
O476   O     0.31481   0.83332   0.18508   0.00000  Uiso   1.00
O477   O     0.27267   0.83333   0.31492   0.00000  Uiso   1.00
O478   O     0.06067   0.83333   0.18508   0.00000  Uiso   1.00
C479   C     0.19968   0.77637   0.30775   0.00000  Uiso   1.00
H480   H     0.20933   0.78461   0.33763   0.00000  Uiso   1.00
O481   O     0.19947   0.74005   0.29921   0.00000  Uiso   1.00
C482   C     0.13350   0.89007   0.19210   0.00000  Uiso   1.00
H483   H     0.12456   0.88168   0.16191   0.00000  Uiso   1.00
O484   O     0.13297   0.92639   0.20081   0.00000  Uiso   1.00
C485   C     0.09845   0.78478   0.31735   0.00000  Uiso   1.00
H486   H     0.06717   0.77031   0.31228   0.00000  Uiso   1.00
O487   O     0.10429   0.78117   0.35498   0.00000  Uiso   1.00
C488   C     0.23477   0.88226   0.18286   0.00000  Uiso   1.00
H489   H     0.26653   0.89598   0.18771   0.00000  Uiso   1.00
O490   O     0.22833   0.88700   0.14554   0.00000  Uiso   1.00
C491   C     0.33336   0.75416   0.25000   0.00000  Uiso   1.00
C492   C     0.66663   0.91251   0.25001   0.00000  Uiso   1.00
C493   C     0.52780   0.82720   0.04806   0.00000  Uiso   1.00
C494   C     0.47538   0.85688   0.45353   0.00000  Uiso   1.00
C495   C     0.57590   0.82263   0.02588   0.00000  Uiso   1.00
C496   C     0.42741   0.86202   0.47579   0.00000  Uiso   1.00
C497   C     0.62908   0.68856   0.23959   0.00000  Uiso   1.00
C498   C     0.37088   0.97810   0.26047   0.00000  Uiso   1.00
C499   C     0.62891   0.97924   0.23981   0.00000  Uiso   1.00
C500   C     0.37107   0.68743   0.26023   0.00000  Uiso   1.00
C501   C     0.66655   0.95718   0.25014   0.00000  Uiso   1.00
C502   C     0.33344   0.70948   0.24990   0.00000  Uiso   1.00
C503   C     0.51642   0.80789   0.27951   0.00000  Uiso   1.00
C504   C     0.48354   0.85876   0.22047   0.00000  Uiso   1.00
C505   C     0.46657   0.80887   0.28072   0.00000  Uiso   1.00
C506   C     0.53339   0.85788   0.21932   0.00000  Uiso   1.00
C507   C     0.63942   0.83331   0.33601   0.00000  Uiso   1.00
C508   C     0.36061   0.83372   0.16399   0.00000  Uiso   1.00
C509   C     0.62411   0.83281   0.38535   0.00000  Uiso   1.00
C510   C     0.37623   0.83732   0.11467   0.00000  Uiso   1.00
C511   C     0.64018   0.82102   0.45756   0.00000  Uiso   1.00
C512   C     0.36216   0.85867   0.04352   0.00000  Uiso   1.00
C513   C     0.65648   0.82454   0.41094   0.00000  Uiso   1.00
C514   C     0.34490   0.85048   0.08960   0.00000  Uiso   1.00
C515   C     0.57566   0.83923   0.40699   0.00000  Uiso   1.00
C516   C     0.42463   0.83093   0.09290   0.00000  Uiso   1.00
C517   C     0.55841   0.83706   0.45411   0.00000  Uiso   1.00
C518   C     0.44339   0.84015   0.04660   0.00000  Uiso   1.00
C519   C     0.59154   0.82695   0.47929   0.00000  Uiso   1.00
C520   C     0.41095   0.85354   0.02185   0.00000  Uiso   1.00
C521   C     0.50913   0.84339   0.47674   0.00000  Uiso   1.00
C522   C     0.49322   0.83654   0.02431   0.00000  Uiso   1.00
Cu523  Cu    0.38022   0.83334   0.25000   0.00000  Uiso   1.00
Cu524  Cu    0.61978   0.83333   0.25000   0.00000  Uiso   1.00
H525   H     0.60100   0.81523   0.04547   0.00000  Uiso   1.00
H526   H     0.40294   0.87265   0.45667   0.00000  Uiso   1.00
H527   H     0.44686   0.81858   0.11308   0.00000  Uiso   1.00
H528   H     0.55185   0.84484   0.38611   0.00000  Uiso   1.00
H529   H     0.64075   0.85532   0.10564   0.00000  Uiso   1.00
H530   H     0.36074   0.81979   0.39500   0.00000  Uiso   1.00
H531   H     0.66558   0.81304   0.47660   0.00000  Uiso   1.00
H532   H     0.33744   0.86976   0.02492   0.00000  Uiso   1.00
H533   H     0.51929   0.82404   0.08413   0.00000  Uiso   1.00
H534   H     0.48485   0.86493   0.41809   0.00000  Uiso   1.00
H535   H     0.60001   0.70510   0.23094   0.00000  Uiso   1.00
H536   H     0.39995   0.96156   0.26915   0.00000  Uiso   1.00
H537   H     0.59960   0.96363   0.23153   0.00000  Uiso   1.00
H538   H     0.40038   0.70303   0.26851   0.00000  Uiso   1.00
N539   N     0.45069   0.83334   0.24999   0.00000  Uiso   1.00
N540   N     0.54931   0.83332   0.25001   0.00000  Uiso   1.00
O541   O     0.37291   0.77322   0.25000   0.00000  Uiso   1.00
O542   O     0.62709   0.89345   0.25000   0.00000  Uiso   1.00
O543   O     0.62706   0.77321   0.25000   0.00000  Uiso   1.00
O544   O     0.37294   0.89346   0.25000   0.00000  Uiso   1.00
O545   O     0.35186   0.83334   0.31492   0.00000  Uiso   1.00
O546   O     0.64814   0.83332   0.18508   0.00000  Uiso   1.00
O547   O     0.60600   0.83333   0.31492   0.00000  Uiso   1.00
O548   O     0.39400   0.83333   0.18508   0.00000  Uiso   1.00
C549   C     0.53302   0.77637   0.30775   0.00000  Uiso   1.00
H550   H     0.54267   0.78461   0.33763   0.00000  Uiso   1.00
O551   O     0.53280   0.74005   0.29921   0.00000  Uiso   1.00
C552   C     0.46683   0.89007   0.19210   0.00000  Uiso   1.00
H553   H     0.45790   0.88168   0.16191   0.00000  Uiso   1.00
O554   O     0.46630   0.92639   0.20081   0.00000  Uiso   1.00
C555   C     0.43178   0.78478   0.31735   0.00000  Uiso   1.00
H556   H     0.40050   0.77031   0.31228   0.00000  Uiso   1.00
O557   O     0.43762   0.78117   0.35498   0.00000  Uiso   1.00
C558   C     0.56810   0.88226   0.18286   0.00000  Uiso   1.00
H559   H     0.59987   0.89598   0.18771   0.00000  Uiso   1.00
O560   O     0.56166   0.88700   0.14554   0.00000  Uiso   1.00
C561   C     0.66670   0.75416   0.25000   0.00000  Uiso   1.00
C562   C     0.99997   0.91251   0.25001   0.00000  Uiso   1.00
C563   C     0.86113   0.82720   0.04806   0.00000  Uiso   1.00
C564   C     0.80871   0.85688   0.45353   0.00000  Uiso   1.00
C565   C     0.90923   0.82263   0.02588   0.00000  Uiso   1.00
C566   C     0.76075   0.86202   0.47579   0.00000  Uiso   1.00
C567   C     0.96242   0.68856   0.23959   0.00000  Uiso   1.00
C568   C     0.70422   0.97810   0.26047   0.00000  Uiso   1.00
C569   C     0.96224   0.97924   0.23981   0.00000  Uiso   1.00
C570   C     0.70440   0.68743   0.26023   0.00000  Uiso   1.00
C571   C     0.99988   0.95718   0.25014   0.00000  Uiso   1.00
C572   C     0.66677   0.70948   0.24990   0.00000  Uiso   1.00
C573   C     0.84975   0.80789   0.27951   0.00000  Uiso   1.00
C574   C     0.81687   0.85876   0.22047   0.00000  Uiso   1.00
C575   C     0.79990   0.80887   0.28072   0.00000  Uiso   1.00
C576   C     0.86673   0.85788   0.21932   0.00000  Uiso   1.00
C577   C     0.97275   0.83331   0.33601   0.00000  Uiso   1.00
C578   C     0.69395   0.83372   0.16399   0.00000  Uiso   1.00
C579   C     0.95745   0.83281   0.38535   0.00000  Uiso   1.00
C580   C     0.70956   0.83732   0.11467   0.00000  Uiso   1.00
C581   C     0.97352   0.82102   0.45756   0.00000  Uiso   1.00
C582   C     0.69549   0.85867   0.04352   0.00000  Uiso   1.00
C583   C     0.98981   0.82454   0.41094   0.00000  Uiso   1.00
C584   C     0.67824   0.85048   0.08960   0.00000  Uiso   1.00
C585   C     0.90899   0.83923   0.40699   0.00000  Uiso   1.00
C586   C     0.75797   0.83093   0.09290   0.00000  Uiso   1.00
C587   C     0.89174   0.83706   0.45411   0.00000  Uiso   1.00
C588   C     0.77673   0.84015   0.04660   0.00000  Uiso   1.00
C589   C     0.92487   0.82695   0.47929   0.00000  Uiso   1.00
C590   C     0.74428   0.85354   0.02185   0.00000  Uiso   1.00
C591   C     0.84246   0.84339   0.47674   0.00000  Uiso   1.00
C592   C     0.82656   0.83654   0.02431   0.00000  Uiso   1.00
Cu593  Cu    0.71355   0.83334   0.25000   0.00000  Uiso   1.00
Cu594  Cu    0.95311   0.83333   0.25000   0.00000  Uiso   1.00
H595   H     0.93433   0.81523   0.04547   0.00000  Uiso   1.00
H596   H     0.73627   0.87265   0.45667   0.00000  Uiso   1.00
H597   H     0.78019   0.81858   0.11308   0.00000  Uiso   1.00
H598   H     0.88518   0.84484   0.38611   0.00000  Uiso   1.00
H599   H     0.97408   0.85532   0.10564   0.00000  Uiso   1.00
H600   H     0.69407   0.81979   0.39500   0.00000  Uiso   1.00
H601   H     0.99892   0.81304   0.47660   0.00000  Uiso   1.00
H602   H     0.67077   0.86976   0.02492   0.00000  Uiso   1.00
H603   H     0.85262   0.82404   0.08413   0.00000  Uiso   1.00
H604   H     0.81818   0.86493   0.41809   0.00000  Uiso   1.00
H605   H     0.93334   0.70510   0.23094   0.00000  Uiso   1.00
H606   H     0.73328   0.96156   0.26915   0.00000  Uiso   1.00
H607   H     0.93293   0.96363   0.23153   0.00000  Uiso   1.00
H608   H     0.73371   0.70303   0.26851   0.00000  Uiso   1.00
N609   N     0.78403   0.83334   0.24999   0.00000  Uiso   1.00
N610   N     0.88264   0.83332   0.25001   0.00000  Uiso   1.00
O611   O     0.70625   0.77322   0.25000   0.00000  Uiso   1.00
O612   O     0.96042   0.89345   0.25000   0.00000  Uiso   1.00
O613   O     0.96039   0.77321   0.25000   0.00000  Uiso   1.00
O614   O     0.70628   0.89346   0.25000   0.00000  Uiso   1.00
O615   O     0.68519   0.83334   0.31492   0.00000  Uiso   1.00
O616   O     0.98148   0.83332   0.18508   0.00000  Uiso   1.00
O617   O     0.93933   0.83333   0.31492   0.00000  Uiso   1.00
O618   O     0.72733   0.83333   0.18508   0.00000  Uiso   1.00
C619   C     0.86635   0.77637   0.30775   0.00000  Uiso   1.00
H620   H     0.87600   0.78461   0.33763   0.00000  Uiso   1.00
O621   O     0.86613   0.74005   0.29921   0.00000  Uiso   1.00
C622   C     0.80016   0.89007   0.19210   0.00000  Uiso   1.00
H623   H     0.79123   0.88168   0.16191   0.00000  Uiso   1.00
O624   O     0.79963   0.92639   0.20081   0.00000  Uiso   1.00
C625   C     0.76511   0.78478   0.31735   0.00000  Uiso   1.00
H626   H     0.73384   0.77031   0.31228   0.00000  Uiso   1.00
O627   O     0.77095   0.78117   0.35498   0.00000  Uiso   1.00
C628   C     0.90144   0.88226   0.18286   0.00000  Uiso   1.00
H629   H     0.93320   0.89598   0.18771   0.00000  Uiso   1.00
O630   O     0.89500   0.88700   0.14554   0.00000  Uiso   1.00
C631   C     0.00003   0.08749   0.75000   0.00000  Uiso   1.00
C632   C     0.33330   0.24584   0.75001   0.00000  Uiso   1.00
C633   C     0.19447   0.16053   0.54806   0.00000  Uiso   1.00
C634   C     0.14205   0.19022   0.95353   0.00000  Uiso   1.00
C635   C     0.24256   0.15596   0.52588   0.00000  Uiso   1.00
C636   C     0.09408   0.19536   0.97579   0.00000  Uiso   1.00
C637   C     0.29575   0.02190   0.73959   0.00000  Uiso   1.00
C638   C     0.03755   0.31143   0.76047   0.00000  Uiso   1.00
C639   C     0.29557   0.31257   0.73981   0.00000  Uiso   1.00
C640   C     0.03774   0.02076   0.76023   0.00000  Uiso   1.00
C641   C     0.33321   0.29052   0.75014   0.00000  Uiso   1.00
C642   C     0.00010   0.04281   0.74990   0.00000  Uiso   1.00
C643   C     0.18309   0.14122   0.77951   0.00000  Uiso   1.00
C644   C     0.15021   0.19209   0.72047   0.00000  Uiso   1.00
C645   C     0.13324   0.14220   0.78072   0.00000  Uiso   1.00
C646   C     0.20006   0.19121   0.71932   0.00000  Uiso   1.00
C647   C     0.30608   0.16664   0.83601   0.00000  Uiso   1.00
C648   C     0.02728   0.16706   0.66399   0.00000  Uiso   1.00
C649   C     0.29078   0.16614   0.88535   0.00000  Uiso   1.00
C650   C     0.04290   0.17065   0.61467   0.00000  Uiso   1.00
C651   C     0.30685   0.15436   0.95756   0.00000  Uiso   1.00
C652   C     0.02882   0.19200   0.54352   0.00000  Uiso   1.00
C653   C     0.32314   0.15787   0.91094   0.00000  Uiso   1.00
C654   C     0.01157   0.18381   0.58960   0.00000  Uiso   1.00
C655   C     0.24232   0.17257   0.90699   0.00000  Uiso   1.00
C656   C     0.09130   0.16426   0.59290   0.00000  Uiso   1.00
C657   C     0.22508   0.17039   0.95411   0.00000  Uiso   1.00
C658   C     0.11006   0.17349   0.54660   0.00000  Uiso   1.00
C659   C     0.25821   0.16029   0.97929   0.00000  Uiso   1.00
C660   C     0.07761   0.18688   0.52185   0.00000  Uiso   1.00
C661   C     0.17580   0.17672   0.97674   0.00000  Uiso   1.00
C662   C     0.15989   0.16988   0.52431   0.00000  Uiso   1.00
Cu663  Cu    0.04689   0.16667   0.75000   0.00000  Uiso   1.00
Cu664  Cu    0.28645   0.16666   0.75000   0.00000  Uiso   1.00
H665   H     0.26766   0.14856   0.54547   0.00000  Uiso   1.00
H666   H     0.06960   0.20599   0.95667   0.00000  Uiso   1.00
H667   H     0.11352   0.15192   0.61308   0.00000  Uiso   1.00
H668   H     0.21851   0.17817   0.88611   0.00000  Uiso   1.00
H669   H     0.30741   0.18866   0.60564   0.00000  Uiso   1.00
H670   H     0.02741   0.15313   0.89500   0.00000  Uiso   1.00
H671   H     0.33225   0.14637   0.97660   0.00000  Uiso   1.00
H672   H     0.00410   0.20310   0.52492   0.00000  Uiso   1.00
H673   H     0.18595   0.15737   0.58413   0.00000  Uiso   1.00
H674   H     0.15151   0.19826   0.91809   0.00000  Uiso   1.00
H675   H     0.26667   0.03844   0.73094   0.00000  Uiso   1.00
H676   H     0.06662   0.29489   0.76915   0.00000  Uiso   1.00
H677   H     0.26627   0.29696   0.73153   0.00000  Uiso   1.00
H678   H     0.06705   0.03636   0.76851   0.00000  Uiso   1.00
N679   N     0.11736   0.16668   0.74999   0.00000  Uiso   1.00
N680   N     0.21597   0.16666   0.75001   0.00000  Uiso   1.00
O681   O     0.03958   0.10655   0.75000   0.00000  Uiso   1.00
O682   O     0.29375   0.22678   0.75000   0.00000  Uiso   1.00
O683   O     0.29372   0.10654   0.75000   0.00000  Uiso   1.00
O684   O     0.03961   0.22679   0.75000   0.00000  Uiso   1.00
O685   O     0.01852   0.16668   0.81492   0.00000  Uiso   1.00
O686   O     0.31481   0.16666   0.68508   0.00000  Uiso   1.00
O687   O     0.27267   0.16667   0.81492   0.00000  Uiso   1.00
O688   O     0.06067   0.16667   0.68508   0.00000  Uiso   1.00
C689   C     0.19968   0.10970   0.80775   0.00000  Uiso   1.00
H690   H     0.20933   0.11795   0.83763   0.00000  Uiso   1.00
O691   O     0.19947   0.07338   0.79921   0.00000  Uiso   1.00
C692   C     0.13350   0.22341   0.69210   0.00000  Uiso   1.00
H693   H     0.12456   0.21501   0.66191   0.00000  Uiso   1.00
O694   O     0.13297   0.25972   0.70081   0.00000  Uiso   1.00
C695   C     0.09845   0.11812   0.81735   0.00000  Uiso   1.00
H696   H     0.06717   0.10364   0.81228   0.00000  Uiso   1.00
O697   O     0.10429   0.11450   0.85498   0.00000  Uiso   1.00
C698   C     0.23477   0.21559   0.68286   0.00000  Uiso   1.00
H699   H     0.26653   0.22932   0.68771   0.00000  Uiso   1.00
O700   O     0.22833   0.22033   0.64554   0.00000  Uiso   1.00
C701   C     0.33336   0.08749   0.75000   0.00000  Uiso   1.00
C702   C     0.66663   0.24584   0.75001   0.00000  Uiso   1.00
C703   C     0.52780   0.16053   0.54806   0.00000  Uiso   1.00
C704   C     0.47538   0.19022   0.95353   0.00000  Uiso   1.00
C705   C     0.57590   0.15596   0.52588   0.00000  Uiso   1.00
C706   C     0.42741   0.19536   0.97579   0.00000  Uiso   1.00
C707   C     0.62908   0.02190   0.73959   0.00000  Uiso   1.00
C708   C     0.37088   0.31143   0.76047   0.00000  Uiso   1.00
C709   C     0.62891   0.31257   0.73981   0.00000  Uiso   1.00
C710   C     0.37107   0.02076   0.76023   0.00000  Uiso   1.00
C711   C     0.66655   0.29052   0.75014   0.00000  Uiso   1.00
C712   C     0.33344   0.04281   0.74990   0.00000  Uiso   1.00
C713   C     0.51642   0.14122   0.77951   0.00000  Uiso   1.00
C714   C     0.48354   0.19209   0.72047   0.00000  Uiso   1.00
C715   C     0.46657   0.14220   0.78072   0.00000  Uiso   1.00
C716   C     0.53339   0.19121   0.71932   0.00000  Uiso   1.00
C717   C     0.63942   0.16664   0.83601   0.00000  Uiso   1.00
C718   C     0.36061   0.16706   0.66399   0.00000  Uiso   1.00
C719   C     0.62411   0.16614   0.88535   0.00000  Uiso   1.00
C720   C     0.37623   0.17065   0.61467   0.00000  Uiso   1.00
C721   C     0.64018   0.15436   0.95756   0.00000  Uiso   1.00
C722   C     0.36216   0.19200   0.54352   0.00000  Uiso   1.00
C723   C     0.65648   0.15787   0.91094   0.00000  Uiso   1.00
C724   C     0.34490   0.18381   0.58960   0.00000  Uiso   1.00
C725   C     0.57566   0.17257   0.90699   0.00000  Uiso   1.00
C726   C     0.42463   0.16426   0.59290   0.00000  Uiso   1.00
C727   C     0.55841   0.17039   0.95411   0.00000  Uiso   1.00
C728   C     0.44339   0.17349   0.54660   0.00000  Uiso   1.00
C729   C     0.59154   0.16029   0.97929   0.00000  Uiso   1.00
C730   C     0.41095   0.18688   0.52185   0.00000  Uiso   1.00
C731   C     0.50913   0.17672   0.97674   0.00000  Uiso   1.00
C732   C     0.49322   0.16988   0.52431   0.00000  Uiso   1.00
Cu733  Cu    0.38022   0.16667   0.75000   0.00000  Uiso   1.00
Cu734  Cu    0.61978   0.16666   0.75000   0.00000  Uiso   1.00
H735   H     0.60100   0.14856   0.54547   0.00000  Uiso   1.00
H736   H     0.40294   0.20599   0.95667   0.00000  Uiso   1.00
H737   H     0.44686   0.15192   0.61308   0.00000  Uiso   1.00
H738   H     0.55185   0.17817   0.88611   0.00000  Uiso   1.00
H739   H     0.64075   0.18866   0.60564   0.00000  Uiso   1.00
H740   H     0.36074   0.15313   0.89500   0.00000  Uiso   1.00
H741   H     0.66558   0.14637   0.97660   0.00000  Uiso   1.00
H742   H     0.33744   0.20310   0.52492   0.00000  Uiso   1.00
H743   H     0.51929   0.15737   0.58413   0.00000  Uiso   1.00
H744   H     0.48485   0.19826   0.91809   0.00000  Uiso   1.00
H745   H     0.60001   0.03844   0.73094   0.00000  Uiso   1.00
H746   H     0.39995   0.29489   0.76915   0.00000  Uiso   1.00
H747   H     0.59960   0.29696   0.73153   0.00000  Uiso   1.00
H748   H     0.40038   0.03636   0.76851   0.00000  Uiso   1.00
N749   N     0.45069   0.16668   0.74999   0.00000  Uiso   1.00
N750   N     0.54931   0.16666   0.75001   0.00000  Uiso   1.00
O751   O     0.37291   0.10655   0.75000   0.00000  Uiso   1.00
O752   O     0.62709   0.22678   0.75000   0.00000  Uiso   1.00
O753   O     0.62706   0.10654   0.75000   0.00000  Uiso   1.00
O754   O     0.37294   0.22679   0.75000   0.00000  Uiso   1.00
O755   O     0.35186   0.16668   0.81492   0.00000  Uiso   1.00
O756   O     0.64814   0.16666   0.68508   0.00000  Uiso   1.00
O757   O     0.60600   0.16667   0.81492   0.00000  Uiso   1.00
O758   O     0.39400   0.16667   0.68508   0.00000  Uiso   1.00
C759   C     0.53302   0.10970   0.80775   0.00000  Uiso   1.00
H760   H     0.54267   0.11795   0.83763   0.00000  Uiso   1.00
O761   O     0.53280   0.07338   0.79921   0.00000  Uiso   1.00
C762   C     0.46683   0.22341   0.69210   0.00000  Uiso   1.00
H763   H     0.45790   0.21501   0.66191   0.00000  Uiso   1.00
O764   O     0.46630   0.25972   0.70081   0.00000  Uiso   1.00
C765   C     0.43178   0.11812   0.81735   0.00000  Uiso   1.00
H766   H     0.40050   0.10364   0.81228   0.00000  Uiso   1.00
O767   O     0.43762   0.11450   0.85498   0.00000  Uiso   1.00
C768   C     0.56810   0.21559   0.68286   0.00000  Uiso   1.00
H769   H     0.59987   0.22932   0.68771   0.00000  Uiso   1.00
O770   O     0.56166   0.22033   0.64554   0.00000  Uiso   1.00
C771   C     0.66670   0.08749   0.75000   0.00000  Uiso   1.00
C772   C     0.99997   0.24584   0.75001   0.00000  Uiso   1.00
C773   C     0.86113   0.16053   0.54806   0.00000  Uiso   1.00
C774   C     0.80871   0.19022   0.95353   0.00000  Uiso   1.00
C775   C     0.90923   0.15596   0.52588   0.00000  Uiso   1.00
C776   C     0.76075   0.19536   0.97579   0.00000  Uiso   1.00
C777   C     0.96242   0.02190   0.73959   0.00000  Uiso   1.00
C778   C     0.70422   0.31143   0.76047   0.00000  Uiso   1.00
C779   C     0.96224   0.31257   0.73981   0.00000  Uiso   1.00
C780   C     0.70440   0.02076   0.76023   0.00000  Uiso   1.00
C781   C     0.99988   0.29052   0.75014   0.00000  Uiso   1.00
C782   C     0.66677   0.04281   0.74990   0.00000  Uiso   1.00
C783   C     0.84975   0.14122   0.77951   0.00000  Uiso   1.00
C784   C     0.81687   0.19209   0.72047   0.00000  Uiso   1.00
C785   C     0.79990   0.14220   0.78072   0.00000  Uiso   1.00
C786   C     0.86673   0.19121   0.71932   0.00000  Uiso   1.00
C787   C     0.97275   0.16664   0.83601   0.00000  Uiso   1.00
C788   C     0.69395   0.16706   0.66399   0.00000  Uiso   1.00
C789   C     0.95745   0.16614   0.88535   0.00000  Uiso   1.00
C790   C     0.70956   0.17065   0.61467   0.00000  Uiso   1.00
C791   C     0.97352   0.15436   0.95756   0.00000  Uiso   1.00
C792   C     0.69549   0.19200   0.54352   0.00000  Uiso   1.00
C793   C     0.98981   0.15787   0.91094   0.00000  Uiso   1.00
C794   C     0.67824   0.18381   0.58960   0.00000  Uiso   1.00
C795   C     0.90899   0.17257   0.90699   0.00000  Uiso   1.00
C796   C     0.75797   0.16426   0.59290   0.00000  Uiso   1.00
C797   C     0.89174   0.17039   0.95411   0.00000  Uiso   1.00
C798   C     0.77673   0.17349   0.54660   0.00000  Uiso   1.00
C799   C     0.92487   0.16029   0.97929   0.00000  Uiso   1.00
C800   C     0.74428   0.18688   0.52185   0.00000  Uiso   1.00
C801   C     0.84246   0.17672   0.97674   0.00000  Uiso   1.00
C802   C     0.82656   0.16988   0.52431   0.00000  Uiso   1.00
Cu803  Cu    0.71355   0.16667   0.75000   0.00000  Uiso   1.00
Cu804  Cu    0.95311   0.16666   0.75000   0.00000  Uiso   1.00
H805   H     0.93433   0.14856   0.54547   0.00000  Uiso   1.00
H806   H     0.73627   0.20599   0.95667   0.00000  Uiso   1.00
H807   H     0.78019   0.15192   0.61308   0.00000  Uiso   1.00
H808   H     0.88518   0.17817   0.88611   0.00000  Uiso   1.00
H809   H     0.97408   0.18866   0.60564   0.00000  Uiso   1.00
H810   H     0.69407   0.15313   0.89500   0.00000  Uiso   1.00
H811   H     0.99892   0.14637   0.97660   0.00000  Uiso   1.00
H812   H     0.67077   0.20310   0.52492   0.00000  Uiso   1.00
H813   H     0.85262   0.15737   0.58413   0.00000  Uiso   1.00
H814   H     0.81818   0.19826   0.91809   0.00000  Uiso   1.00
H815   H     0.93334   0.03844   0.73094   0.00000  Uiso   1.00
H816   H     0.73328   0.29489   0.76915   0.00000  Uiso   1.00
H817   H     0.93293   0.29696   0.73153   0.00000  Uiso   1.00
H818   H     0.73371   0.03636   0.76851   0.00000  Uiso   1.00
N819   N     0.78403   0.16668   0.74999   0.00000  Uiso   1.00
N820   N     0.88264   0.16666   0.75001   0.00000  Uiso   1.00
O821   O     0.70625   0.10655   0.75000   0.00000  Uiso   1.00
O822   O     0.96042   0.22678   0.75000   0.00000  Uiso   1.00
O823   O     0.96039   0.10654   0.75000   0.00000  Uiso   1.00
O824   O     0.70628   0.22679   0.75000   0.00000  Uiso   1.00
O825   O     0.68519   0.16668   0.81492   0.00000  Uiso   1.00
O826   O     0.98148   0.16666   0.68508   0.00000  Uiso   1.00
O827   O     0.93933   0.16667   0.81492   0.00000  Uiso   1.00
O828   O     0.72733   0.16667   0.68508   0.00000  Uiso   1.00
C829   C     0.86635   0.10970   0.80775   0.00000  Uiso   1.00
H830   H     0.87600   0.11795   0.83763   0.00000  Uiso   1.00
O831   O     0.86613   0.07338   0.79921   0.00000  Uiso   1.00
C832   C     0.80016   0.22341   0.69210   0.00000  Uiso   1.00
H833   H     0.79123   0.21501   0.66191   0.00000  Uiso   1.00
O834   O     0.79963   0.25972   0.70081   0.00000  Uiso   1.00
C835   C     0.76511   0.11812   0.81735   0.00000  Uiso   1.00
H836   H     0.73384   0.10364   0.81228   0.00000  Uiso   1.00
O837   O     0.77095   0.11450   0.85498   0.00000  Uiso   1.00
C838   C     0.90144   0.21559   0.68286   0.00000  Uiso   1.00
H839   H     0.93320   0.22932   0.68771   0.00000  Uiso   1.00
O840   O     0.89500   0.22033   0.64554   0.00000  Uiso   1.00
C841   C     0.00003   0.42082   0.75000   0.00000  Uiso   1.00
C842   C     0.33330   0.57918   0.75001   0.00000  Uiso   1.00
C843   C     0.19447   0.49387   0.54806   0.00000  Uiso   1.00
C844   C     0.14205   0.52355   0.95353   0.00000  Uiso   1.00
C845   C     0.24256   0.48930   0.52588   0.00000  Uiso   1.00
C846   C     0.09408   0.52869   0.97579   0.00000  Uiso   1.00
C847   C     0.29575   0.35523   0.73959   0.00000  Uiso   1.00
C848   C     0.03755   0.64477   0.76047   0.00000  Uiso   1.00
C849   C     0.29557   0.64590   0.73981   0.00000  Uiso   1.00
C850   C     0.03774   0.35409   0.76023   0.00000  Uiso   1.00
C851   C     0.33321   0.62385   0.75014   0.00000  Uiso   1.00
C852   C     0.00010   0.37615   0.74990   0.00000  Uiso   1.00
C853   C     0.18309   0.47456   0.77951   0.00000  Uiso   1.00
C854   C     0.15021   0.52543   0.72047   0.00000  Uiso   1.00
C855   C     0.13324   0.47554   0.78072   0.00000  Uiso   1.00
C856   C     0.20006   0.52454   0.71932   0.00000  Uiso   1.00
C857   C     0.30608   0.49997   0.83601   0.00000  Uiso   1.00
C858   C     0.02728   0.50039   0.66399   0.00000  Uiso   1.00
C859   C     0.29078   0.49948   0.88535   0.00000  Uiso   1.00
C860   C     0.04290   0.50399   0.61467   0.00000  Uiso   1.00
C861   C     0.30685   0.48769   0.95756   0.00000  Uiso   1.00
C862   C     0.02882   0.52533   0.54352   0.00000  Uiso   1.00
C863   C     0.32314   0.49121   0.91094   0.00000  Uiso   1.00
C864   C     0.01157   0.51715   0.58960   0.00000  Uiso   1.00
C865   C     0.24232   0.50590   0.90699   0.00000  Uiso   1.00
C866   C     0.09130   0.49760   0.59290   0.00000  Uiso   1.00
C867   C     0.22508   0.50373   0.95411   0.00000  Uiso   1.00
C868   C     0.11006   0.50682   0.54660   0.00000  Uiso   1.00
C869   C     0.25821   0.49362   0.97929   0.00000  Uiso   1.00
C870   C     0.07761   0.52021   0.52185   0.00000  Uiso   1.00
C871   C     0.17580   0.51006   0.97674   0.00000  Uiso   1.00
C872   C     0.15989   0.50321   0.52431   0.00000  Uiso   1.00
Cu873  Cu    0.04689   0.50001   0.75000   0.00000  Uiso   1.00
Cu874  Cu    0.28645   0.49999   0.75000   0.00000  Uiso   1.00
H875   H     0.26766   0.48190   0.54547   0.00000  Uiso   1.00
H876   H     0.06960   0.53932   0.95667   0.00000  Uiso   1.00
H877   H     0.11352   0.48525   0.61308   0.00000  Uiso   1.00
H878   H     0.21851   0.51150   0.88611   0.00000  Uiso   1.00
H879   H     0.30741   0.52199   0.60564   0.00000  Uiso   1.00
H880   H     0.02741   0.48646   0.89500   0.00000  Uiso   1.00
H881   H     0.33225   0.47970   0.97660   0.00000  Uiso   1.00
H882   H     0.00410   0.53643   0.52492   0.00000  Uiso   1.00
H883   H     0.18595   0.49070   0.58413   0.00000  Uiso   1.00
H884   H     0.15151   0.53160   0.91809   0.00000  Uiso   1.00
H885   H     0.26667   0.37177   0.73094   0.00000  Uiso   1.00
H886   H     0.06662   0.62823   0.76915   0.00000  Uiso   1.00
H887   H     0.26627   0.63030   0.73153   0.00000  Uiso   1.00
H888   H     0.06705   0.36970   0.76851   0.00000  Uiso   1.00
N889   N     0.11736   0.50001   0.74999   0.00000  Uiso   1.00
N890   N     0.21597   0.49999   0.75001   0.00000  Uiso   1.00
O891   O     0.03958   0.43989   0.75000   0.00000  Uiso   1.00
O892   O     0.29375   0.56011   0.75000   0.00000  Uiso   1.00
O893   O     0.29372   0.43988   0.75000   0.00000  Uiso   1.00
O894   O     0.03961   0.56012   0.75000   0.00000  Uiso   1.00
O895   O     0.01852   0.50001   0.81492   0.00000  Uiso   1.00
O896   O     0.31481   0.49999   0.68508   0.00000  Uiso   1.00
O897   O     0.27267   0.50000   0.81492   0.00000  Uiso   1.00
O898   O     0.06067   0.50000   0.68508   0.00000  Uiso   1.00
C899   C     0.19968   0.44303   0.80775   0.00000  Uiso   1.00
H900   H     0.20933   0.45128   0.83763   0.00000  Uiso   1.00
O901   O     0.19947   0.40672   0.79921   0.00000  Uiso   1.00
C902   C     0.13350   0.55674   0.69210   0.00000  Uiso   1.00
H903   H     0.12456   0.54834   0.66191   0.00000  Uiso   1.00
O904   O     0.13297   0.59306   0.70081   0.00000  Uiso   1.00
C905   C     0.09845   0.45145   0.81735   0.00000  Uiso   1.00
H906   H     0.06717   0.43697   0.81228   0.00000  Uiso   1.00
O907   O     0.10429   0.44783   0.85498   0.00000  Uiso   1.00
C908   C     0.23477   0.54892   0.68286   0.00000  Uiso   1.00
H909   H     0.26653   0.56265   0.68771   0.00000  Uiso   1.00
O910   O     0.22833   0.55367   0.64554   0.00000  Uiso   1.00
C911   C     0.33336   0.42082   0.75000   0.00000  Uiso   1.00
C912   C     0.66663   0.57918   0.75001   0.00000  Uiso   1.00
C913   C     0.52780   0.49387   0.54806   0.00000  Uiso   1.00
C914   C     0.47538   0.52355   0.95353   0.00000  Uiso   1.00
C915   C     0.57590   0.48930   0.52588   0.00000  Uiso   1.00
C916   C     0.42741   0.52869   0.97579   0.00000  Uiso   1.00
C917   C     0.62908   0.35523   0.73959   0.00000  Uiso   1.00
C918   C     0.37088   0.64477   0.76047   0.00000  Uiso   1.00
C919   C     0.62891   0.64590   0.73981   0.00000  Uiso   1.00
C920   C     0.37107   0.35409   0.76023   0.00000  Uiso   1.00
C921   C     0.66655   0.62385   0.75014   0.00000  Uiso   1.00
C922   C     0.33344   0.37615   0.74990   0.00000  Uiso   1.00
C923   C     0.51642   0.47456   0.77951   0.00000  Uiso   1.00
C924   C     0.48354   0.52543   0.72047   0.00000  Uiso   1.00
C925   C     0.46657   0.47554   0.78072   0.00000  Uiso   1.00
C926   C     0.53339   0.52454   0.71932   0.00000  Uiso   1.00
C927   C     0.63942   0.49997   0.83601   0.00000  Uiso   1.00
C928   C     0.36061   0.50039   0.66399   0.00000  Uiso   1.00
C929   C     0.62411   0.49948   0.88535   0.00000  Uiso   1.00
C930   C     0.37623   0.50399   0.61467   0.00000  Uiso   1.00
C931   C     0.64018   0.48769   0.95756   0.00000  Uiso   1.00
C932   C     0.36216   0.52533   0.54352   0.00000  Uiso   1.00
C933   C     0.65648   0.49121   0.91094   0.00000  Uiso   1.00
C934   C     0.34490   0.51715   0.58960   0.00000  Uiso   1.00
C935   C     0.57566   0.50590   0.90699   0.00000  Uiso   1.00
C936   C     0.42463   0.49760   0.59290   0.00000  Uiso   1.00
C937   C     0.55841   0.50373   0.95411   0.00000  Uiso   1.00
C938   C     0.44339   0.50682   0.54660   0.00000  Uiso   1.00
C939   C     0.59154   0.49362   0.97929   0.00000  Uiso   1.00
C940   C     0.41095   0.52021   0.52185   0.00000  Uiso   1.00
C941   C     0.50913   0.51006   0.97674   0.00000  Uiso   1.00
C942   C     0.49322   0.50321   0.52431   0.00000  Uiso   1.00
Cu943  Cu    0.38022   0.50001   0.75000   0.00000  Uiso   1.00
Cu944  Cu    0.61978   0.49999   0.75000   0.00000  Uiso   1.00
H945   H     0.60100   0.48190   0.54547   0.00000  Uiso   1.00
H946   H     0.40294   0.53932   0.95667   0.00000  Uiso   1.00
H947   H     0.44686   0.48525   0.61308   0.00000  Uiso   1.00
H948   H     0.55185   0.51150   0.88611   0.00000  Uiso   1.00
H949   H     0.64075   0.52199   0.60564   0.00000  Uiso   1.00
H950   H     0.36074   0.48646   0.89500   0.00000  Uiso   1.00
H951   H     0.66558   0.47970   0.97660   0.00000  Uiso   1.00
H952   H     0.33744   0.53643   0.52492   0.00000  Uiso   1.00
H953   H     0.51929   0.49070   0.58413   0.00000  Uiso   1.00
H954   H     0.48485   0.53160   0.91809   0.00000  Uiso   1.00
H955   H     0.60001   0.37177   0.73094   0.00000  Uiso   1.00
H956   H     0.39995   0.62823   0.76915   0.00000  Uiso   1.00
H957   H     0.59960   0.63030   0.73153   0.00000  Uiso   1.00
H958   H     0.40038   0.36970   0.76851   0.00000  Uiso   1.00
N959   N     0.45069   0.50001   0.74999   0.00000  Uiso   1.00
N960   N     0.54931   0.49999   0.75001   0.00000  Uiso   1.00
O961   O     0.37291   0.43989   0.75000   0.00000  Uiso   1.00
O962   O     0.62709   0.56011   0.75000   0.00000  Uiso   1.00
O963   O     0.62706   0.43988   0.75000   0.00000  Uiso   1.00
O964   O     0.37294   0.56012   0.75000   0.00000  Uiso   1.00
O965   O     0.35186   0.50001   0.81492   0.00000  Uiso   1.00
O966   O     0.64814   0.49999   0.68508   0.00000  Uiso   1.00
O967   O     0.60600   0.50000   0.81492   0.00000  Uiso   1.00
O968   O     0.39400   0.50000   0.68508   0.00000  Uiso   1.00
C969   C     0.53302   0.44303   0.80775   0.00000  Uiso   1.00
H970   H     0.54267   0.45128   0.83763   0.00000  Uiso   1.00
O971   O     0.53280   0.40672   0.79921   0.00000  Uiso   1.00
C972   C     0.46683   0.55674   0.69210   0.00000  Uiso   1.00
H973   H     0.45790   0.54834   0.66191   0.00000  Uiso   1.00
O974   O     0.46630   0.59306   0.70081   0.00000  Uiso   1.00
C975   C     0.43178   0.45145   0.81735   0.00000  Uiso   1.00
H976   H     0.40050   0.43697   0.81228   0.00000  Uiso   1.00
O977   O     0.43762   0.44783   0.85498   0.00000  Uiso   1.00
C978   C     0.56810   0.54892   0.68286   0.00000  Uiso   1.00
H979   H     0.59987   0.56265   0.68771   0.00000  Uiso   1.00
O980   O     0.56166   0.55367   0.64554   0.00000  Uiso   1.00
C981   C     0.66670   0.42082   0.75000   0.00000  Uiso   1.00
C982   C     0.99997   0.57918   0.75001   0.00000  Uiso   1.00
C983   C     0.86113   0.49387   0.54806   0.00000  Uiso   1.00
C984   C     0.80871   0.52355   0.95353   0.00000  Uiso   1.00
C985   C     0.90923   0.48930   0.52588   0.00000  Uiso   1.00
C986   C     0.76075   0.52869   0.97579   0.00000  Uiso   1.00
C987   C     0.96242   0.35523   0.73959   0.00000  Uiso   1.00
C988   C     0.70422   0.64477   0.76047   0.00000  Uiso   1.00
C989   C     0.96224   0.64590   0.73981   0.00000  Uiso   1.00
C990   C     0.70440   0.35409   0.76023   0.00000  Uiso   1.00
C991   C     0.99988   0.62385   0.75014   0.00000  Uiso   1.00
C992   C     0.66677   0.37615   0.74990   0.00000  Uiso   1.00
C993   C     0.84975   0.47456   0.77951   0.00000  Uiso   1.00
C994   C     0.81687   0.52543   0.72047   0.00000  Uiso   1.00
C995   C     0.79990   0.47554   0.78072   0.00000  Uiso   1.00
C996   C     0.86673   0.52454   0.71932   0.00000  Uiso   1.00
C997   C     0.97275   0.49997   0.83601   0.00000  Uiso   1.00
C998   C     0.69395   0.50039   0.66399   0.00000  Uiso   1.00
C999   C     0.95745   0.49948   0.88535   0.00000  Uiso   1.00
C1000  C     0.70956   0.50399   0.61467   0.00000  Uiso   1.00
C1001  C     0.97352   0.48769   0.95756   0.00000  Uiso   1.00
C1002  C     0.69549   0.52533   0.54352   0.00000  Uiso   1.00
C1003  C     0.98981   0.49121   0.91094   0.00000  Uiso   1.00
C1004  C     0.67824   0.51715   0.58960   0.00000  Uiso   1.00
C1005  C     0.90899   0.50590   0.90699   0.00000  Uiso   1.00
C1006  C     0.75797   0.49760   0.59290   0.00000  Uiso   1.00
C1007  C     0.89174   0.50373   0.95411   0.00000  Uiso   1.00
C1008  C     0.77673   0.50682   0.54660   0.00000  Uiso   1.00
C1009  C     0.92487   0.49362   0.97929   0.00000  Uiso   1.00
C1010  C     0.74428   0.52021   0.52185   0.00000  Uiso   1.00
C1011  C     0.84246   0.51006   0.97674   0.00000  Uiso   1.00
C1012  C     0.82656   0.50321   0.52431   0.00000  Uiso   1.00
Cu1013 Cu    0.71355   0.50001   0.75000   0.00000  Uiso   1.00
Cu1014 Cu    0.95311   0.49999   0.75000   0.00000  Uiso   1.00
H1015  H     0.93433   0.48190   0.54547   0.00000  Uiso   1.00
H1016  H     0.73627   0.53932   0.95667   0.00000  Uiso   1.00
H1017  H     0.78019   0.48525   0.61308   0.00000  Uiso   1.00
H1018  H     0.88518   0.51150   0.88611   0.00000  Uiso   1.00
H1019  H     0.97408   0.52199   0.60564   0.00000  Uiso   1.00
H1020  H     0.69407   0.48646   0.89500   0.00000  Uiso   1.00
H1021  H     0.99892   0.47970   0.97660   0.00000  Uiso   1.00
H1022  H     0.67077   0.53643   0.52492   0.00000  Uiso   1.00
H1023  H     0.85262   0.49070   0.58413   0.00000  Uiso   1.00
H1024  H     0.81818   0.53160   0.91809   0.00000  Uiso   1.00
H1025  H     0.93334   0.37177   0.73094   0.00000  Uiso   1.00
H1026  H     0.73328   0.62823   0.76915   0.00000  Uiso   1.00
H1027  H     0.93293   0.63030   0.73153   0.00000  Uiso   1.00
H1028  H     0.73371   0.36970   0.76851   0.00000  Uiso   1.00
N1029  N     0.78403   0.50001   0.74999   0.00000  Uiso   1.00
N1030  N     0.88264   0.49999   0.75001   0.00000  Uiso   1.00
O1031  O     0.70625   0.43989   0.75000   0.00000  Uiso   1.00
O1032  O     0.96042   0.56011   0.75000   0.00000  Uiso   1.00
O1033  O     0.96039   0.43988   0.75000   0.00000  Uiso   1.00
O1034  O     0.70628   0.56012   0.75000   0.00000  Uiso   1.00
O1035  O     0.68519   0.50001   0.81492   0.00000  Uiso   1.00
O1036  O     0.98148   0.49999   0.68508   0.00000  Uiso   1.00
O1037  O     0.93933   0.50000   0.81492   0.00000  Uiso   1.00
O1038  O     0.72733   0.50000   0.68508   0.00000  Uiso   1.00
C1039  C     0.86635   0.44303   0.80775   0.00000  Uiso   1.00
H1040  H     0.87600   0.45128   0.83763   0.00000  Uiso   1.00
O1041  O     0.86613   0.40672   0.79921   0.00000  Uiso   1.00
C1042  C     0.80016   0.55674   0.69210   0.00000  Uiso   1.00
H1043  H     0.79123   0.54834   0.66191   0.00000  Uiso   1.00
O1044  O     0.79963   0.59306   0.70081   0.00000  Uiso   1.00
C1045  C     0.76511   0.45145   0.81735   0.00000  Uiso   1.00
H1046  H     0.73384   0.43697   0.81228   0.00000  Uiso   1.00
O1047  O     0.77095   0.44783   0.85498   0.00000  Uiso   1.00
C1048  C     0.90144   0.54892   0.68286   0.00000  Uiso   1.00
H1049  H     0.93320   0.56265   0.68771   0.00000  Uiso   1.00
O1050  O     0.89500   0.55367   0.64554   0.00000  Uiso   1.00
C1051  C     0.00003   0.75416   0.75000   0.00000  Uiso   1.00
C1052  C     0.33330   0.91251   0.75001   0.00000  Uiso   1.00
C1053  C     0.19447   0.82720   0.54806   0.00000  Uiso   1.00
C1054  C     0.14205   0.85688   0.95353   0.00000  Uiso   1.00
C1055  C     0.24256   0.82263   0.52588   0.00000  Uiso   1.00
C1056  C     0.09408   0.86202   0.97579   0.00000  Uiso   1.00
C1057  C     0.29575   0.68856   0.73959   0.00000  Uiso   1.00
C1058  C     0.03755   0.97810   0.76047   0.00000  Uiso   1.00
C1059  C     0.29557   0.97924   0.73981   0.00000  Uiso   1.00
C1060  C     0.03774   0.68743   0.76023   0.00000  Uiso   1.00
C1061  C     0.33321   0.95718   0.75014   0.00000  Uiso   1.00
C1062  C     0.00010   0.70948   0.74990   0.00000  Uiso   1.00
C1063  C     0.18309   0.80789   0.77951   0.00000  Uiso   1.00
C1064  C     0.15021   0.85876   0.72047   0.00000  Uiso   1.00
C1065  C     0.13324   0.80887   0.78072   0.00000  Uiso   1.00
C1066  C     0.20006   0.85788   0.71932   0.00000  Uiso   1.00
C1067  C     0.30608   0.83331   0.83601   0.00000  Uiso   1.00
C1068  C     0.02728   0.83372   0.66399   0.00000  Uiso   1.00
C1069  C     0.29078   0.83281   0.88535   0.00000  Uiso   1.00
C1070  C     0.04290   0.83732   0.61467   0.00000  Uiso   1.00
C1071  C     0.30685   0.82102   0.95756   0.00000  Uiso   1.00
C1072  C     0.02882   0.85867   0.54352   0.00000  Uiso   1.00
C1073  C     0.32314   0.82454   0.91094   0.00000  Uiso   1.00
C1074  C     0.01157   0.85048   0.58960   0.00000  Uiso   1.00
C1075  C     0.24232   0.83923   0.90699   0.00000  Uiso   1.00
C1076  C     0.09130   0.83093   0.59290   0.00000  Uiso   1.00
C1077  C     0.22508   0.83706   0.95411   0.00000  Uiso   1.00
C1078  C     0.11006   0.84015   0.54660   0.00000  Uiso   1.00
C1079  C     0.25821   0.82695   0.97929   0.00000  Uiso   1.00
C1080  C     0.07761   0.85354   0.52185   0.00000  Uiso   1.00
C1081  C     0.17580   0.84339   0.97674   0.00000  Uiso   1.00
C1082  C     0.15989   0.83654   0.52431   0.00000  Uiso   1.00
Cu1083 Cu    0.04689   0.83334   0.75000   0.00000  Uiso   1.00
Cu1084 Cu    0.28645   0.83333   0.75000   0.00000  Uiso   1.00
H1085  H     0.26766   0.81523   0.54547   0.00000  Uiso   1.00
H1086  H     0.06960   0.87265   0.95667   0.00000  Uiso   1.00
H1087  H     0.11352   0.81858   0.61308   0.00000  Uiso   1.00
H1088  H     0.21851   0.84484   0.88611   0.00000  Uiso   1.00
H1089  H     0.30741   0.85532   0.60564   0.00000  Uiso   1.00
H1090  H     0.02741   0.81979   0.89500   0.00000  Uiso   1.00
H1091  H     0.33225   0.81304   0.97660   0.00000  Uiso   1.00
H1092  H     0.00410   0.86976   0.52492   0.00000  Uiso   1.00
H1093  H     0.18595   0.82404   0.58413   0.00000  Uiso   1.00
H1094  H     0.15151   0.86493   0.91809   0.00000  Uiso   1.00
H1095  H     0.26667   0.70510   0.73094   0.00000  Uiso   1.00
H1096  H     0.06662   0.96156   0.76915   0.00000  Uiso   1.00
H1097  H     0.26627   0.96363   0.73153   0.00000  Uiso   1.00
H1098  H     0.06705   0.70303   0.76851   0.00000  Uiso   1.00
N1099  N     0.11736   0.83334   0.74999   0.00000  Uiso   1.00
N1100  N     0.21597   0.83332   0.75001   0.00000  Uiso   1.00
O1101  O     0.03958   0.77322   0.75000   0.00000  Uiso   1.00
O1102  O     0.29375   0.89345   0.75000   0.00000  Uiso   1.00
O1103  O     0.29372   0.77321   0.75000   0.00000  Uiso   1.00
O1104  O     0.03961   0.89346   0.75000   0.00000  Uiso   1.00
O1105  O     0.01852   0.83334   0.81492   0.00000  Uiso   1.00
O1106  O     0.31481   0.83332   0.68508   0.00000  Uiso   1.00
O1107  O     0.27267   0.83333   0.81492   0.00000  Uiso   1.00
O1108  O     0.06067   0.83333   0.68508   0.00000  Uiso   1.00
C1109  C     0.19968   0.77637   0.80775   0.00000  Uiso   1.00
H1110  H     0.20933   0.78461   0.83763   0.00000  Uiso   1.00
O1111  O     0.19947   0.74005   0.79921   0.00000  Uiso   1.00
C1112  C     0.13350   0.89007   0.69210   0.00000  Uiso   1.00
H1113  H     0.12456   0.88168   0.66191   0.00000  Uiso   1.00
O1114  O     0.13297   0.92639   0.70081   0.00000  Uiso   1.00
C1115  C     0.09845   0.78478   0.81735   0.00000  Uiso   1.00
H1116  H     0.06717   0.77031   0.81228   0.00000  Uiso   1.00
O1117  O     0.10429   0.78117   0.85498   0.00000  Uiso   1.00
C1118  C     0.23477   0.88226   0.68286   0.00000  Uiso   1.00
H1119  H     0.26653   0.89598   0.68771   0.00000  Uiso   1.00
O1120  O     0.22833   0.88700   0.64554   0.00000  Uiso   1.00
C1121  C     0.33336   0.75416   0.75000   0.00000  Uiso   1.00
C1122  C     0.66663   0.91251   0.75001   0.00000  Uiso   1.00
C1123  C     0.52780   0.82720   0.54806   0.00000  Uiso   1.00
C1124  C     0.47538   0.85688   0.95353   0.00000  Uiso   1.00
C1125  C     0.57590   0.82263   0.52588   0.00000  Uiso   1.00
C1126  C     0.42741   0.86202   0.97579   0.00000  Uiso   1.00
C1127  C     0.62908   0.68856   0.73959   0.00000  Uiso   1.00
C1128  C     0.37088   0.97810   0.76047   0.00000  Uiso   1.00
C1129  C     0.62891   0.97924   0.73981   0.00000  Uiso   1.00
C1130  C     0.37107   0.68743   0.76023   0.00000  Uiso   1.00
C1131  C     0.66655   0.95718   0.75014   0.00000  Uiso   1.00
C1132  C     0.33344   0.70948   0.74990   0.00000  Uiso   1.00
C1133  C     0.51642   0.80789   0.77951   0.00000  Uiso   1.00
C1134  C     0.48354   0.85876   0.72047   0.00000  Uiso   1.00
C1135  C     0.46657   0.80887   0.78072   0.00000  Uiso   1.00
C1136  C     0.53339   0.85788   0.71932   0.00000  Uiso   1.00
C1137  C     0.63942   0.83331   0.83601   0.00000  Uiso   1.00
C1138  C     0.36061   0.83372   0.66399   0.00000  Uiso   1.00
C1139  C     0.62411   0.83281   0.88535   0.00000  Uiso   1.00
C1140  C     0.37623   0.83732   0.61467   0.00000  Uiso   1.00
C1141  C     0.64018   0.82102   0.95756   0.00000  Uiso   1.00
C1142  C     0.36216   0.85867   0.54352   0.00000  Uiso   1.00
C1143  C     0.65648   0.82454   0.91094   0.00000  Uiso   1.00
C1144  C     0.34490   0.85048   0.58960   0.00000  Uiso   1.00
C1145  C     0.57566   0.83923   0.90699   0.00000  Uiso   1.00
C1146  C     0.42463   0.83093   0.59290   0.00000  Uiso   1.00
C1147  C     0.55841   0.83706   0.95411   0.00000  Uiso   1.00
C1148  C     0.44339   0.84015   0.54660   0.00000  Uiso   1.00
C1149  C     0.59154   0.82695   0.97929   0.00000  Uiso   1.00
C1150  C     0.41095   0.85354   0.52185   0.00000  Uiso   1.00
C1151  C     0.50913   0.84339   0.97674   0.00000  Uiso   1.00
C1152  C     0.49322   0.83654   0.52431   0.00000  Uiso   1.00
Cu1153 Cu    0.38022   0.83334   0.75000   0.00000  Uiso   1.00
Cu1154 Cu    0.61978   0.83333   0.75000   0.00000  Uiso   1.00
H1155  H     0.60100   0.81523   0.54547   0.00000  Uiso   1.00
H1156  H     0.40294   0.87265   0.95667   0.00000  Uiso   1.00
H1157  H     0.44686   0.81858   0.61308   0.00000  Uiso   1.00
H1158  H     0.55185   0.84484   0.88611   0.00000  Uiso   1.00
H1159  H     0.64075   0.85532   0.60564   0.00000  Uiso   1.00
H1160  H     0.36074   0.81979   0.89500   0.00000  Uiso   1.00
H1161  H     0.66558   0.81304   0.97660   0.00000  Uiso   1.00
H1162  H     0.33744   0.86976   0.52492   0.00000  Uiso   1.00
H1163  H     0.51929   0.82404   0.58413   0.00000  Uiso   1.00
H1164  H     0.48485   0.86493   0.91809   0.00000  Uiso   1.00
H1165  H     0.60001   0.70510   0.73094   0.00000  Uiso   1.00
H1166  H     0.39995   0.96156   0.76915   0.00000  Uiso   1.00
H1167  H     0.59960   0.96363   0.73153   0.00000  Uiso   1.00
H1168  H     0.40038   0.70303   0.76851   0.00000  Uiso   1.00
N1169  N     0.45069   0.83334   0.74999   0.00000  Uiso   1.00
N1170  N     0.54931   0.83332   0.75001   0.00000  Uiso   1.00
O1171  O     0.37291   0.77322   0.75000   0.00000  Uiso   1.00
O1172  O     0.62709   0.89345   0.75000   0.00000  Uiso   1.00
O1173  O     0.62706   0.77321   0.75000   0.00000  Uiso   1.00
O1174  O     0.37294   0.89346   0.75000   0.00000  Uiso   1.00
O1175  O     0.35186   0.83334   0.81492   0.00000  Uiso   1.00
O1176  O     0.64814   0.83332   0.68508   0.00000  Uiso   1.00
O1177  O     0.60600   0.83333   0.81492   0.00000  Uiso   1.00
O1178  O     0.39400   0.83333   0.68508   0.00000  Uiso   1.00
C1179  C     0.53302   0.77637   0.80775   0.00000  Uiso   1.00
H1180  H     0.54267   0.78461   0.83763   0.00000  Uiso   1.00
O1181  O     0.53280   0.74005   0.79921   0.00000  Uiso   1.00
C1182  C     0.46683   0.89007   0.69210   0.00000  Uiso   1.00
H1183  H     0.45790   0.88168   0.66191   0.00000  Uiso   1.00
O1184  O     0.46630   0.92639   0.70081   0.00000  Uiso   1.00
C1185  C     0.43178   0.78478   0.81735   0.00000  Uiso   1.00
H1186  H     0.40050   0.77031   0.81228   0.00000  Uiso   1.00
O1187  O     0.43762   0.78117   0.85498   0.00000  Uiso   1.00
C1188  C     0.56810   0.88226   0.68286   0.00000  Uiso   1.00
H1189  H     0.59987   0.89598   0.68771   0.00000  Uiso   1.00
O1190  O     0.56166   0.88700   0.64554   0.00000  Uiso   1.00
C1191  C     0.66670   0.75416   0.75000   0.00000  Uiso   1.00
C1192  C     0.99997   0.91251   0.75001   0.00000  Uiso   1.00
C1193  C     0.86113   0.82720   0.54806   0.00000  Uiso   1.00
C1194  C     0.80871   0.85688   0.95353   0.00000  Uiso   1.00
C1195  C     0.90923   0.82263   0.52588   0.00000  Uiso   1.00
C1196  C     0.76075   0.86202   0.97579   0.00000  Uiso   1.00
C1197  C     0.96242   0.68856   0.73959   0.00000  Uiso   1.00
C1198  C     0.70422   0.97810   0.76047   0.00000  Uiso   1.00
C1199  C     0.96224   0.97924   0.73981   0.00000  Uiso   1.00
C1200  C     0.70440   0.68743   0.76023   0.00000  Uiso   1.00
C1201  C     0.99988   0.95718   0.75014   0.00000  Uiso   1.00
C1202  C     0.66677   0.70948   0.74990   0.00000  Uiso   1.00
C1203  C     0.84975   0.80789   0.77951   0.00000  Uiso   1.00
C1204  C     0.81687   0.85876   0.72047   0.00000  Uiso   1.00
C1205  C     0.79990   0.80887   0.78072   0.00000  Uiso   1.00
C1206  C     0.86673   0.85788   0.71932   0.00000  Uiso   1.00
C1207  C     0.97275   0.83331   0.83601   0.00000  Uiso   1.00
C1208  C     0.69395   0.83372   0.66399   0.00000  Uiso   1.00
C1209  C     0.95745   0.83281   0.88535   0.00000  Uiso   1.00
C1210  C     0.70956   0.83732   0.61467   0.00000  Uiso   1.00
C1211  C     0.97352   0.82102   0.95756   0.00000  Uiso   1.00
C1212  C     0.69549   0.85867   0.54352   0.00000  Uiso   1.00
C1213  C     0.98981   0.82454   0.91094   0.00000  Uiso   1.00
C1214  C     0.67824   0.85048   0.58960   0.00000  Uiso   1.00
C1215  C     0.90899   0.83923   0.90699   0.00000  Uiso   1.00
C1216  C     0.75797   0.83093   0.59290   0.00000  Uiso   1.00
C1217  C     0.89174   0.83706   0.95411   0.00000  Uiso   1.00
C1218  C     0.77673   0.84015   0.54660   0.00000  Uiso   1.00
C1219  C     0.92487   0.82695   0.97929   0.00000  Uiso   1.00
C1220  C     0.74428   0.85354   0.52185   0.00000  Uiso   1.00
C1221  C     0.84246   0.84339   0.97674   0.00000  Uiso   1.00
C1222  C     0.82656   0.83654   0.52431   0.00000  Uiso   1.00
Cu1223 Cu    0.71355   0.83334   0.75000   0.00000  Uiso   1.00
Cu1224 Cu    0.95311   0.83333   0.75000   0.00000  Uiso   1.00
H1225  H     0.93433   0.81523   0.54547   0.00000  Uiso   1.00
H1226  H     0.73627   0.87265   0.95667   0.00000  Uiso   1.00
H1227  H     0.78019   0.81858   0.61308   0.00000  Uiso   1.00
H1228  H     0.88518   0.84484   0.88611   0.00000  Uiso   1.00
H1229  H     0.97408   0.85532   0.60564   0.00000  Uiso   1.00
H1230  H     0.69407   0.81979   0.89500   0.00000  Uiso   1.00
H1231  H     0.99892   0.81304   0.97660   0.00000  Uiso   1.00
H1232  H     0.67077   0.86976   0.52492   0.00000  Uiso   1.00
H1233  H     0.85262   0.82404   0.58413   0.00000  Uiso   1.00
H1234  H     0.81818   0.86493   0.91809   0.00000  Uiso   1.00
H1235  H     0.93334   0.70510   0.73094   0.00000  Uiso   1.00
H1236  H     0.73328   0.96156   0.76915   0.00000  Uiso   1.00
H1237  H     0.93293   0.96363   0.73153   0.00000  Uiso   1.00
H1238  H     0.73371   0.70303   0.76851   0.00000  Uiso   1.00
N1239  N     0.78403   0.83334   0.74999   0.00000  Uiso   1.00
N1240  N     0.88264   0.83332   0.75001   0.00000  Uiso   1.00
O1241  O     0.70625   0.77322   0.75000   0.00000  Uiso   1.00
O1242  O     0.96042   0.89345   0.75000   0.00000  Uiso   1.00
O1243  O     0.96039   0.77321   0.75000   0.00000  Uiso   1.00
O1244  O     0.70628   0.89346   0.75000   0.00000  Uiso   1.00
O1245  O     0.68519   0.83334   0.81492   0.00000  Uiso   1.00
O1246  O     0.98148   0.83332   0.68508   0.00000  Uiso   1.00
O1247  O     0.93933   0.83333   0.81492   0.00000  Uiso   1.00
O1248  O     0.72733   0.83333   0.68508   0.00000  Uiso   1.00
C1249  C     0.86635   0.77637   0.80775   0.00000  Uiso   1.00
H1250  H     0.87600   0.78461   0.83763   0.00000  Uiso   1.00
O1251  O     0.86613   0.74005   0.79921   0.00000  Uiso   1.00
C1252  C     0.80016   0.89007   0.69210   0.00000  Uiso   1.00
H1253  H     0.79123   0.88168   0.66191   0.00000  Uiso   1.00
O1254  O     0.79963   0.92639   0.70081   0.00000  Uiso   1.00
C1255  C     0.76511   0.78478   0.81735   0.00000  Uiso   1.00
H1256  H     0.73384   0.77031   0.81228   0.00000  Uiso   1.00
O1257  O     0.77095   0.78117   0.85498   0.00000  Uiso   1.00
C1258  C     0.90144   0.88226   0.68286   0.00000  Uiso   1.00
H1259  H     0.93320   0.89598   0.68771   0.00000  Uiso   1.00
O1260  O     0.89500   0.88700   0.64554   0.00000  Uiso   1.00
loop_
_geom_bond_atom_site_label_1
_geom_bond_atom_site_label_2
_geom_bond_distance
_geom_bond_site_symmetry_2
_ccdc_geom_bond_type
C1     O51     1.302   .     A
C1     C12     1.450   .     S
C1     O193    1.301   1_455 S
C2     O52     1.302   .     A
C2     C11     1.450   .     S
C2     O124    1.301   .     S
C3     C5      1.386   .     A
C3     H43     1.076   .     S
C3     C32     1.417   .     A
C4     C6      1.386   .     A
C4     C31     1.417   .     A
C4     H44     1.076   .     S
C5     H35     1.084   .     S
C5     C659    1.390   1_554 S
C6     H36     1.084   .     S
C6     C660    1.390   .     S
C7     H45     1.083   .     S
C7     C429    1.384   1_545 S
C7     C82     1.401   .     S
C8     H46     1.083   .     S
C8     C220    1.384   .     S
C8     C151    1.401   1_455 S
C9     C11     1.400   .     A
C9     H47     1.083   .     S
C9     C217    1.384   .     S
C10    H48     1.083   .     S
C10    C12     1.400   .     A
C10    C428    1.384   1_545 S
C11    C78     1.401   .     S
C12    C147    1.401   1_455 S
C13    C59     1.476   .     S
C13    C15     1.433   .     A
C13    N50     1.372   .     A
C14    C16     1.433   .     A
C14    C62     1.476   .     S
C14    N49     1.372   .     A
C15    C65     1.488   .     S
C15    N49     1.381   .     A
C16    C68     1.488   .     S
C16    N50     1.382   .     A
C17    C19     1.470   .     S
C17    O57     1.304   .     A
C17    O125    1.309   .     S
C18    C20     1.469   .     S
C18    O58     1.303   .     A
C18    O196    1.309   1_455 S
C19    C23     1.398   .     A
C19    C25     1.400   .     A
C20    C24     1.397   .     A
C20    C26     1.400   .     A
C21    C29     1.403   .     A
C21    H41     1.083   .     S
C21    C23     1.391   .     A
C22    H42     1.083   .     S
C22    C24     1.391   .     A
C22    C30     1.403   .     A
C23    H110    1.080   .     S
C24    H179    1.078   1_455 S
C25    H38     1.074   .     S
C25    C27     1.407   .     A
C26    H37     1.075   .     S
C26    C28     1.407   .     A
C27    C29     1.418   .     A
C27    C31     1.427   .     A
C28    C30     1.418   .     A
C28    C32     1.427   .     A
C29    C635    1.390   .     S
C30    C636    1.390   1_554 S
C31    C662    1.426   .     S
C32    C661    1.426   1_554 S
Cu33   O55     1.955   .     S
Cu33   O58     1.940   .     S
Cu33   O51     1.963   .     S
Cu33   N49     2.038   .     S
Cu33   O54     1.961   .     S
Cu33   Cu174   2.712   1_455 S
Cu34   O57     1.940   .     S
Cu34   O56     1.955   .     S
Cu34   O53     1.961   .     S
Cu34   N50     2.038   .     S
Cu34   O52     1.963   .     S
Cu34   Cu103   2.712   .     S
H39    C94     1.078   .     S
H40    C163    1.080   1_455 S
O53    C71     1.301   .     S
O54    C142    1.301   1_455 S
O55    C157    1.309   1_455 S
O56    C88     1.309   .     S
C59    H60     1.081   .     S
C59    O61     1.220   .     D
C62    H63     1.081   .     S
C62    O64     1.220   .     D
C65    H66     1.072   .     S
C65    O67     1.221   .     D
C68    O70     1.221   .     D
C68    H69     1.072   .     S
C71    O121    1.302   .     A
C71    C82     1.450   .     S
C72    O122    1.302   .     A
C72    C81     1.450   .     S
C72    O194    1.301   .     S
C73    C75     1.386   .     A
C73    H113    1.076   .     S
C73    C102    1.417   .     A
C74    C76     1.386   .     A
C74    C101    1.417   .     A
C74    H114    1.076   .     S
C75    H105    1.084   .     S
C75    C729    1.390   1_554 S
C76    H106    1.084   .     S
C76    C730    1.390   .     S
C77    H115    1.083   .     S
C77    C499    1.384   1_545 S
C77    C152    1.401   .     S
C78    H116    1.083   .     S
C78    C290    1.384   .     S
C79    C81     1.400   .     A
C79    H117    1.083   .     S
C79    C287    1.384   .     S
C80    H118    1.083   .     S
C80    C82     1.400   .     A
C80    C498    1.384   1_545 S
C81    C148    1.401   .     S
C83    C129    1.476   .     S
C83    C85     1.433   .     A
C83    N120    1.372   .     A
C84    C86     1.433   .     A
C84    C132    1.476   .     S
C84    N119    1.372   .     A
C85    C135    1.488   .     S
C85    N119    1.381   .     A
C86    C138    1.488   .     S
C86    N120    1.382   .     A
C87    C89     1.470   .     S
C87    O127    1.304   .     A
C87    O195    1.309   .     S
C88    C90     1.469   .     S
C88    O128    1.303   .     A
C89    C93     1.398   .     A
C89    C95     1.400   .     A
C90    C94     1.397   .     A
C90    C96     1.400   .     A
C91    C99     1.403   .     A
C91    H111    1.083   .     S
C91    C93     1.391   .     A
C92    H112    1.083   .     S
C92    C94     1.391   .     A
C92    C100    1.403   .     A
C93    H180    1.080   .     S
C95    H108    1.074   .     S
C95    C97     1.407   .     A
C96    H107    1.075   .     S
C96    C98     1.407   .     A
C97    C99     1.418   .     A
C97    C101    1.427   .     A
C98    C100    1.418   .     A
C98    C102    1.427   .     A
C99    C705    1.390   .     S
C100   C706    1.390   1_554 S
C101   C732    1.426   .     S
C102   C731    1.426   1_554 S
Cu103  O125    1.955   .     S
Cu103  O128    1.940   .     S
Cu103  O121    1.963   .     S
Cu103  N119    2.038   .     S
Cu103  O124    1.961   .     S
Cu104  O127    1.940   .     S
Cu104  O126    1.955   .     S
Cu104  O123    1.961   .     S
Cu104  N120    2.038   .     S
Cu104  O122    1.963   .     S
Cu104  Cu173   2.712   .     S
H109   C164    1.078   .     S
O123   C141    1.301   .     S
O126   C158    1.309   .     S
C129   H130    1.081   .     S
C129   O131    1.220   .     D
C132   H133    1.081   .     S
C132   O134    1.220   .     D
C135   H136    1.072   .     S
C135   O137    1.221   .     D
C138   O140    1.221   .     D
C138   H139    1.072   .     S
C141   O191    1.302   .     A
C141   C152    1.450   .     S
C142   O192    1.302   .     A
C142   C151    1.450   .     S
C142   O54     1.301   1_655 S
C143   C145    1.386   .     A
C143   H183    1.076   .     S
C143   C172    1.417   .     A
C144   C146    1.386   .     A
C144   C171    1.417   .     A
C144   H184    1.076   .     S
C145   H175    1.084   .     S
C145   C799    1.390   1_554 S
C146   H176    1.084   .     S
C146   C800    1.390   .     S
C147   H185    1.083   .     S
C147   C569    1.384   1_545 S
C147   C12     1.401   1_655 S
C148   H186    1.083   .     S
C148   C360    1.384   .     S
C149   C151    1.400   .     A
C149   H187    1.083   .     S
C149   C357    1.384   .     S
C150   H188    1.083   .     S
C150   C152    1.400   .     A
C150   C568    1.384   1_545 S
C151   C8      1.401   1_655 S
C153   C199    1.476   .     S
C153   C155    1.433   .     A
C153   N190    1.372   .     A
C154   C156    1.433   .     A
C154   C202    1.476   .     S
C154   N189    1.372   .     A
C155   C205    1.488   .     S
C155   N189    1.381   .     A
C156   C208    1.488   .     S
C156   N190    1.382   .     A
C157   C159    1.470   .     S
C157   O197    1.304   .     A
C157   O55     1.309   1_655 S
C158   C160    1.469   .     S
C158   O198    1.303   .     A
C159   C163    1.398   .     A
C159   C165    1.400   .     A
C160   C164    1.397   .     A
C160   C166    1.400   .     A
C161   C169    1.403   .     A
C161   H181    1.083   .     S
C161   C163    1.391   .     A
C162   H182    1.083   .     S
C162   C164    1.391   .     A
C162   C170    1.403   .     A
C163   H40     1.080   1_655 S
C165   H178    1.074   .     S
C165   C167    1.407   .     A
C166   H177    1.075   .     S
C166   C168    1.407   .     A
C167   C169    1.418   .     A
C167   C171    1.427   .     A
C168   C170    1.418   .     A
C168   C172    1.427   .     A
C169   C775    1.390   .     S
C170   C776    1.390   1_554 S
C171   C802    1.426   .     S
C172   C801    1.426   1_554 S
Cu173  O195    1.955   .     S
Cu173  O198    1.940   .     S
Cu173  O191    1.963   .     S
Cu173  N189    2.038   .     S
Cu173  O194    1.961   .     S
Cu174  O197    1.940   .     S
Cu174  O196    1.955   .     S
Cu174  O193    1.961   .     S
Cu174  N190    2.038   .     S
Cu174  O192    1.963   .     S
Cu174  Cu33    2.712   1_655 S
H179   C24     1.078   1_655 S
O193   C1      1.301   1_655 S
O196   C18     1.309   1_655 S
C199   H200    1.081   .     S
C199   O201    1.220   .     D
C202   H203    1.081   .     S
C202   O204    1.220   .     D
C205   H206    1.072   .     S
C205   O207    1.221   .     D
C208   O210    1.221   .     D
C208   H209    1.072   .     S
C211   O261    1.302   .     A
C211   C222    1.450   .     S
C211   O403    1.301   1_455 S
C212   O262    1.302   .     A
C212   C221    1.450   .     S
C212   O334    1.301   .     S
C213   C215    1.386   .     A
C213   H253    1.076   .     S
C213   C242    1.417   .     A
C214   C216    1.386   .     A
C214   C241    1.417   .     A
C214   H254    1.076   .     S
C215   H245    1.084   .     S
C215   C869    1.390   1_554 S
C216   H246    1.084   .     S
C216   C870    1.390   .     S
C217   H255    1.083   .     S
C217   C292    1.401   .     S
C218   H256    1.083   .     S
C218   C430    1.384   .     S
C218   C361    1.401   1_455 S
C219   C221    1.400   .     A
C219   H257    1.083   .     S
C219   C427    1.384   .     S
C220   H258    1.083   .     S
C220   C222    1.400   .     A
C221   C288    1.401   .     S
C222   C357    1.401   1_455 S
C223   C269    1.476   .     S
C223   C225    1.433   .     A
C223   N260    1.372   .     A
C224   C226    1.433   .     A
C224   C272    1.476   .     S
C224   N259    1.372   .     A
C225   C275    1.488   .     S
C225   N259    1.381   .     A
C226   C278    1.488   .     S
C226   N260    1.382   .     A
C227   C229    1.470   .     S
C227   O267    1.304   .     A
C227   O335    1.309   .     S
C228   C230    1.469   .     S
C228   O268    1.303   .     A
C228   O406    1.309   1_455 S
C229   C233    1.398   .     A
C229   C235    1.400   .     A
C230   C234    1.397   .     A
C230   C236    1.400   .     A
C231   C239    1.403   .     A
C231   H251    1.083   .     S
C231   C233    1.391   .     A
C232   H252    1.083   .     S
C232   C234    1.391   .     A
C232   C240    1.403   .     A
C233   H320    1.080   .     S
C234   H389    1.078   1_455 S
C235   H248    1.074   .     S
C235   C237    1.407   .     A
C236   H247    1.075   .     S
C236   C238    1.407   .     A
C237   C239    1.418   .     A
C237   C241    1.427   .     A
C238   C240    1.418   .     A
C238   C242    1.427   .     A
C239   C845    1.390   .     S
C240   C846    1.390   1_554 S
C241   C872    1.426   .     S
C242   C871    1.426   1_554 S
Cu243  O265    1.955   .     S
Cu243  O268    1.940   .     S
Cu243  O261    1.963   .     S
Cu243  N259    2.038   .     S
Cu243  O264    1.961   .     S
Cu243  Cu384   2.712   1_455 S
Cu244  O267    1.940   .     S
Cu244  O266    1.955   .     S
Cu244  O263    1.961   .     S
Cu244  N260    2.038   .     S
Cu244  O262    1.963   .     S
Cu244  Cu313   2.712   .     S
H249   C304    1.078   .     S
H250   C373    1.080   1_455 S
O263   C281    1.301   .     S
O264   C352    1.301   1_455 S
O265   C367    1.309   1_455 S
O266   C298    1.309   .     S
C269   H270    1.081   .     S
C269   O271    1.220   .     D
C272   H273    1.081   .     S
C272   O274    1.220   .     D
C275   H276    1.072   .     S
C275   O277    1.221   .     D
C278   O280    1.221   .     D
C278   H279    1.072   .     S
C281   O331    1.302   .     A
C281   C292    1.450   .     S
C282   O332    1.302   .     A
C282   C291    1.450   .     S
C282   O404    1.301   .     S
C283   C285    1.386   .     A
C283   H323    1.076   .     S
C283   C312    1.417   .     A
C284   C286    1.386   .     A
C284   C311    1.417   .     A
C284   H324    1.076   .     S
C285   H315    1.084   .     S
C285   C939    1.390   1_554 S
C286   H316    1.084   .     S
C286   C940    1.390   .     S
C287   H325    1.083   .     S
C287   C362    1.401   .     S
C288   H326    1.083   .     S
C288   C500    1.384   .     S
C289   C291    1.400   .     A
C289   H327    1.083   .     S
C289   C497    1.384   .     S
C290   H328    1.083   .     S
C290   C292    1.400   .     A
C291   C358    1.401   .     S
C293   C339    1.476   .     S
C293   C295    1.433   .     A
C293   N330    1.372   .     A
C294   C296    1.433   .     A
C294   C342    1.476   .     S
C294   N329    1.372   .     A
C295   C345    1.488   .     S
C295   N329    1.381   .     A
C296   C348    1.488   .     S
C296   N330    1.382   .     A
C297   C299    1.470   .     S
C297   O337    1.304   .     A
C297   O405    1.309   .     S
C298   C300    1.469   .     S
C298   O338    1.303   .     A
C299   C303    1.398   .     A
C299   C305    1.400   .     A
C300   C304    1.397   .     A
C300   C306    1.400   .     A
C301   C309    1.403   .     A
C301   H321    1.083   .     S
C301   C303    1.391   .     A
C302   H322    1.083   .     S
C302   C304    1.391   .     A
C302   C310    1.403   .     A
C303   H390    1.080   .     S
C305   H318    1.074   .     S
C305   C307    1.407   .     A
C306   H317    1.075   .     S
C306   C308    1.407   .     A
C307   C309    1.418   .     A
C307   C311    1.427   .     A
C308   C310    1.418   .     A
C308   C312    1.427   .     A
C309   C915    1.390   .     S
C310   C916    1.390   1_554 S
C311   C942    1.426   .     S
C312   C941    1.426   1_554 S
Cu313  O335    1.955   .     S
Cu313  O338    1.940   .     S
Cu313  O331    1.963   .     S
Cu313  N329    2.038   .     S
Cu313  O334    1.961   .     S
Cu314  O337    1.940   .     S
Cu314  O336    1.955   .     S
Cu314  O333    1.961   .     S
Cu314  N330    2.038   .     S
Cu314  O332    1.963   .     S
Cu314  Cu383   2.712   .     S
H319   C374    1.078   .     S
O333   C351    1.301   .     S
O336   C368    1.309   .     S
C339   H340    1.081   .     S
C339   O341    1.220   .     D
C342   H343    1.081   .     S
C342   O344    1.220   .     D
C345   H346    1.072   .     S
C345   O347    1.221   .     D
C348   O350    1.221   .     D
C348   H349    1.072   .     S
C351   O401    1.302   .     A
C351   C362    1.450   .     S
C352   O402    1.302   .     A
C352   C361    1.450   .     S
C352   O264    1.301   1_655 S
C353   C355    1.386   .     A
C353   H393    1.076   .     S
C353   C382    1.417   .     A
C354   C356    1.386   .     A
C354   C381    1.417   .     A
C354   H394    1.076   .     S
C355   H385    1.084   .     S
C355   C1009   1.390   1_554 S
C356   H386    1.084   .     S
C356   C1010   1.390   .     S
C357   H395    1.083   .     S
C357   C222    1.401   1_655 S
C358   H396    1.083   .     S
C358   C570    1.384   .     S
C359   C361    1.400   .     A
C359   H397    1.083   .     S
C359   C567    1.384   .     S
C360   H398    1.083   .     S
C360   C362    1.400   .     A
C361   C218    1.401   1_655 S
C363   C409    1.476   .     S
C363   C365    1.433   .     A
C363   N400    1.372   .     A
C364   C366    1.433   .     A
C364   C412    1.476   .     S
C364   N399    1.372   .     A
C365   C415    1.488   .     S
C365   N399    1.381   .     A
C366   C418    1.488   .     S
C366   N400    1.382   .     A
C367   C369    1.470   .     S
C367   O407    1.304   .     A
C367   O265    1.309   1_655 S
C368   C370    1.469   .     S
C368   O408    1.303   .     A
C369   C373    1.398   .     A
C369   C375    1.400   .     A
C370   C374    1.397   .     A
C370   C376    1.400   .     A
C371   C379    1.403   .     A
C371   H391    1.083   .     S
C371   C373    1.391   .     A
C372   H392    1.083   .     S
C372   C374    1.391   .     A
C372   C380    1.403   .     A
C373   H250    1.080   1_655 S
C375   H388    1.074   .     S
C375   C377    1.407   .     A
C376   H387    1.075   .     S
C376   C378    1.407   .     A
C377   C379    1.418   .     A
C377   C381    1.427   .     A
C378   C380    1.418   .     A
C378   C382    1.427   .     A
C379   C985    1.390   .     S
C380   C986    1.390   1_554 S
C381   C1012   1.426   .     S
C382   C1011   1.426   1_554 S
Cu383  O405    1.955   .     S
Cu383  O408    1.940   .     S
Cu383  O401    1.963   .     S
Cu383  N399    2.038   .     S
Cu383  O404    1.961   .     S
Cu384  O407    1.940   .     S
Cu384  O406    1.955   .     S
Cu384  O403    1.961   .     S
Cu384  N400    2.038   .     S
Cu384  O402    1.963   .     S
Cu384  Cu243   2.712   1_655 S
H389   C234    1.078   1_655 S
O403   C211    1.301   1_655 S
O406   C228    1.309   1_655 S
C409   H410    1.081   .     S
C409   O411    1.220   .     D
C412   H413    1.081   .     S
C412   O414    1.220   .     D
C415   H416    1.072   .     S
C415   O417    1.221   .     D
C418   O420    1.221   .     D
C418   H419    1.072   .     S
C421   O471    1.302   .     A
C421   C432    1.450   .     S
C421   O613    1.301   1_455 S
C422   O472    1.302   .     A
C422   C431    1.450   .     S
C422   O544    1.301   .     S
C423   C425    1.386   .     A
C423   H463    1.076   .     S
C423   C452    1.417   .     A
C424   C426    1.386   .     A
C424   C451    1.417   .     A
C424   H464    1.076   .     S
C425   H455    1.084   .     S
C425   C1079   1.390   1_554 S
C426   H456    1.084   .     S
C426   C1080   1.390   .     S
C427   H465    1.083   .     S
C427   C502    1.401   .     S
C428   H466    1.083   .     S
C428   C10     1.384   1_565 S
C428   C571    1.401   1_455 S
C429   C431    1.400   .     A
C429   H467    1.083   .     S
C429   C7      1.384   1_565 S
C430   H468    1.083   .     S
C430   C432    1.400   .     A
C431   C498    1.401   .     S
C432   C567    1.401   1_455 S
C433   C479    1.476   .     S
C433   C435    1.433   .     A
C433   N470    1.372   .     A
C434   C436    1.433   .     A
C434   C482    1.476   .     S
C434   N469    1.372   .     A
C435   C485    1.488   .     S
C435   N469    1.381   .     A
C436   C488    1.488   .     S
C436   N470    1.382   .     A
C437   C439    1.470   .     S
C437   O477    1.304   .     A
C437   O545    1.309   .     S
C438   C440    1.469   .     S
C438   O478    1.303   .     A
C438   O616    1.309   1_455 S
C439   C443    1.398   .     A
C439   C445    1.400   .     A
C440   C444    1.397   .     A
C440   C446    1.400   .     A
C441   C449    1.403   .     A
C441   H461    1.083   .     S
C441   C443    1.391   .     A
C442   H462    1.083   .     S
C442   C444    1.391   .     A
C442   C450    1.403   .     A
C443   H530    1.080   .     S
C444   H599    1.078   1_455 S
C445   H458    1.074   .     S
C445   C447    1.407   .     A
C446   H457    1.075   .     S
C446   C448    1.407   .     A
C447   C449    1.418   .     A
C447   C451    1.427   .     A
C448   C450    1.418   .     A
C448   C452    1.427   .     A
C449   C1055   1.390   .     S
C450   C1056   1.390   1_554 S
C451   C1082   1.426   .     S
C452   C1081   1.426   1_554 S
Cu453  O475    1.955   .     S
Cu453  O478    1.940   .     S
Cu453  O471    1.963   .     S
Cu453  N469    2.038   .     S
Cu453  O474    1.961   .     S
Cu453  Cu594   2.712   1_455 S
Cu454  O477    1.940   .     S
Cu454  O476    1.955   .     S
Cu454  O473    1.961   .     S
Cu454  N470    2.038   .     S
Cu454  O472    1.963   .     S
Cu454  Cu523   2.712   .     S
H459   C514    1.078   .     S
H460   C583    1.080   1_455 S
O473   C491    1.301   .     S
O474   C562    1.301   1_455 S
O475   C577    1.309   1_455 S
O476   C508    1.309   .     S
C479   H480    1.081   .     S
C479   O481    1.220   .     D
C482   H483    1.081   .     S
C482   O484    1.220   .     D
C485   H486    1.072   .     S
C485   O487    1.221   .     D
C488   O490    1.221   .     D
C488   H489    1.072   .     S
C491   O541    1.302   .     A
C491   C502    1.450   .     S
C492   O542    1.302   .     A
C492   C501    1.450   .     S
C492   O614    1.301   .     S
C493   C495    1.386   .     A
C493   H533    1.076   .     S
C493   C522    1.417   .     A
C494   C496    1.386   .     A
C494   C521    1.417   .     A
C494   H534    1.076   .     S
C495   H525    1.084   .     S
C495   C1149   1.390   1_554 S
C496   H526    1.084   .     S
C496   C1150   1.390   .     S
C497   H535    1.083   .     S
C497   C572    1.401   .     S
C498   H536    1.083   .     S
C498   C80     1.384   1_565 S
C499   C501    1.400   .     A
C499   H537    1.083   .     S
C499   C77     1.384   1_565 S
C500   H538    1.083   .     S
C500   C502    1.400   .     A
C501   C568    1.401   .     S
C503   C549    1.476   .     S
C503   C505    1.433   .     A
C503   N540    1.372   .     A
C504   C506    1.433   .     A
C504   C552    1.476   .     S
C504   N539    1.372   .     A
C505   C555    1.488   .     S
C505   N539    1.381   .     A
C506   C558    1.488   .     S
C506   N540    1.382   .     A
C507   C509    1.470   .     S
C507   O547    1.304   .     A
C507   O615    1.309   .     S
C508   C510    1.469   .     S
C508   O548    1.303   .     A
C509   C513    1.398   .     A
C509   C515    1.400   .     A
C510   C514    1.397   .     A
C510   C516    1.400   .     A
C511   C519    1.403   .     A
C511   H531    1.083   .     S
C511   C513    1.391   .     A
C512   H532    1.083   .     S
C512   C514    1.391   .     A
C512   C520    1.403   .     A
C513   H600    1.080   .     S
C515   H528    1.074   .     S
C515   C517    1.407   .     A
C516   H527    1.075   .     S
C516   C518    1.407   .     A
C517   C519    1.418   .     A
C517   C521    1.427   .     A
C518   C520    1.418   .     A
C518   C522    1.427   .     A
C519   C1125   1.390   .     S
C520   C1126   1.390   1_554 S
C521   C1152   1.426   .     S
C522   C1151   1.426   1_554 S
Cu523  O545    1.955   .     S
Cu523  O548    1.940   .     S
Cu523  O541    1.963   .     S
Cu523  N539    2.038   .     S
Cu523  O544    1.961   .     S
Cu524  O547    1.940   .     S
Cu524  O546    1.955   .     S
Cu524  O543    1.961   .     S
Cu524  N540    2.038   .     S
Cu524  O542    1.963   .     S
Cu524  Cu593   2.712   .     S
H529   C584    1.078   .     S
O543   C561    1.301   .     S
O546   C578    1.309   .     S
C549   H550    1.081   .     S
C549   O551    1.220   .     D
C552   H553    1.081   .     S
C552   O554    1.220   .     D
C555   H556    1.072   .     S
C555   O557    1.221   .     D
C558   O560    1.221   .     D
C558   H559    1.072   .     S
C561   O611    1.302   .     A
C561   C572    1.450   .     S
C562   O612    1.302   .     A
C562   C571    1.450   .     S
C562   O474    1.301   1_655 S
C563   C565    1.386   .     A
C563   H603    1.076   .     S
C563   C592    1.417   .     A
C564   C566    1.386   .     A
C564   C591    1.417   .     A
C564   H604    1.076   .     S
C565   H595    1.084   .     S
C565   C1219   1.390   1_554 S
C566   H596    1.084   .     S
C566   C1220   1.390   .     S
C567   H605    1.083   .     S
C567   C432    1.401   1_655 S
C568   H606    1.083   .     S
C568   C150    1.384   1_565 S
C569   C571    1.400   .     A
C569   H607    1.083   .     S
C569   C147    1.384   1_565 S
C570   H608    1.083   .     S
C570   C572    1.400   .     A
C571   C428    1.401   1_655 S
C573   C619    1.476   .     S
C573   C575    1.433   .     A
C573   N610    1.372   .     A
C574   C576    1.433   .     A
C574   C622    1.476   .     S
C574   N609    1.372   .     A
C575   C625    1.488   .     S
C575   N609    1.381   .     A
C576   C628    1.488   .     S
C576   N610    1.382   .     A
C577   C579    1.470   .     S
C577   O617    1.304   .     A
C577   O475    1.309   1_655 S
C578   C580    1.469   .     S
C578   O618    1.303   .     A
C579   C583    1.398   .     A
C579   C585    1.400   .     A
C580   C584    1.397   .     A
C580   C586    1.400   .     A
C581   C589    1.403   .     A
C581   H601    1.083   .     S
C581   C583    1.391   .     A
C582   H602    1.083   .     S
C582   C584    1.391   .     A
C582   C590    1.403   .     A
C583   H460    1.080   1_655 S
C585   H598    1.074   .     S
C585   C587    1.407   .     A
C586   H597    1.075   .     S
C586   C588    1.407   .     A
C587   C589    1.418   .     A
C587   C591    1.427   .     A
C588   C590    1.418   .     A
C588   C592    1.427   .     A
C589   C1195   1.390   .     S
C590   C1196   1.390   1_554 S
C591   C1222   1.426   .     S
C592   C1221   1.426   1_554 S
Cu593  O615    1.955   .     S
Cu593  O618    1.940   .     S
Cu593  O611    1.963   .     S
Cu593  N609    2.038   .     S
Cu593  O614    1.961   .     S
Cu594  O617    1.940   .     S
Cu594  O616    1.955   .     S
Cu594  O613    1.961   .     S
Cu594  N610    2.038   .     S
Cu594  O612    1.963   .     S
Cu594  Cu453   2.712   1_655 S
H599   C444    1.078   1_655 S
O613   C421    1.301   1_655 S
O616   C438    1.309   1_655 S
C619   H620    1.081   .     S
C619   O621    1.220   .     D
C622   H623    1.081   .     S
C622   O624    1.220   .     D
C625   H626    1.072   .     S
C625   O627    1.221   .     D
C628   O630    1.221   .     D
C628   H629    1.072   .     S
C631   O681    1.302   .     A
C631   C642    1.450   .     S
C631   O823    1.301   1_455 S
C632   O682    1.302   .     A
C632   C641    1.450   .     S
C632   O754    1.301   .     S
C633   C635    1.386   .     A
C633   H673    1.076   .     S
C633   C662    1.417   .     A
C634   C636    1.386   .     A
C634   C661    1.417   .     A
C634   H674    1.076   .     S
C635   H665    1.084   .     S
C636   H666    1.084   .     S
C636   C30     1.390   1_556 S
C637   H675    1.083   .     S
C637   C1059   1.384   1_545 S
C637   C712    1.401   .     S
C638   H676    1.083   .     S
C638   C850    1.384   .     S
C638   C781    1.401   1_455 S
C639   C641    1.400   .     A
C639   H677    1.083   .     S
C639   C847    1.384   .     S
C640   H678    1.083   .     S
C640   C642    1.400   .     A
C640   C1058   1.384   1_545 S
C641   C708    1.401   .     S
C642   C777    1.401   1_455 S
C643   C689    1.476   .     S
C643   C645    1.433   .     A
C643   N680    1.372   .     A
C644   C646    1.433   .     A
C644   C692    1.476   .     S
C644   N679    1.372   .     A
C645   C695    1.488   .     S
C645   N679    1.381   .     A
C646   C698    1.488   .     S
C646   N680    1.382   .     A
C647   C649    1.470   .     S
C647   O687    1.304   .     A
C647   O755    1.309   .     S
C648   C650    1.469   .     S
C648   O688    1.303   .     A
C648   O826    1.309   1_455 S
C649   C653    1.398   .     A
C649   C655    1.400   .     A
C650   C654    1.397   .     A
C650   C656    1.400   .     A
C651   C659    1.403   .     A
C651   H671    1.083   .     S
C651   C653    1.391   .     A
C652   H672    1.083   .     S
C652   C654    1.391   .     A
C652   C660    1.403   .     A
C653   H740    1.080   .     S
C654   H809    1.078   1_455 S
C655   H668    1.074   .     S
C655   C657    1.407   .     A
C656   H667    1.075   .     S
C656   C658    1.407   .     A
C657   C659    1.418   .     A
C657   C661    1.427   .     A
C658   C660    1.418   .     A
C658   C662    1.427   .     A
C659   C5      1.390   1_556 S
C661   C32     1.426   1_556 S
Cu663  O685    1.955   .     S
Cu663  O688    1.940   .     S
Cu663  O681    1.963   .     S
Cu663  N679    2.038   .     S
Cu663  O684    1.961   .     S
Cu663  Cu804   2.712   1_455 S
Cu664  O687    1.940   .     S
Cu664  O686    1.955   .     S
Cu664  O683    1.961   .     S
Cu664  N680    2.038   .     S
Cu664  O682    1.963   .     S
Cu664  Cu733   2.712   .     S
H669   C724    1.078   .     S
H670   C793    1.080   1_455 S
O683   C701    1.301   .     S
O684   C772    1.301   1_455 S
O685   C787    1.309   1_455 S
O686   C718    1.309   .     S
C689   H690    1.081   .     S
C689   O691    1.220   .     D
C692   H693    1.081   .     S
C692   O694    1.220   .     D
C695   H696    1.072   .     S
C695   O697    1.221   .     D
C698   O700    1.221   .     D
C698   H699    1.072   .     S
C701   O751    1.302   .     A
C701   C712    1.450   .     S
C702   O752    1.302   .     A
C702   C711    1.450   .     S
C702   O824    1.301   .     S
C703   C705    1.386   .     A
C703   H743    1.076   .     S
C703   C732    1.417   .     A
C704   C706    1.386   .     A
C704   C731    1.417   .     A
C704   H744    1.076   .     S
C705   H735    1.084   .     S
C706   H736    1.084   .     S
C706   C100    1.390   1_556 S
C707   H745    1.083   .     S
C707   C1129   1.384   1_545 S
C707   C782    1.401   .     S
C708   H746    1.083   .     S
C708   C920    1.384   .     S
C709   C711    1.400   .     A
C709   H747    1.083   .     S
C709   C917    1.384   .     S
C710   H748    1.083   .     S
C710   C712    1.400   .     A
C710   C1128   1.384   1_545 S
C711   C778    1.401   .     S
C713   C759    1.476   .     S
C713   C715    1.433   .     A
C713   N750    1.372   .     A
C714   C716    1.433   .     A
C714   C762    1.476   .     S
C714   N749    1.372   .     A
C715   C765    1.488   .     S
C715   N749    1.381   .     A
C716   C768    1.488   .     S
C716   N750    1.382   .     A
C717   C719    1.470   .     S
C717   O757    1.304   .     A
C717   O825    1.309   .     S
C718   C720    1.469   .     S
C718   O758    1.303   .     A
C719   C723    1.398   .     A
C719   C725    1.400   .     A
C720   C724    1.397   .     A
C720   C726    1.400   .     A
C721   C729    1.403   .     A
C721   H741    1.083   .     S
C721   C723    1.391   .     A
C722   H742    1.083   .     S
C722   C724    1.391   .     A
C722   C730    1.403   .     A
C723   H810    1.080   .     S
C725   H738    1.074   .     S
C725   C727    1.407   .     A
C726   H737    1.075   .     S
C726   C728    1.407   .     A
C727   C729    1.418   .     A
C727   C731    1.427   .     A
C728   C730    1.418   .     A
C728   C732    1.427   .     A
C729   C75     1.390   1_556 S
C731   C102    1.426   1_556 S
Cu733  O755    1.955   .     S
Cu733  O758    1.940   .     S
Cu733  O751    1.963   .     S
Cu733  N749    2.038   .     S
Cu733  O754    1.961   .     S
Cu734  O757    1.940   .     S
Cu734  O756    1.955   .     S
Cu734  O753    1.961   .     S
Cu734  N750    2.038   .     S
Cu734  O752    1.963   .     S
Cu734  Cu803   2.712   .     S
H739   C794    1.078   .     S
O753   C771    1.301   .     S
O756   C788    1.309   .     S
C759   H760    1.081   .     S
C759   O761    1.220   .     D
C762   H763    1.081   .     S
C762   O764    1.220   .     D
C765   H766    1.072   .     S
C765   O767    1.221   .     D
C768   O770    1.221   .     D
C768   H769    1.072   .     S
C771   O821    1.302   .     A
C771   C782    1.450   .     S
C772   O822    1.302   .     A
C772   C781    1.450   .     S
C772   O684    1.301   1_655 S
C773   C775    1.386   .     A
C773   H813    1.076   .     S
C773   C802    1.417   .     A
C774   C776    1.386   .     A
C774   C801    1.417   .     A
C774   H814    1.076   .     S
C775   H805    1.084   .     S
C776   H806    1.084   .     S
C776   C170    1.390   1_556 S
C777   H815    1.083   .     S
C777   C1199   1.384   1_545 S
C777   C642    1.401   1_655 S
C778   H816    1.083   .     S
C778   C990    1.384   .     S
C779   C781    1.400   .     A
C779   H817    1.083   .     S
C779   C987    1.384   .     S
C780   H818    1.083   .     S
C780   C782    1.400   .     A
C780   C1198   1.384   1_545 S
C781   C638    1.401   1_655 S
C783   C829    1.476   .     S
C783   C785    1.433   .     A
C783   N820    1.372   .     A
C784   C786    1.433   .     A
C784   C832    1.476   .     S
C784   N819    1.372   .     A
C785   C835    1.488   .     S
C785   N819    1.381   .     A
C786   C838    1.488   .     S
C786   N820    1.382   .     A
C787   C789    1.470   .     S
C787   O827    1.304   .     A
C787   O685    1.309   1_655 S
C788   C790    1.469   .     S
C788   O828    1.303   .     A
C789   C793    1.398   .     A
C789   C795    1.400   .     A
C790   C794    1.397   .     A
C790   C796    1.400   .     A
C791   C799    1.403   .     A
C791   H811    1.083   .     S
C791   C793    1.391   .     A
C792   H812    1.083   .     S
C792   C794    1.391   .     A
C792   C800    1.403   .     A
C793   H670    1.080   1_655 S
C795   H808    1.074   .     S
C795   C797    1.407   .     A
C796   H807    1.075   .     S
C796   C798    1.407   .     A
C797   C799    1.418   .     A
C797   C801    1.427   .     A
C798   C800    1.418   .     A
C798   C802    1.427   .     A
C799   C145    1.390   1_556 S
C801   C172    1.426   1_556 S
Cu803  O825    1.955   .     S
Cu803  O828    1.940   .     S
Cu803  O821    1.963   .     S
Cu803  N819    2.038   .     S
Cu803  O824    1.961   .     S
Cu804  O827    1.940   .     S
Cu804  O826    1.955   .     S
Cu804  O823    1.961   .     S
Cu804  N820    2.038   .     S
Cu804  O822    1.963   .     S
Cu804  Cu663   2.712   1_655 S
H809   C654    1.078   1_655 S
O823   C631    1.301   1_655 S
O826   C648    1.309   1_655 S
C829   H830    1.081   .     S
C829   O831    1.220   .     D
C832   H833    1.081   .     S
C832   O834    1.220   .     D
C835   H836    1.072   .     S
C835   O837    1.221   .     D
C838   O840    1.221   .     D
C838   H839    1.072   .     S
C841   O891    1.302   .     A
C841   C852    1.450   .     S
C841   O1033   1.301   1_455 S
C842   O892    1.302   .     A
C842   C851    1.450   .     S
C842   O964    1.301   .     S
C843   C845    1.386   .     A
C843   H883    1.076   .     S
C843   C872    1.417   .     A
C844   C846    1.386   .     A
C844   C871    1.417   .     A
C844   H884    1.076   .     S
C845   H875    1.084   .     S
C846   H876    1.084   .     S
C846   C240    1.390   1_556 S
C847   H885    1.083   .     S
C847   C922    1.401   .     S
C848   H886    1.083   .     S
C848   C1060   1.384   .     S
C848   C991    1.401   1_455 S
C849   C851    1.400   .     A
C849   H887    1.083   .     S
C849   C1057   1.384   .     S
C850   H888    1.083   .     S
C850   C852    1.400   .     A
C851   C918    1.401   .     S
C852   C987    1.401   1_455 S
C853   C899    1.476   .     S
C853   C855    1.433   .     A
C853   N890    1.372   .     A
C854   C856    1.433   .     A
C854   C902    1.476   .     S
C854   N889    1.372   .     A
C855   C905    1.488   .     S
C855   N889    1.381   .     A
C856   C908    1.488   .     S
C856   N890    1.382   .     A
C857   C859    1.470   .     S
C857   O897    1.304   .     A
C857   O965    1.309   .     S
C858   C860    1.469   .     S
C858   O898    1.303   .     A
C858   O1036   1.309   1_455 S
C859   C863    1.398   .     A
C859   C865    1.400   .     A
C860   C864    1.397   .     A
C860   C866    1.400   .     A
C861   C869    1.403   .     A
C861   H881    1.083   .     S
C861   C863    1.391   .     A
C862   H882    1.083   .     S
C862   C864    1.391   .     A
C862   C870    1.403   .     A
C863   H950    1.080   .     S
C864   H1019   1.078   1_455 S
C865   H878    1.074   .     S
C865   C867    1.407   .     A
C866   H877    1.075   .     S
C866   C868    1.407   .     A
C867   C869    1.418   .     A
C867   C871    1.427   .     A
C868   C870    1.418   .     A
C868   C872    1.427   .     A
C869   C215    1.390   1_556 S
C871   C242    1.426   1_556 S
Cu873  O895    1.955   .     S
Cu873  O898    1.940   .     S
Cu873  O891    1.963   .     S
Cu873  N889    2.038   .     S
Cu873  O894    1.961   .     S
Cu873  Cu1014  2.712   1_455 S
Cu874  O897    1.940   .     S
Cu874  O896    1.955   .     S
Cu874  O893    1.961   .     S
Cu874  N890    2.038   .     S
Cu874  O892    1.963   .     S
Cu874  Cu943   2.712   .     S
H879   C934    1.078   .     S
H880   C1003   1.080   1_455 S
O893   C911    1.301   .     S
O894   C982    1.301   1_455 S
O895   C997    1.309   1_455 S
O896   C928    1.309   .     S
C899   H900    1.081   .     S
C899   O901    1.220   .     D
C902   H903    1.081   .     S
C902   O904    1.220   .     D
C905   H906    1.072   .     S
C905   O907    1.221   .     D
C908   O910    1.221   .     D
C908   H909    1.072   .     S
C911   O961    1.302   .     A
C911   C922    1.450   .     S
C912   O962    1.302   .     A
C912   C921    1.450   .     S
C912   O1034   1.301   .     S
C913   C915    1.386   .     A
C913   H953    1.076   .     S
C913   C942    1.417   .     A
C914   C916    1.386   .     A
C914   C941    1.417   .     A
C914   H954    1.076   .     S
C915   H945    1.084   .     S
C916   H946    1.084   .     S
C916   C310    1.390   1_556 S
C917   H955    1.083   .     S
C917   C992    1.401   .     S
C918   H956    1.083   .     S
C918   C1130   1.384   .     S
C919   C921    1.400   .     A
C919   H957    1.083   .     S
C919   C1127   1.384   .     S
C920   H958    1.083   .     S
C920   C922    1.400   .     A
C921   C988    1.401   .     S
C923   C969    1.476   .     S
C923   C925    1.433   .     A
C923   N960    1.372   .     A
C924   C926    1.433   .     A
C924   C972    1.476   .     S
C924   N959    1.372   .     A
C925   C975    1.488   .     S
C925   N959    1.381   .     A
C926   C978    1.488   .     S
C926   N960    1.382   .     A
C927   C929    1.470   .     S
C927   O967    1.304   .     A
C927   O1035   1.309   .     S
C928   C930    1.469   .     S
C928   O968    1.303   .     A
C929   C933    1.398   .     A
C929   C935    1.400   .     A
C930   C934    1.397   .     A
C930   C936    1.400   .     A
C931   C939    1.403   .     A
C931   H951    1.083   .     S
C931   C933    1.391   .     A
C932   H952    1.083   .     S
C932   C934    1.391   .     A
C932   C940    1.403   .     A
C933   H1020   1.080   .     S
C935   H948    1.074   .     S
C935   C937    1.407   .     A
C936   H947    1.075   .     S
C936   C938    1.407   .     A
C937   C939    1.418   .     A
C937   C941    1.427   .     A
C938   C940    1.418   .     A
C938   C942    1.427   .     A
C939   C285    1.390   1_556 S
C941   C312    1.426   1_556 S
Cu943  O965    1.955   .     S
Cu943  O968    1.940   .     S
Cu943  O961    1.963   .     S
Cu943  N959    2.038   .     S
Cu943  O964    1.961   .     S
Cu944  O967    1.940   .     S
Cu944  O966    1.955   .     S
Cu944  O963    1.961   .     S
Cu944  N960    2.038   .     S
Cu944  O962    1.963   .     S
Cu944  Cu1013  2.712   .     S
H949   C1004   1.078   .     S
O963   C981    1.301   .     S
O966   C998    1.309   .     S
C969   H970    1.081   .     S
C969   O971    1.220   .     D
C972   H973    1.081   .     S
C972   O974    1.220   .     D
C975   H976    1.072   .     S
C975   O977    1.221   .     D
C978   O980    1.221   .     D
C978   H979    1.072   .     S
C981   O1031   1.302   .     A
C981   C992    1.450   .     S
C982   O1032   1.302   .     A
C982   C991    1.450   .     S
C982   O894    1.301   1_655 S
C983   C985    1.386   .     A
C983   H1023   1.076   .     S
C983   C1012   1.417   .     A
C984   C986    1.386   .     A
C984   C1011   1.417   .     A
C984   H1024   1.076   .     S
C985   H1015   1.084   .     S
C986   H1016   1.084   .     S
C986   C380    1.390   1_556 S
C987   H1025   1.083   .     S
C987   C852    1.401   1_655 S
C988   H1026   1.083   .     S
C988   C1200   1.384   .     S
C989   C991    1.400   .     A
C989   H1027   1.083   .     S
C989   C1197   1.384   .     S
C990   H1028   1.083   .     S
C990   C992    1.400   .     A
C991   C848    1.401   1_655 S
C993   C1039   1.476   .     S
C993   C995    1.433   .     A
C993   N1030   1.372   .     A
C994   C996    1.433   .     A
C994   C1042   1.476   .     S
C994   N1029   1.372   .     A
C995   C1045   1.488   .     S
C995   N1029   1.381   .     A
C996   C1048   1.488   .     S
C996   N1030   1.382   .     A
C997   C999    1.470   .     S
C997   O1037   1.304   .     A
C997   O895    1.309   1_655 S
C998   C1000   1.469   .     S
C998   O1038   1.303   .     A
C999   C1003   1.398   .     A
C999   C1005   1.400   .     A
C1000  C1004   1.397   .     A
C1000  C1006   1.400   .     A
C1001  C1009   1.403   .     A
C1001  H1021   1.083   .     S
C1001  C1003   1.391   .     A
C1002  H1022   1.083   .     S
C1002  C1004   1.391   .     A
C1002  C1010   1.403   .     A
C1003  H880    1.080   1_655 S
C1005  H1018   1.074   .     S
C1005  C1007   1.407   .     A
C1006  H1017   1.075   .     S
C1006  C1008   1.407   .     A
C1007  C1009   1.418   .     A
C1007  C1011   1.427   .     A
C1008  C1010   1.418   .     A
C1008  C1012   1.427   .     A
C1009  C355    1.390   1_556 S
C1011  C382    1.426   1_556 S
Cu1013 O1035   1.955   .     S
Cu1013 O1038   1.940   .     S
Cu1013 O1031   1.963   .     S
Cu1013 N1029   2.038   .     S
Cu1013 O1034   1.961   .     S
Cu1014 O1037   1.940   .     S
Cu1014 O1036   1.955   .     S
Cu1014 O1033   1.961   .     S
Cu1014 N1030   2.038   .     S
Cu1014 O1032   1.963   .     S
Cu1014 Cu873   2.712   1_655 S
H1019  C864    1.078   1_655 S
O1033  C841    1.301   1_655 S
O1036  C858    1.309   1_655 S
C1039  H1040   1.081   .     S
C1039  O1041   1.220   .     D
C1042  H1043   1.081   .     S
C1042  O1044   1.220   .     D
C1045  H1046   1.072   .     S
C1045  O1047   1.221   .     D
C1048  O1050   1.221   .     D
C1048  H1049   1.072   .     S
C1051  O1101   1.302   .     A
C1051  C1062   1.450   .     S
C1051  O1243   1.301   1_455 S
C1052  O1102   1.302   .     A
C1052  C1061   1.450   .     S
C1052  O1174   1.301   .     S
C1053  C1055   1.386   .     A
C1053  H1093   1.076   .     S
C1053  C1082   1.417   .     A
C1054  C1056   1.386   .     A
C1054  C1081   1.417   .     A
C1054  H1094   1.076   .     S
C1055  H1085   1.084   .     S
C1056  H1086   1.084   .     S
C1056  C450    1.390   1_556 S
C1057  H1095   1.083   .     S
C1057  C1132   1.401   .     S
C1058  H1096   1.083   .     S
C1058  C640    1.384   1_565 S
C1058  C1201   1.401   1_455 S
C1059  C1061   1.400   .     A
C1059  H1097   1.083   .     S
C1059  C637    1.384   1_565 S
C1060  H1098   1.083   .     S
C1060  C1062   1.400   .     A
C1061  C1128   1.401   .     S
C1062  C1197   1.401   1_455 S
C1063  C1109   1.476   .     S
C1063  C1065   1.433   .     A
C1063  N1100   1.372   .     A
C1064  C1066   1.433   .     A
C1064  C1112   1.476   .     S
C1064  N1099   1.372   .     A
C1065  C1115   1.488   .     S
C1065  N1099   1.381   .     A
C1066  C1118   1.488   .     S
C1066  N1100   1.382   .     A
C1067  C1069   1.470   .     S
C1067  O1107   1.304   .     A
C1067  O1175   1.309   .     S
C1068  C1070   1.469   .     S
C1068  O1108   1.303   .     A
C1068  O1246   1.309   1_455 S
C1069  C1073   1.398   .     A
C1069  C1075   1.400   .     A
C1070  C1074   1.397   .     A
C1070  C1076   1.400   .     A
C1071  C1079   1.403   .     A
C1071  H1091   1.083   .     S
C1071  C1073   1.391   .     A
C1072  H1092   1.083   .     S
C1072  C1074   1.391   .     A
C1072  C1080   1.403   .     A
C1073  H1160   1.080   .     S
C1074  H1229   1.078   1_455 S
C1075  H1088   1.074   .     S
C1075  C1077   1.407   .     A
C1076  H1087   1.075   .     S
C1076  C1078   1.407   .     A
C1077  C1079   1.418   .     A
C1077  C1081   1.427   .     A
C1078  C1080   1.418   .     A
C1078  C1082   1.427   .     A
C1079  C425    1.390   1_556 S
C1081  C452    1.426   1_556 S
Cu1083 O1105   1.955   .     S
Cu1083 O1108   1.940   .     S
Cu1083 O1101   1.963   .     S
Cu1083 N1099   2.038   .     S
Cu1083 O1104   1.961   .     S
Cu1083 Cu1224  2.712   1_455 S
Cu1084 O1107   1.940   .     S
Cu1084 O1106   1.955   .     S
Cu1084 O1103   1.961   .     S
Cu1084 N1100   2.038   .     S
Cu1084 O1102   1.963   .     S
Cu1084 Cu1153  2.712   .     S
H1089  C1144   1.078   .     S
H1090  C1213   1.080   1_455 S
O1103  C1121   1.301   .     S
O1104  C1192   1.301   1_455 S
O1105  C1207   1.309   1_455 S
O1106  C1138   1.309   .     S
C1109  H1110   1.081   .     S
C1109  O1111   1.220   .     D
C1112  H1113   1.081   .     S
C1112  O1114   1.220   .     D
C1115  H1116   1.072   .     S
C1115  O1117   1.221   .     D
C1118  O1120   1.221   .     D
C1118  H1119   1.072   .     S
C1121  O1171   1.302   .     A
C1121  C1132   1.450   .     S
C1122  O1172   1.302   .     A
C1122  C1131   1.450   .     S
C1122  O1244   1.301   .     S
C1123  C1125   1.386   .     A
C1123  H1163   1.076   .     S
C1123  C1152   1.417   .     A
C1124  C1126   1.386   .     A
C1124  C1151   1.417   .     A
C1124  H1164   1.076   .     S
C1125  H1155   1.084   .     S
C1126  H1156   1.084   .     S
C1126  C520    1.390   1_556 S
C1127  H1165   1.083   .     S
C1127  C1202   1.401   .     S
C1128  H1166   1.083   .     S
C1128  C710    1.384   1_565 S
C1129  C1131   1.400   .     A
C1129  H1167   1.083   .     S
C1129  C707    1.384   1_565 S
C1130  H1168   1.083   .     S
C1130  C1132   1.400   .     A
C1131  C1198   1.401   .     S
C1133  C1179   1.476   .     S
C1133  C1135   1.433   .     A
C1133  N1170   1.372   .     A
C1134  C1136   1.433   .     A
C1134  C1182   1.476   .     S
C1134  N1169   1.372   .     A
C1135  C1185   1.488   .     S
C1135  N1169   1.381   .     A
C1136  C1188   1.488   .     S
C1136  N1170   1.382   .     A
C1137  C1139   1.470   .     S
C1137  O1177   1.304   .     A
C1137  O1245   1.309   .     S
C1138  C1140   1.469   .     S
C1138  O1178   1.303   .     A
C1139  C1143   1.398   .     A
C1139  C1145   1.400   .     A
C1140  C1144   1.397   .     A
C1140  C1146   1.400   .     A
C1141  C1149   1.403   .     A
C1141  H1161   1.083   .     S
C1141  C1143   1.391   .     A
C1142  H1162   1.083   .     S
C1142  C1144   1.391   .     A
C1142  C1150   1.403   .     A
C1143  H1230   1.080   .     S
C1145  H1158   1.074   .     S
C1145  C1147   1.407   .     A
C1146  H1157   1.075   .     S
C1146  C1148   1.407   .     A
C1147  C1149   1.418   .     A
C1147  C1151   1.427   .     A
C1148  C1150   1.418   .     A
C1148  C1152   1.427   .     A
C1149  C495    1.390   1_556 S
C1151  C522    1.426   1_556 S
Cu1153 O1175   1.955   .     S
Cu1153 O1178   1.940   .     S
Cu1153 O1171   1.963   .     S
Cu1153 N1169   2.038   .     S
Cu1153 O1174   1.961   .     S
Cu1154 O1177   1.940   .     S
Cu1154 O1176   1.955   .     S
Cu1154 O1173   1.961   .     S
Cu1154 N1170   2.038   .     S
Cu1154 O1172   1.963   .     S
Cu1154 Cu1223  2.712   .     S
H1159  C1214   1.078   .     S
O1173  C1191   1.301   .     S
O1176  C1208   1.309   .     S
C1179  H1180   1.081   .     S
C1179  O1181   1.220   .     D
C1182  H1183   1.081   .     S
C1182  O1184   1.220   .     D
C1185  H1186   1.072   .     S
C1185  O1187   1.221   .     D
C1188  O1190   1.221   .     D
C1188  H1189   1.072   .     S
C1191  O1241   1.302   .     A
C1191  C1202   1.450   .     S
C1192  O1242   1.302   .     A
C1192  C1201   1.450   .     S
C1192  O1104   1.301   1_655 S
C1193  C1195   1.386   .     A
C1193  H1233   1.076   .     S
C1193  C1222   1.417   .     A
C1194  C1196   1.386   .     A
C1194  C1221   1.417   .     A
C1194  H1234   1.076   .     S
C1195  H1225   1.084   .     S
C1196  H1226   1.084   .     S
C1196  C590    1.390   1_556 S
C1197  H1235   1.083   .     S
C1197  C1062   1.401   1_655 S
C1198  H1236   1.083   .     S
C1198  C780    1.384   1_565 S
C1199  C1201   1.400   .     A
C1199  H1237   1.083   .     S
C1199  C777    1.384   1_565 S
C1200  H1238   1.083   .     S
C1200  C1202   1.400   .     A
C1201  C1058   1.401   1_655 S
C1203  C1249   1.476   .     S
C1203  C1205   1.433   .     A
C1203  N1240   1.372   .     A
C1204  C1206   1.433   .     A
C1204  C1252   1.476   .     S
C1204  N1239   1.372   .     A
C1205  C1255   1.488   .     S
C1205  N1239   1.381   .     A
C1206  C1258   1.488   .     S
C1206  N1240   1.382   .     A
C1207  C1209   1.470   .     S
C1207  O1247   1.304   .     A
C1207  O1105   1.309   1_655 S
C1208  C1210   1.469   .     S
C1208  O1248   1.303   .     A
C1209  C1213   1.398   .     A
C1209  C1215   1.400   .     A
C1210  C1214   1.397   .     A
C1210  C1216   1.400   .     A
C1211  C1219   1.403   .     A
C1211  H1231   1.083   .     S
C1211  C1213   1.391   .     A
C1212  H1232   1.083   .     S
C1212  C1214   1.391   .     A
C1212  C1220   1.403   .     A
C1213  H1090   1.080   1_655 S
C1215  H1228   1.074   .     S
C1215  C1217   1.407   .     A
C1216  H1227   1.075   .     S
C1216  C1218   1.407   .     A
C1217  C1219   1.418   .     A
C1217  C1221   1.427   .     A
C1218  C1220   1.418   .     A
C1218  C1222   1.427   .     A
C1219  C565    1.390   1_556 S
C1221  C592    1.426   1_556 S
Cu1223 O1245   1.955   .     S
Cu1223 O1248   1.940   .     S
Cu1223 O1241   1.963   .     S
Cu1223 N1239   2.038   .     S
Cu1223 O1244   1.961   .     S
Cu1224 O1247   1.940   .     S
Cu1224 O1246   1.955   .     S
Cu1224 O1243   1.961   .     S
Cu1224 N1240   2.038   .     S
Cu1224 O1242   1.963   .     S
Cu1224 Cu1083  2.712   1_655 S
H1229  C1074   1.078   1_655 S
O1243  C1051   1.301   1_655 S
O1246  C1068   1.309   1_655 S
C1249  H1250   1.081   .     S
C1249  O1251   1.220   .     D
C1252  H1253   1.081   .     S
C1252  O1254   1.220   .     D
C1255  H1256   1.072   .     S
C1255  O1257   1.221   .     D
C1258  O1260   1.221   .     D
C1258  H1259   1.072   .     S
