data_str_m2_o10_o16_pcu_sym.39
_audit_creation_date              2020-01-03
_audit_creation_method            'Materials Studio'
_symmetry_space_group_name_H-M    'P1'
_symmetry_Int_Tables_number       1
_symmetry_cell_setting            triclinic
loop_
_symmetry_equiv_pos_as_xyz
  x,y,z
_cell_length_a                    22.3578
_cell_length_b                    26.2393
_cell_length_c                    26.9395
_cell_angle_alpha                 94.9077
_cell_angle_beta                  78.4982
_cell_angle_gamma                 102.6247
loop_
_atom_site_label
_atom_site_type_symbol
_atom_site_fract_x
_atom_site_fract_y
_atom_site_fract_z
_atom_site_U_iso_or_equiv
_atom_site_adp_type
_atom_site_occupancy
C1     C     0.18078   0.26649   0.25378   0.00000  Uiso   1.00
C2     C     0.11641   0.15029   0.39978   0.00000  Uiso   1.00
C3     C     0.18699   0.32219   0.26091   0.00000  Uiso   1.00
C4     C     0.13376   0.16354   0.34666   0.00000  Uiso   1.00
C5     C     0.14474   0.01096   0.24700   0.00000  Uiso   1.00
C6     C     0.15178   0.06671   0.24878   0.00000  Uiso   1.00
C7     C     0.19952   0.16938   0.15326   0.00000  Uiso   1.00
C8     C     0.27399   0.24266   0.03704   0.00000  Uiso   1.00
C9     C     0.21788   0.17954   0.09939   0.00000  Uiso   1.00
C10    C     0.07230   0.10418   0.41117   0.00000  Uiso   1.00
C11    C     0.07538   0.07530   0.45093   0.00000  Uiso   1.00
C12    C     0.15647   0.14480   0.47711   0.00000  Uiso   1.00
C13    C     0.12044   0.09351   0.48079   0.00000  Uiso   1.00
C14    C     0.04136   0.29071   0.03216   0.00000  Uiso   1.00
C15    C     0.07844   0.27055   0.48372   0.00000  Uiso   1.00
C16    C     0.07414   0.11605   0.09474   0.00000  Uiso   1.00
C17    C     0.06178   0.17077   0.09034   0.00000  Uiso   1.00
C18    C     0.23328   0.00749   0.33139   0.00000  Uiso   1.00
C19    C     0.24402   0.05868   0.36256   0.00000  Uiso   1.00
C20    C     0.15719   0.17208   0.43379   0.00000  Uiso   1.00
C21    C     0.19239   0.16955   0.01422   0.00000  Uiso   1.00
C22    C     0.23667   0.21710   0.00220   0.00000  Uiso   1.00
C23    C     0.24104   0.24033   0.45642   0.00000  Uiso   1.00
C24    C     0.20016   0.21956   0.42405   0.00000  Uiso   1.00
C25    C     0.18161   0.15217   0.06463   0.00000  Uiso   1.00
C26    C     0.26275   0.22416   0.08571   0.00000  Uiso   1.00
Cu27   Cu    0.10710   0.16105   0.24436   0.00000  Uiso   1.00
Cu28   Cu    0.22623   0.17228   0.25565   0.00000  Uiso   1.00
H29    H     0.10431   0.32093   0.23324   0.00000  Uiso   1.00
H30    H     0.06391   0.33139   0.04078   0.00000  Uiso   1.00
H31    H     0.07623   0.29189   0.45059   0.00000  Uiso   1.00
H32    H     0.12775   0.27637   0.48802   0.00000  Uiso   1.00
H33    H     0.05956   0.22832   0.47689   0.00000  Uiso   1.00
H34    H     0.05598   0.10415   0.13429   0.00000  Uiso   1.00
H35    H     0.04458   0.08795   0.07190   0.00000  Uiso   1.00
H36    H     0.01267   0.17087   0.10796   0.00000  Uiso   1.00
H37    H     0.09179   0.20161   0.11037   0.00000  Uiso   1.00
H38    H     0.06838   0.18001   0.05003   0.00000  Uiso   1.00
H39    H     0.20176   0.24174   0.39163   0.00000  Uiso   1.00
H40    H     0.00409   0.20694   0.28897   0.00000  Uiso   1.00
H41    H     0.27020   0.31932   0.33379   0.00000  Uiso   1.00
H42    H     0.18734   0.31696   0.34913   0.00000  Uiso   1.00
H43    H     0.20439   0.07829   0.36446   0.00000  Uiso   1.00
H44    H     0.24741   0.05096   0.40171   0.00000  Uiso   1.00
H45    H     0.28770   0.08495   0.34487   0.00000  Uiso   1.00
H46    H     0.27366   0.27671   0.44671   0.00000  Uiso   1.00
H47    H     0.04151   0.08670   0.38527   0.00000  Uiso   1.00
H48    H     0.12799   0.06643   0.00536   0.00000  Uiso   1.00
H49    H     0.04517   0.03727   0.45654   0.00000  Uiso   1.00
H50    H     0.28568   0.24722   0.11454   0.00000  Uiso   1.00
H51    H     0.32882   0.12606   0.21156   0.00000  Uiso   1.00
H52    H     0.04445   0.26862   0.06456   0.00000  Uiso   1.00
N53    N     0.31574   0.18074   0.26416   0.00000  Uiso   1.00
N54    N     0.01759   0.15259   0.23584   0.00000  Uiso   1.00
O55    O     0.12797   0.23807   0.24633   0.00000  Uiso   1.00
O56    O     0.13685   0.10829   0.08118   0.00000  Uiso   1.00
O57    O     0.23771   0.01845   0.28002   0.00000  Uiso   1.00
O58    O     0.22858   0.24755   0.25587   0.00000  Uiso   1.00
O59    O     0.09181   0.15960   0.31839   0.00000  Uiso   1.00
O60    O     0.19242   0.16908   0.32793   0.00000  Uiso   1.00
O61    O     0.10476   0.08578   0.24413   0.00000  Uiso   1.00
O62    O     0.20536   0.09526   0.25367   0.00000  Uiso   1.00
O63    O     0.14092   0.16425   0.17207   0.00000  Uiso   1.00
O64    O     0.24152   0.17373   0.18161   0.00000  Uiso   1.00
O65    O     0.31328   0.29073   0.02608   0.00000  Uiso   1.00
C66    C     0.51411   0.26649   0.25378   0.00000  Uiso   1.00
C67    C     0.44974   0.15029   0.39978   0.00000  Uiso   1.00
C68    C     0.52032   0.32219   0.26091   0.00000  Uiso   1.00
C69    C     0.46709   0.16354   0.34666   0.00000  Uiso   1.00
C70    C     0.47807   0.01096   0.24700   0.00000  Uiso   1.00
C71    C     0.48511   0.06671   0.24878   0.00000  Uiso   1.00
C72    C     0.53285   0.16938   0.15326   0.00000  Uiso   1.00
C73    C     0.60732   0.24266   0.03704   0.00000  Uiso   1.00
C74    C     0.55121   0.17954   0.09939   0.00000  Uiso   1.00
C75    C     0.40564   0.10418   0.41117   0.00000  Uiso   1.00
C76    C     0.40872   0.07530   0.45093   0.00000  Uiso   1.00
C77    C     0.48980   0.14480   0.47711   0.00000  Uiso   1.00
C78    C     0.45378   0.09351   0.48079   0.00000  Uiso   1.00
C79    C     0.37469   0.29071   0.03216   0.00000  Uiso   1.00
C80    C     0.41177   0.27055   0.48372   0.00000  Uiso   1.00
C81    C     0.40747   0.11605   0.09474   0.00000  Uiso   1.00
C82    C     0.39511   0.17077   0.09034   0.00000  Uiso   1.00
C83    C     0.56662   0.00749   0.33139   0.00000  Uiso   1.00
C84    C     0.57736   0.05868   0.36256   0.00000  Uiso   1.00
C85    C     0.49053   0.17208   0.43379   0.00000  Uiso   1.00
C86    C     0.52572   0.16955   0.01422   0.00000  Uiso   1.00
C87    C     0.57000   0.21710   0.00220   0.00000  Uiso   1.00
C88    C     0.57437   0.24033   0.45642   0.00000  Uiso   1.00
C89    C     0.53349   0.21956   0.42405   0.00000  Uiso   1.00
C90    C     0.51495   0.15217   0.06463   0.00000  Uiso   1.00
C91    C     0.59609   0.22416   0.08571   0.00000  Uiso   1.00
Cu92   Cu    0.44043   0.16105   0.24436   0.00000  Uiso   1.00
Cu93   Cu    0.55957   0.17228   0.25565   0.00000  Uiso   1.00
H94    H     0.43764   0.32093   0.23324   0.00000  Uiso   1.00
H95    H     0.39725   0.33139   0.04078   0.00000  Uiso   1.00
H96    H     0.40957   0.29189   0.45059   0.00000  Uiso   1.00
H97    H     0.46108   0.27637   0.48802   0.00000  Uiso   1.00
H98    H     0.39290   0.22832   0.47689   0.00000  Uiso   1.00
H99    H     0.38931   0.10415   0.13429   0.00000  Uiso   1.00
H100   H     0.37791   0.08795   0.07190   0.00000  Uiso   1.00
H101   H     0.34600   0.17087   0.10796   0.00000  Uiso   1.00
H102   H     0.42512   0.20161   0.11037   0.00000  Uiso   1.00
H103   H     0.40171   0.18001   0.05003   0.00000  Uiso   1.00
H104   H     0.53509   0.24174   0.39163   0.00000  Uiso   1.00
H105   H     0.33742   0.20694   0.28897   0.00000  Uiso   1.00
H106   H     0.60353   0.31932   0.33379   0.00000  Uiso   1.00
H107   H     0.52067   0.31696   0.34913   0.00000  Uiso   1.00
H108   H     0.53772   0.07829   0.36446   0.00000  Uiso   1.00
H109   H     0.58074   0.05096   0.40171   0.00000  Uiso   1.00
H110   H     0.62104   0.08495   0.34487   0.00000  Uiso   1.00
H111   H     0.60699   0.27671   0.44671   0.00000  Uiso   1.00
H112   H     0.37484   0.08670   0.38527   0.00000  Uiso   1.00
H113   H     0.46132   0.06643   0.00536   0.00000  Uiso   1.00
H114   H     0.37850   0.03727   0.45654   0.00000  Uiso   1.00
H115   H     0.61901   0.24722   0.11454   0.00000  Uiso   1.00
H116   H     0.66215   0.12606   0.21156   0.00000  Uiso   1.00
H117   H     0.37779   0.26862   0.06456   0.00000  Uiso   1.00
N118   N     0.64908   0.18074   0.26416   0.00000  Uiso   1.00
N119   N     0.35092   0.15259   0.23584   0.00000  Uiso   1.00
O120   O     0.46131   0.23807   0.24633   0.00000  Uiso   1.00
O121   O     0.47019   0.10829   0.08118   0.00000  Uiso   1.00
O122   O     0.57104   0.01845   0.28002   0.00000  Uiso   1.00
O123   O     0.56191   0.24755   0.25587   0.00000  Uiso   1.00
O124   O     0.42515   0.15960   0.31839   0.00000  Uiso   1.00
O125   O     0.52575   0.16908   0.32793   0.00000  Uiso   1.00
O126   O     0.43809   0.08578   0.24413   0.00000  Uiso   1.00
O127   O     0.53869   0.09526   0.25367   0.00000  Uiso   1.00
O128   O     0.47425   0.16425   0.17207   0.00000  Uiso   1.00
O129   O     0.57485   0.17373   0.18161   0.00000  Uiso   1.00
O130   O     0.64661   0.29073   0.02608   0.00000  Uiso   1.00
C131   C     0.84744   0.26649   0.25378   0.00000  Uiso   1.00
C132   C     0.78307   0.15029   0.39978   0.00000  Uiso   1.00
C133   C     0.85366   0.32219   0.26091   0.00000  Uiso   1.00
C134   C     0.80043   0.16354   0.34666   0.00000  Uiso   1.00
C135   C     0.81141   0.01096   0.24700   0.00000  Uiso   1.00
C136   C     0.81844   0.06671   0.24878   0.00000  Uiso   1.00
C137   C     0.86618   0.16938   0.15326   0.00000  Uiso   1.00
C138   C     0.94065   0.24266   0.03704   0.00000  Uiso   1.00
C139   C     0.88455   0.17954   0.09939   0.00000  Uiso   1.00
C140   C     0.73897   0.10418   0.41117   0.00000  Uiso   1.00
C141   C     0.74205   0.07530   0.45093   0.00000  Uiso   1.00
C142   C     0.82313   0.14480   0.47711   0.00000  Uiso   1.00
C143   C     0.78711   0.09351   0.48079   0.00000  Uiso   1.00
C144   C     0.70802   0.29071   0.03216   0.00000  Uiso   1.00
C145   C     0.74511   0.27055   0.48372   0.00000  Uiso   1.00
C146   C     0.74081   0.11605   0.09474   0.00000  Uiso   1.00
C147   C     0.72845   0.17077   0.09034   0.00000  Uiso   1.00
C148   C     0.89995   0.00749   0.33139   0.00000  Uiso   1.00
C149   C     0.91069   0.05868   0.36256   0.00000  Uiso   1.00
C150   C     0.82386   0.17208   0.43379   0.00000  Uiso   1.00
C151   C     0.85906   0.16955   0.01422   0.00000  Uiso   1.00
C152   C     0.90333   0.21710   0.00220   0.00000  Uiso   1.00
C153   C     0.90770   0.24033   0.45642   0.00000  Uiso   1.00
C154   C     0.86682   0.21956   0.42405   0.00000  Uiso   1.00
C155   C     0.84828   0.15217   0.06463   0.00000  Uiso   1.00
C156   C     0.92942   0.22416   0.08571   0.00000  Uiso   1.00
Cu157  Cu    0.77377   0.16105   0.24436   0.00000  Uiso   1.00
Cu158  Cu    0.89290   0.17228   0.25565   0.00000  Uiso   1.00
H159   H     0.77098   0.32093   0.23324   0.00000  Uiso   1.00
H160   H     0.73058   0.33139   0.04078   0.00000  Uiso   1.00
H161   H     0.74290   0.29189   0.45059   0.00000  Uiso   1.00
H162   H     0.79441   0.27637   0.48802   0.00000  Uiso   1.00
H163   H     0.72623   0.22832   0.47689   0.00000  Uiso   1.00
H164   H     0.72264   0.10415   0.13429   0.00000  Uiso   1.00
H165   H     0.71125   0.08795   0.07190   0.00000  Uiso   1.00
H166   H     0.67934   0.17087   0.10796   0.00000  Uiso   1.00
H167   H     0.75846   0.20161   0.11037   0.00000  Uiso   1.00
H168   H     0.73504   0.18001   0.05003   0.00000  Uiso   1.00
H169   H     0.86842   0.24174   0.39163   0.00000  Uiso   1.00
H170   H     0.67075   0.20694   0.28897   0.00000  Uiso   1.00
H171   H     0.93686   0.31932   0.33379   0.00000  Uiso   1.00
H172   H     0.85401   0.31696   0.34913   0.00000  Uiso   1.00
H173   H     0.87106   0.07829   0.36446   0.00000  Uiso   1.00
H174   H     0.91407   0.05096   0.40171   0.00000  Uiso   1.00
H175   H     0.95437   0.08495   0.34487   0.00000  Uiso   1.00
H176   H     0.94032   0.27671   0.44671   0.00000  Uiso   1.00
H177   H     0.70818   0.08670   0.38527   0.00000  Uiso   1.00
H178   H     0.79465   0.06643   0.00536   0.00000  Uiso   1.00
H179   H     0.71183   0.03727   0.45654   0.00000  Uiso   1.00
H180   H     0.95235   0.24722   0.11454   0.00000  Uiso   1.00
H181   H     0.99549   0.12606   0.21156   0.00000  Uiso   1.00
H182   H     0.71112   0.26862   0.06456   0.00000  Uiso   1.00
N183   N     0.98241   0.18074   0.26416   0.00000  Uiso   1.00
N184   N     0.68426   0.15259   0.23584   0.00000  Uiso   1.00
O185   O     0.79464   0.23807   0.24633   0.00000  Uiso   1.00
O186   O     0.80352   0.10829   0.08118   0.00000  Uiso   1.00
O187   O     0.90438   0.01845   0.28002   0.00000  Uiso   1.00
O188   O     0.89524   0.24755   0.25587   0.00000  Uiso   1.00
O189   O     0.75848   0.15960   0.31839   0.00000  Uiso   1.00
O190   O     0.85908   0.16908   0.32793   0.00000  Uiso   1.00
O191   O     0.77142   0.08578   0.24413   0.00000  Uiso   1.00
O192   O     0.87203   0.09526   0.25367   0.00000  Uiso   1.00
O193   O     0.80758   0.16425   0.17207   0.00000  Uiso   1.00
O194   O     0.90819   0.17373   0.18161   0.00000  Uiso   1.00
O195   O     0.97995   0.29073   0.02608   0.00000  Uiso   1.00
C196   C     0.18078   0.59982   0.25378   0.00000  Uiso   1.00
C197   C     0.11641   0.48362   0.39978   0.00000  Uiso   1.00
C198   C     0.18699   0.65552   0.26091   0.00000  Uiso   1.00
C199   C     0.13376   0.49687   0.34666   0.00000  Uiso   1.00
C200   C     0.14474   0.34429   0.24700   0.00000  Uiso   1.00
C201   C     0.15178   0.40005   0.24878   0.00000  Uiso   1.00
C202   C     0.19952   0.50271   0.15326   0.00000  Uiso   1.00
C203   C     0.27399   0.57599   0.03704   0.00000  Uiso   1.00
C204   C     0.21788   0.51288   0.09939   0.00000  Uiso   1.00
C205   C     0.07230   0.43751   0.41117   0.00000  Uiso   1.00
C206   C     0.07538   0.40864   0.45093   0.00000  Uiso   1.00
C207   C     0.15647   0.47813   0.47711   0.00000  Uiso   1.00
C208   C     0.12044   0.42684   0.48079   0.00000  Uiso   1.00
C209   C     0.04136   0.62404   0.03216   0.00000  Uiso   1.00
C210   C     0.07844   0.60388   0.48372   0.00000  Uiso   1.00
C211   C     0.07414   0.44938   0.09474   0.00000  Uiso   1.00
C212   C     0.06178   0.50410   0.09034   0.00000  Uiso   1.00
C213   C     0.23328   0.34082   0.33139   0.00000  Uiso   1.00
C214   C     0.24402   0.39201   0.36256   0.00000  Uiso   1.00
C215   C     0.15719   0.50541   0.43379   0.00000  Uiso   1.00
C216   C     0.19239   0.50288   0.01422   0.00000  Uiso   1.00
C217   C     0.23667   0.55043   0.00220   0.00000  Uiso   1.00
C218   C     0.24104   0.57366   0.45642   0.00000  Uiso   1.00
C219   C     0.20016   0.55289   0.42405   0.00000  Uiso   1.00
C220   C     0.18161   0.48550   0.06463   0.00000  Uiso   1.00
C221   C     0.26275   0.55749   0.08571   0.00000  Uiso   1.00
Cu222  Cu    0.10710   0.49439   0.24436   0.00000  Uiso   1.00
Cu223  Cu    0.22623   0.50561   0.25565   0.00000  Uiso   1.00
H224   H     0.10431   0.65427   0.23324   0.00000  Uiso   1.00
H225   H     0.06391   0.66472   0.04078   0.00000  Uiso   1.00
H226   H     0.07623   0.62522   0.45059   0.00000  Uiso   1.00
H227   H     0.12775   0.60971   0.48802   0.00000  Uiso   1.00
H228   H     0.05956   0.56165   0.47689   0.00000  Uiso   1.00
H229   H     0.05598   0.43748   0.13429   0.00000  Uiso   1.00
H230   H     0.04458   0.42128   0.07190   0.00000  Uiso   1.00
H231   H     0.01267   0.50420   0.10796   0.00000  Uiso   1.00
H232   H     0.09179   0.53495   0.11037   0.00000  Uiso   1.00
H233   H     0.06838   0.51334   0.05003   0.00000  Uiso   1.00
H234   H     0.20176   0.57508   0.39163   0.00000  Uiso   1.00
H235   H     0.00409   0.54028   0.28897   0.00000  Uiso   1.00
H236   H     0.27020   0.65266   0.33379   0.00000  Uiso   1.00
H237   H     0.18734   0.65030   0.34913   0.00000  Uiso   1.00
H238   H     0.20439   0.41162   0.36446   0.00000  Uiso   1.00
H239   H     0.24741   0.38430   0.40171   0.00000  Uiso   1.00
H240   H     0.28770   0.41829   0.34487   0.00000  Uiso   1.00
H241   H     0.27366   0.61005   0.44671   0.00000  Uiso   1.00
H242   H     0.04151   0.42003   0.38527   0.00000  Uiso   1.00
H243   H     0.12799   0.39976   0.00536   0.00000  Uiso   1.00
H244   H     0.04517   0.37060   0.45654   0.00000  Uiso   1.00
H245   H     0.28568   0.58055   0.11454   0.00000  Uiso   1.00
H246   H     0.32882   0.45939   0.21156   0.00000  Uiso   1.00
H247   H     0.04445   0.60196   0.06456   0.00000  Uiso   1.00
N248   N     0.31574   0.51407   0.26416   0.00000  Uiso   1.00
N249   N     0.01759   0.48593   0.23584   0.00000  Uiso   1.00
O250   O     0.12797   0.57141   0.24633   0.00000  Uiso   1.00
O251   O     0.13685   0.44163   0.08118   0.00000  Uiso   1.00
O252   O     0.23771   0.35179   0.28002   0.00000  Uiso   1.00
O253   O     0.22858   0.58089   0.25587   0.00000  Uiso   1.00
O254   O     0.09181   0.49293   0.31839   0.00000  Uiso   1.00
O255   O     0.19242   0.50241   0.32793   0.00000  Uiso   1.00
O256   O     0.10476   0.41911   0.24413   0.00000  Uiso   1.00
O257   O     0.20536   0.42859   0.25367   0.00000  Uiso   1.00
O258   O     0.14092   0.49759   0.17207   0.00000  Uiso   1.00
O259   O     0.24152   0.50707   0.18161   0.00000  Uiso   1.00
O260   O     0.31328   0.62406   0.02608   0.00000  Uiso   1.00
C261   C     0.51411   0.59982   0.25378   0.00000  Uiso   1.00
C262   C     0.44974   0.48362   0.39978   0.00000  Uiso   1.00
C263   C     0.52032   0.65552   0.26091   0.00000  Uiso   1.00
C264   C     0.46709   0.49687   0.34666   0.00000  Uiso   1.00
C265   C     0.47807   0.34429   0.24700   0.00000  Uiso   1.00
C266   C     0.48511   0.40005   0.24878   0.00000  Uiso   1.00
C267   C     0.53285   0.50271   0.15326   0.00000  Uiso   1.00
C268   C     0.60732   0.57599   0.03704   0.00000  Uiso   1.00
C269   C     0.55121   0.51288   0.09939   0.00000  Uiso   1.00
C270   C     0.40564   0.43751   0.41117   0.00000  Uiso   1.00
C271   C     0.40872   0.40864   0.45093   0.00000  Uiso   1.00
C272   C     0.48980   0.47813   0.47711   0.00000  Uiso   1.00
C273   C     0.45378   0.42684   0.48079   0.00000  Uiso   1.00
C274   C     0.37469   0.62404   0.03216   0.00000  Uiso   1.00
C275   C     0.41177   0.60388   0.48372   0.00000  Uiso   1.00
C276   C     0.40747   0.44938   0.09474   0.00000  Uiso   1.00
C277   C     0.39511   0.50410   0.09034   0.00000  Uiso   1.00
C278   C     0.56662   0.34082   0.33139   0.00000  Uiso   1.00
C279   C     0.57736   0.39201   0.36256   0.00000  Uiso   1.00
C280   C     0.49053   0.50541   0.43379   0.00000  Uiso   1.00
C281   C     0.52572   0.50288   0.01422   0.00000  Uiso   1.00
C282   C     0.57000   0.55043   0.00220   0.00000  Uiso   1.00
C283   C     0.57437   0.57366   0.45642   0.00000  Uiso   1.00
C284   C     0.53349   0.55289   0.42405   0.00000  Uiso   1.00
C285   C     0.51495   0.48550   0.06463   0.00000  Uiso   1.00
C286   C     0.59609   0.55749   0.08571   0.00000  Uiso   1.00
Cu287  Cu    0.44043   0.49439   0.24436   0.00000  Uiso   1.00
Cu288  Cu    0.55957   0.50561   0.25565   0.00000  Uiso   1.00
H289   H     0.43764   0.65427   0.23324   0.00000  Uiso   1.00
H290   H     0.39725   0.66472   0.04078   0.00000  Uiso   1.00
H291   H     0.40957   0.62522   0.45059   0.00000  Uiso   1.00
H292   H     0.46108   0.60971   0.48802   0.00000  Uiso   1.00
H293   H     0.39290   0.56165   0.47689   0.00000  Uiso   1.00
H294   H     0.38931   0.43748   0.13429   0.00000  Uiso   1.00
H295   H     0.37791   0.42128   0.07190   0.00000  Uiso   1.00
H296   H     0.34600   0.50420   0.10796   0.00000  Uiso   1.00
H297   H     0.42512   0.53495   0.11037   0.00000  Uiso   1.00
H298   H     0.40171   0.51334   0.05003   0.00000  Uiso   1.00
H299   H     0.53509   0.57508   0.39163   0.00000  Uiso   1.00
H300   H     0.33742   0.54028   0.28897   0.00000  Uiso   1.00
H301   H     0.60353   0.65266   0.33379   0.00000  Uiso   1.00
H302   H     0.52067   0.65030   0.34913   0.00000  Uiso   1.00
H303   H     0.53772   0.41162   0.36446   0.00000  Uiso   1.00
H304   H     0.58074   0.38430   0.40171   0.00000  Uiso   1.00
H305   H     0.62104   0.41829   0.34487   0.00000  Uiso   1.00
H306   H     0.60699   0.61005   0.44671   0.00000  Uiso   1.00
H307   H     0.37484   0.42003   0.38527   0.00000  Uiso   1.00
H308   H     0.46132   0.39976   0.00536   0.00000  Uiso   1.00
H309   H     0.37850   0.37060   0.45654   0.00000  Uiso   1.00
H310   H     0.61901   0.58055   0.11454   0.00000  Uiso   1.00
H311   H     0.66215   0.45939   0.21156   0.00000  Uiso   1.00
H312   H     0.37779   0.60196   0.06456   0.00000  Uiso   1.00
N313   N     0.64908   0.51407   0.26416   0.00000  Uiso   1.00
N314   N     0.35092   0.48593   0.23584   0.00000  Uiso   1.00
O315   O     0.46131   0.57141   0.24633   0.00000  Uiso   1.00
O316   O     0.47019   0.44163   0.08118   0.00000  Uiso   1.00
O317   O     0.57104   0.35179   0.28002   0.00000  Uiso   1.00
O318   O     0.56191   0.58089   0.25587   0.00000  Uiso   1.00
O319   O     0.42515   0.49293   0.31839   0.00000  Uiso   1.00
O320   O     0.52575   0.50241   0.32793   0.00000  Uiso   1.00
O321   O     0.43809   0.41911   0.24413   0.00000  Uiso   1.00
O322   O     0.53869   0.42859   0.25367   0.00000  Uiso   1.00
O323   O     0.47425   0.49759   0.17207   0.00000  Uiso   1.00
O324   O     0.57485   0.50707   0.18161   0.00000  Uiso   1.00
O325   O     0.64661   0.62406   0.02608   0.00000  Uiso   1.00
C326   C     0.84744   0.59982   0.25378   0.00000  Uiso   1.00
C327   C     0.78307   0.48362   0.39978   0.00000  Uiso   1.00
C328   C     0.85366   0.65552   0.26091   0.00000  Uiso   1.00
C329   C     0.80043   0.49687   0.34666   0.00000  Uiso   1.00
C330   C     0.81141   0.34429   0.24700   0.00000  Uiso   1.00
C331   C     0.81844   0.40005   0.24878   0.00000  Uiso   1.00
C332   C     0.86618   0.50271   0.15326   0.00000  Uiso   1.00
C333   C     0.94065   0.57599   0.03704   0.00000  Uiso   1.00
C334   C     0.88455   0.51288   0.09939   0.00000  Uiso   1.00
C335   C     0.73897   0.43751   0.41117   0.00000  Uiso   1.00
C336   C     0.74205   0.40864   0.45093   0.00000  Uiso   1.00
C337   C     0.82313   0.47813   0.47711   0.00000  Uiso   1.00
C338   C     0.78711   0.42684   0.48079   0.00000  Uiso   1.00
C339   C     0.70802   0.62404   0.03216   0.00000  Uiso   1.00
C340   C     0.74511   0.60388   0.48372   0.00000  Uiso   1.00
C341   C     0.74081   0.44938   0.09474   0.00000  Uiso   1.00
C342   C     0.72845   0.50410   0.09034   0.00000  Uiso   1.00
C343   C     0.89995   0.34082   0.33139   0.00000  Uiso   1.00
C344   C     0.91069   0.39201   0.36256   0.00000  Uiso   1.00
C345   C     0.82386   0.50541   0.43379   0.00000  Uiso   1.00
C346   C     0.85906   0.50288   0.01422   0.00000  Uiso   1.00
C347   C     0.90333   0.55043   0.00220   0.00000  Uiso   1.00
C348   C     0.90770   0.57366   0.45642   0.00000  Uiso   1.00
C349   C     0.86682   0.55289   0.42405   0.00000  Uiso   1.00
C350   C     0.84828   0.48550   0.06463   0.00000  Uiso   1.00
C351   C     0.92942   0.55749   0.08571   0.00000  Uiso   1.00
Cu352  Cu    0.77377   0.49439   0.24436   0.00000  Uiso   1.00
Cu353  Cu    0.89290   0.50561   0.25565   0.00000  Uiso   1.00
H354   H     0.77098   0.65427   0.23324   0.00000  Uiso   1.00
H355   H     0.73058   0.66472   0.04078   0.00000  Uiso   1.00
H356   H     0.74290   0.62522   0.45059   0.00000  Uiso   1.00
H357   H     0.79441   0.60971   0.48802   0.00000  Uiso   1.00
H358   H     0.72623   0.56165   0.47689   0.00000  Uiso   1.00
H359   H     0.72264   0.43748   0.13429   0.00000  Uiso   1.00
H360   H     0.71125   0.42128   0.07190   0.00000  Uiso   1.00
H361   H     0.67934   0.50420   0.10796   0.00000  Uiso   1.00
H362   H     0.75846   0.53495   0.11037   0.00000  Uiso   1.00
H363   H     0.73504   0.51334   0.05003   0.00000  Uiso   1.00
H364   H     0.86842   0.57508   0.39163   0.00000  Uiso   1.00
H365   H     0.67075   0.54028   0.28897   0.00000  Uiso   1.00
H366   H     0.93686   0.65266   0.33379   0.00000  Uiso   1.00
H367   H     0.85401   0.65030   0.34913   0.00000  Uiso   1.00
H368   H     0.87106   0.41162   0.36446   0.00000  Uiso   1.00
H369   H     0.91407   0.38430   0.40171   0.00000  Uiso   1.00
H370   H     0.95437   0.41829   0.34487   0.00000  Uiso   1.00
H371   H     0.94032   0.61005   0.44671   0.00000  Uiso   1.00
H372   H     0.70818   0.42003   0.38527   0.00000  Uiso   1.00
H373   H     0.79465   0.39976   0.00536   0.00000  Uiso   1.00
H374   H     0.71183   0.37060   0.45654   0.00000  Uiso   1.00
H375   H     0.95235   0.58055   0.11454   0.00000  Uiso   1.00
H376   H     0.99549   0.45939   0.21156   0.00000  Uiso   1.00
H377   H     0.71112   0.60196   0.06456   0.00000  Uiso   1.00
N378   N     0.98241   0.51407   0.26416   0.00000  Uiso   1.00
N379   N     0.68426   0.48593   0.23584   0.00000  Uiso   1.00
O380   O     0.79464   0.57141   0.24633   0.00000  Uiso   1.00
O381   O     0.80352   0.44163   0.08118   0.00000  Uiso   1.00
O382   O     0.90438   0.35179   0.28002   0.00000  Uiso   1.00
O383   O     0.89524   0.58089   0.25587   0.00000  Uiso   1.00
O384   O     0.75848   0.49293   0.31839   0.00000  Uiso   1.00
O385   O     0.85908   0.50241   0.32793   0.00000  Uiso   1.00
O386   O     0.77142   0.41911   0.24413   0.00000  Uiso   1.00
O387   O     0.87203   0.42859   0.25367   0.00000  Uiso   1.00
O388   O     0.80758   0.49759   0.17207   0.00000  Uiso   1.00
O389   O     0.90819   0.50707   0.18161   0.00000  Uiso   1.00
O390   O     0.97995   0.62406   0.02608   0.00000  Uiso   1.00
C391   C     0.18078   0.93316   0.25378   0.00000  Uiso   1.00
C392   C     0.11641   0.81695   0.39978   0.00000  Uiso   1.00
C393   C     0.18699   0.98886   0.26091   0.00000  Uiso   1.00
C394   C     0.13376   0.83020   0.34666   0.00000  Uiso   1.00
C395   C     0.14474   0.67762   0.24700   0.00000  Uiso   1.00
C396   C     0.15178   0.73338   0.24878   0.00000  Uiso   1.00
C397   C     0.19952   0.83605   0.15326   0.00000  Uiso   1.00
C398   C     0.27399   0.90933   0.03704   0.00000  Uiso   1.00
C399   C     0.21788   0.84621   0.09939   0.00000  Uiso   1.00
C400   C     0.07230   0.77085   0.41117   0.00000  Uiso   1.00
C401   C     0.07538   0.74197   0.45093   0.00000  Uiso   1.00
C402   C     0.15647   0.81146   0.47711   0.00000  Uiso   1.00
C403   C     0.12044   0.76018   0.48079   0.00000  Uiso   1.00
C404   C     0.04136   0.95737   0.03216   0.00000  Uiso   1.00
C405   C     0.07844   0.93721   0.48372   0.00000  Uiso   1.00
C406   C     0.07414   0.78272   0.09474   0.00000  Uiso   1.00
C407   C     0.06178   0.83743   0.09034   0.00000  Uiso   1.00
C408   C     0.23328   0.67415   0.33139   0.00000  Uiso   1.00
C409   C     0.24402   0.72534   0.36256   0.00000  Uiso   1.00
C410   C     0.15719   0.83874   0.43379   0.00000  Uiso   1.00
C411   C     0.19239   0.83621   0.01422   0.00000  Uiso   1.00
C412   C     0.23667   0.88377   0.00220   0.00000  Uiso   1.00
C413   C     0.24104   0.90700   0.45642   0.00000  Uiso   1.00
C414   C     0.20016   0.88622   0.42405   0.00000  Uiso   1.00
C415   C     0.18161   0.81884   0.06463   0.00000  Uiso   1.00
C416   C     0.26275   0.89082   0.08571   0.00000  Uiso   1.00
Cu417  Cu    0.10710   0.82772   0.24436   0.00000  Uiso   1.00
Cu418  Cu    0.22623   0.83895   0.25565   0.00000  Uiso   1.00
H419   H     0.10431   0.98760   0.23324   0.00000  Uiso   1.00
H420   H     0.06391   0.99806   0.04078   0.00000  Uiso   1.00
H421   H     0.07623   0.95856   0.45059   0.00000  Uiso   1.00
H422   H     0.12775   0.94304   0.48802   0.00000  Uiso   1.00
H423   H     0.05956   0.89499   0.47689   0.00000  Uiso   1.00
H424   H     0.05598   0.77082   0.13429   0.00000  Uiso   1.00
H425   H     0.04458   0.75462   0.07190   0.00000  Uiso   1.00
H426   H     0.01267   0.83754   0.10796   0.00000  Uiso   1.00
H427   H     0.09179   0.86828   0.11037   0.00000  Uiso   1.00
H428   H     0.06838   0.84668   0.05003   0.00000  Uiso   1.00
H429   H     0.20176   0.90841   0.39163   0.00000  Uiso   1.00
H430   H     0.00409   0.87361   0.28897   0.00000  Uiso   1.00
H431   H     0.27020   0.98599   0.33379   0.00000  Uiso   1.00
H432   H     0.18734   0.98363   0.34913   0.00000  Uiso   1.00
H433   H     0.20439   0.74495   0.36446   0.00000  Uiso   1.00
H434   H     0.24741   0.71763   0.40171   0.00000  Uiso   1.00
H435   H     0.28770   0.75162   0.34487   0.00000  Uiso   1.00
H436   H     0.27366   0.94338   0.44671   0.00000  Uiso   1.00
H437   H     0.04151   0.75336   0.38527   0.00000  Uiso   1.00
H438   H     0.12799   0.73310   0.00536   0.00000  Uiso   1.00
H439   H     0.04517   0.70393   0.45654   0.00000  Uiso   1.00
H440   H     0.28568   0.91388   0.11454   0.00000  Uiso   1.00
H441   H     0.32882   0.79273   0.21156   0.00000  Uiso   1.00
H442   H     0.04445   0.93529   0.06456   0.00000  Uiso   1.00
N443   N     0.31574   0.84741   0.26416   0.00000  Uiso   1.00
N444   N     0.01759   0.81926   0.23584   0.00000  Uiso   1.00
O445   O     0.12797   0.90474   0.24633   0.00000  Uiso   1.00
O446   O     0.13685   0.77496   0.08118   0.00000  Uiso   1.00
O447   O     0.23771   0.68512   0.28002   0.00000  Uiso   1.00
O448   O     0.22858   0.91422   0.25587   0.00000  Uiso   1.00
O449   O     0.09181   0.82627   0.31839   0.00000  Uiso   1.00
O450   O     0.19242   0.83575   0.32793   0.00000  Uiso   1.00
O451   O     0.10476   0.75245   0.24413   0.00000  Uiso   1.00
O452   O     0.20536   0.76193   0.25367   0.00000  Uiso   1.00
O453   O     0.14092   0.83092   0.17207   0.00000  Uiso   1.00
O454   O     0.24152   0.84040   0.18161   0.00000  Uiso   1.00
O455   O     0.31328   0.95740   0.02608   0.00000  Uiso   1.00
C456   C     0.51411   0.93316   0.25378   0.00000  Uiso   1.00
C457   C     0.44974   0.81695   0.39978   0.00000  Uiso   1.00
C458   C     0.52032   0.98886   0.26091   0.00000  Uiso   1.00
C459   C     0.46709   0.83020   0.34666   0.00000  Uiso   1.00
C460   C     0.47807   0.67762   0.24700   0.00000  Uiso   1.00
C461   C     0.48511   0.73338   0.24878   0.00000  Uiso   1.00
C462   C     0.53285   0.83605   0.15326   0.00000  Uiso   1.00
C463   C     0.60732   0.90933   0.03704   0.00000  Uiso   1.00
C464   C     0.55121   0.84621   0.09939   0.00000  Uiso   1.00
C465   C     0.40564   0.77085   0.41117   0.00000  Uiso   1.00
C466   C     0.40872   0.74197   0.45093   0.00000  Uiso   1.00
C467   C     0.48980   0.81146   0.47711   0.00000  Uiso   1.00
C468   C     0.45378   0.76018   0.48079   0.00000  Uiso   1.00
C469   C     0.37469   0.95737   0.03216   0.00000  Uiso   1.00
C470   C     0.41177   0.93721   0.48372   0.00000  Uiso   1.00
C471   C     0.40747   0.78272   0.09474   0.00000  Uiso   1.00
C472   C     0.39511   0.83743   0.09034   0.00000  Uiso   1.00
C473   C     0.56662   0.67415   0.33139   0.00000  Uiso   1.00
C474   C     0.57736   0.72534   0.36256   0.00000  Uiso   1.00
C475   C     0.49053   0.83874   0.43379   0.00000  Uiso   1.00
C476   C     0.52572   0.83621   0.01422   0.00000  Uiso   1.00
C477   C     0.57000   0.88377   0.00220   0.00000  Uiso   1.00
C478   C     0.57437   0.90700   0.45642   0.00000  Uiso   1.00
C479   C     0.53349   0.88622   0.42405   0.00000  Uiso   1.00
C480   C     0.51495   0.81884   0.06463   0.00000  Uiso   1.00
C481   C     0.59609   0.89082   0.08571   0.00000  Uiso   1.00
Cu482  Cu    0.44043   0.82772   0.24436   0.00000  Uiso   1.00
Cu483  Cu    0.55957   0.83895   0.25565   0.00000  Uiso   1.00
H484   H     0.43764   0.98760   0.23324   0.00000  Uiso   1.00
H485   H     0.39725   0.99806   0.04078   0.00000  Uiso   1.00
H486   H     0.40957   0.95856   0.45059   0.00000  Uiso   1.00
H487   H     0.46108   0.94304   0.48802   0.00000  Uiso   1.00
H488   H     0.39290   0.89499   0.47689   0.00000  Uiso   1.00
H489   H     0.38931   0.77082   0.13429   0.00000  Uiso   1.00
H490   H     0.37791   0.75462   0.07190   0.00000  Uiso   1.00
H491   H     0.34600   0.83754   0.10796   0.00000  Uiso   1.00
H492   H     0.42512   0.86828   0.11037   0.00000  Uiso   1.00
H493   H     0.40171   0.84668   0.05003   0.00000  Uiso   1.00
H494   H     0.53509   0.90841   0.39163   0.00000  Uiso   1.00
H495   H     0.33742   0.87361   0.28897   0.00000  Uiso   1.00
H496   H     0.60353   0.98599   0.33379   0.00000  Uiso   1.00
H497   H     0.52067   0.98363   0.34913   0.00000  Uiso   1.00
H498   H     0.53772   0.74495   0.36446   0.00000  Uiso   1.00
H499   H     0.58074   0.71763   0.40171   0.00000  Uiso   1.00
H500   H     0.62104   0.75162   0.34487   0.00000  Uiso   1.00
H501   H     0.60699   0.94338   0.44671   0.00000  Uiso   1.00
H502   H     0.37484   0.75336   0.38527   0.00000  Uiso   1.00
H503   H     0.46132   0.73310   0.00536   0.00000  Uiso   1.00
H504   H     0.37850   0.70393   0.45654   0.00000  Uiso   1.00
H505   H     0.61901   0.91388   0.11454   0.00000  Uiso   1.00
H506   H     0.66215   0.79273   0.21156   0.00000  Uiso   1.00
H507   H     0.37779   0.93529   0.06456   0.00000  Uiso   1.00
N508   N     0.64908   0.84741   0.26416   0.00000  Uiso   1.00
N509   N     0.35092   0.81926   0.23584   0.00000  Uiso   1.00
O510   O     0.46131   0.90474   0.24633   0.00000  Uiso   1.00
O511   O     0.47019   0.77496   0.08118   0.00000  Uiso   1.00
O512   O     0.57104   0.68512   0.28002   0.00000  Uiso   1.00
O513   O     0.56191   0.91422   0.25587   0.00000  Uiso   1.00
O514   O     0.42515   0.82627   0.31839   0.00000  Uiso   1.00
O515   O     0.52575   0.83575   0.32793   0.00000  Uiso   1.00
O516   O     0.43809   0.75245   0.24413   0.00000  Uiso   1.00
O517   O     0.53869   0.76193   0.25367   0.00000  Uiso   1.00
O518   O     0.47425   0.83092   0.17207   0.00000  Uiso   1.00
O519   O     0.57485   0.84040   0.18161   0.00000  Uiso   1.00
O520   O     0.64661   0.95740   0.02608   0.00000  Uiso   1.00
C521   C     0.84744   0.93316   0.25378   0.00000  Uiso   1.00
C522   C     0.78307   0.81695   0.39978   0.00000  Uiso   1.00
C523   C     0.85366   0.98886   0.26091   0.00000  Uiso   1.00
C524   C     0.80043   0.83020   0.34666   0.00000  Uiso   1.00
C525   C     0.81141   0.67762   0.24700   0.00000  Uiso   1.00
C526   C     0.81844   0.73338   0.24878   0.00000  Uiso   1.00
C527   C     0.86618   0.83605   0.15326   0.00000  Uiso   1.00
C528   C     0.94065   0.90933   0.03704   0.00000  Uiso   1.00
C529   C     0.88455   0.84621   0.09939   0.00000  Uiso   1.00
C530   C     0.73897   0.77085   0.41117   0.00000  Uiso   1.00
C531   C     0.74205   0.74197   0.45093   0.00000  Uiso   1.00
C532   C     0.82313   0.81146   0.47711   0.00000  Uiso   1.00
C533   C     0.78711   0.76018   0.48079   0.00000  Uiso   1.00
C534   C     0.70802   0.95737   0.03216   0.00000  Uiso   1.00
C535   C     0.74511   0.93721   0.48372   0.00000  Uiso   1.00
C536   C     0.74081   0.78272   0.09474   0.00000  Uiso   1.00
C537   C     0.72845   0.83743   0.09034   0.00000  Uiso   1.00
C538   C     0.89995   0.67415   0.33139   0.00000  Uiso   1.00
C539   C     0.91069   0.72534   0.36256   0.00000  Uiso   1.00
C540   C     0.82386   0.83874   0.43379   0.00000  Uiso   1.00
C541   C     0.85906   0.83621   0.01422   0.00000  Uiso   1.00
C542   C     0.90333   0.88377   0.00220   0.00000  Uiso   1.00
C543   C     0.90770   0.90700   0.45642   0.00000  Uiso   1.00
C544   C     0.86682   0.88622   0.42405   0.00000  Uiso   1.00
C545   C     0.84828   0.81884   0.06463   0.00000  Uiso   1.00
C546   C     0.92942   0.89082   0.08571   0.00000  Uiso   1.00
Cu547  Cu    0.77377   0.82772   0.24436   0.00000  Uiso   1.00
Cu548  Cu    0.89290   0.83895   0.25565   0.00000  Uiso   1.00
H549   H     0.77098   0.98760   0.23324   0.00000  Uiso   1.00
H550   H     0.73058   0.99806   0.04078   0.00000  Uiso   1.00
H551   H     0.74290   0.95856   0.45059   0.00000  Uiso   1.00
H552   H     0.79441   0.94304   0.48802   0.00000  Uiso   1.00
H553   H     0.72623   0.89499   0.47689   0.00000  Uiso   1.00
H554   H     0.72264   0.77082   0.13429   0.00000  Uiso   1.00
H555   H     0.71125   0.75462   0.07190   0.00000  Uiso   1.00
H556   H     0.67934   0.83754   0.10796   0.00000  Uiso   1.00
H557   H     0.75846   0.86828   0.11037   0.00000  Uiso   1.00
H558   H     0.73504   0.84668   0.05003   0.00000  Uiso   1.00
H559   H     0.86842   0.90841   0.39163   0.00000  Uiso   1.00
H560   H     0.67075   0.87361   0.28897   0.00000  Uiso   1.00
H561   H     0.93686   0.98599   0.33379   0.00000  Uiso   1.00
H562   H     0.85401   0.98363   0.34913   0.00000  Uiso   1.00
H563   H     0.87106   0.74495   0.36446   0.00000  Uiso   1.00
H564   H     0.91407   0.71763   0.40171   0.00000  Uiso   1.00
H565   H     0.95437   0.75162   0.34487   0.00000  Uiso   1.00
H566   H     0.94032   0.94338   0.44671   0.00000  Uiso   1.00
H567   H     0.70818   0.75336   0.38527   0.00000  Uiso   1.00
H568   H     0.79465   0.73310   0.00536   0.00000  Uiso   1.00
H569   H     0.71183   0.70393   0.45654   0.00000  Uiso   1.00
H570   H     0.95235   0.91388   0.11454   0.00000  Uiso   1.00
H571   H     0.99549   0.79273   0.21156   0.00000  Uiso   1.00
H572   H     0.71112   0.93529   0.06456   0.00000  Uiso   1.00
N573   N     0.98241   0.84741   0.26416   0.00000  Uiso   1.00
N574   N     0.68426   0.81926   0.23584   0.00000  Uiso   1.00
O575   O     0.79464   0.90474   0.24633   0.00000  Uiso   1.00
O576   O     0.80352   0.77496   0.08118   0.00000  Uiso   1.00
O577   O     0.90438   0.68512   0.28002   0.00000  Uiso   1.00
O578   O     0.89524   0.91422   0.25587   0.00000  Uiso   1.00
O579   O     0.75848   0.82627   0.31839   0.00000  Uiso   1.00
O580   O     0.85908   0.83575   0.32793   0.00000  Uiso   1.00
O581   O     0.77142   0.75245   0.24413   0.00000  Uiso   1.00
O582   O     0.87203   0.76193   0.25367   0.00000  Uiso   1.00
O583   O     0.80758   0.83092   0.17207   0.00000  Uiso   1.00
O584   O     0.90819   0.84040   0.18161   0.00000  Uiso   1.00
O585   O     0.97995   0.95740   0.02608   0.00000  Uiso   1.00
C586   C     0.18078   0.26649   0.75378   0.00000  Uiso   1.00
C587   C     0.11641   0.15029   0.89978   0.00000  Uiso   1.00
C588   C     0.18699   0.32219   0.76091   0.00000  Uiso   1.00
C589   C     0.13376   0.16354   0.84666   0.00000  Uiso   1.00
C590   C     0.14474   0.01096   0.74700   0.00000  Uiso   1.00
C591   C     0.15178   0.06671   0.74878   0.00000  Uiso   1.00
C592   C     0.19952   0.16938   0.65326   0.00000  Uiso   1.00
C593   C     0.27399   0.24266   0.53704   0.00000  Uiso   1.00
C594   C     0.21788   0.17954   0.59939   0.00000  Uiso   1.00
C595   C     0.07230   0.10418   0.91117   0.00000  Uiso   1.00
C596   C     0.07538   0.07530   0.95093   0.00000  Uiso   1.00
C597   C     0.15647   0.14480   0.97711   0.00000  Uiso   1.00
C598   C     0.12044   0.09351   0.98079   0.00000  Uiso   1.00
C599   C     0.04136   0.29071   0.53216   0.00000  Uiso   1.00
C600   C     0.07844   0.27055   0.98372   0.00000  Uiso   1.00
C601   C     0.07414   0.11605   0.59474   0.00000  Uiso   1.00
C602   C     0.06178   0.17077   0.59034   0.00000  Uiso   1.00
C603   C     0.23328   0.00749   0.83139   0.00000  Uiso   1.00
C604   C     0.24402   0.05868   0.86256   0.00000  Uiso   1.00
C605   C     0.15719   0.17208   0.93379   0.00000  Uiso   1.00
C606   C     0.19239   0.16955   0.51422   0.00000  Uiso   1.00
C607   C     0.23667   0.21710   0.50220   0.00000  Uiso   1.00
C608   C     0.24104   0.24033   0.95642   0.00000  Uiso   1.00
C609   C     0.20016   0.21956   0.92405   0.00000  Uiso   1.00
C610   C     0.18161   0.15217   0.56463   0.00000  Uiso   1.00
C611   C     0.26275   0.22416   0.58571   0.00000  Uiso   1.00
Cu612  Cu    0.10710   0.16105   0.74436   0.00000  Uiso   1.00
Cu613  Cu    0.22623   0.17228   0.75565   0.00000  Uiso   1.00
H614   H     0.10431   0.32093   0.73324   0.00000  Uiso   1.00
H615   H     0.06391   0.33139   0.54078   0.00000  Uiso   1.00
H616   H     0.07623   0.29189   0.95059   0.00000  Uiso   1.00
H617   H     0.12775   0.27637   0.98802   0.00000  Uiso   1.00
H618   H     0.05956   0.22832   0.97689   0.00000  Uiso   1.00
H619   H     0.05598   0.10415   0.63429   0.00000  Uiso   1.00
H620   H     0.04458   0.08795   0.57190   0.00000  Uiso   1.00
H621   H     0.01267   0.17087   0.60796   0.00000  Uiso   1.00
H622   H     0.09179   0.20161   0.61037   0.00000  Uiso   1.00
H623   H     0.06838   0.18001   0.55003   0.00000  Uiso   1.00
H624   H     0.20176   0.24174   0.89163   0.00000  Uiso   1.00
H625   H     0.00409   0.20694   0.78897   0.00000  Uiso   1.00
H626   H     0.27020   0.31932   0.83379   0.00000  Uiso   1.00
H627   H     0.18734   0.31696   0.84913   0.00000  Uiso   1.00
H628   H     0.20439   0.07829   0.86446   0.00000  Uiso   1.00
H629   H     0.24741   0.05096   0.90171   0.00000  Uiso   1.00
H630   H     0.28770   0.08495   0.84487   0.00000  Uiso   1.00
H631   H     0.27366   0.27671   0.94671   0.00000  Uiso   1.00
H632   H     0.04151   0.08670   0.88527   0.00000  Uiso   1.00
H633   H     0.12799   0.06643   0.50536   0.00000  Uiso   1.00
H634   H     0.04517   0.03727   0.95654   0.00000  Uiso   1.00
H635   H     0.28568   0.24722   0.61454   0.00000  Uiso   1.00
H636   H     0.32882   0.12606   0.71156   0.00000  Uiso   1.00
H637   H     0.04445   0.26862   0.56456   0.00000  Uiso   1.00
N638   N     0.31574   0.18074   0.76416   0.00000  Uiso   1.00
N639   N     0.01759   0.15259   0.73584   0.00000  Uiso   1.00
O640   O     0.12797   0.23807   0.74633   0.00000  Uiso   1.00
O641   O     0.13685   0.10829   0.58118   0.00000  Uiso   1.00
O642   O     0.23771   0.01845   0.78002   0.00000  Uiso   1.00
O643   O     0.22858   0.24755   0.75587   0.00000  Uiso   1.00
O644   O     0.09181   0.15960   0.81839   0.00000  Uiso   1.00
O645   O     0.19242   0.16908   0.82793   0.00000  Uiso   1.00
O646   O     0.10476   0.08578   0.74413   0.00000  Uiso   1.00
O647   O     0.20536   0.09526   0.75367   0.00000  Uiso   1.00
O648   O     0.14092   0.16425   0.67207   0.00000  Uiso   1.00
O649   O     0.24152   0.17373   0.68161   0.00000  Uiso   1.00
O650   O     0.31328   0.29073   0.52608   0.00000  Uiso   1.00
C651   C     0.51411   0.26649   0.75378   0.00000  Uiso   1.00
C652   C     0.44974   0.15029   0.89978   0.00000  Uiso   1.00
C653   C     0.52032   0.32219   0.76091   0.00000  Uiso   1.00
C654   C     0.46709   0.16354   0.84666   0.00000  Uiso   1.00
C655   C     0.47807   0.01096   0.74700   0.00000  Uiso   1.00
C656   C     0.48511   0.06671   0.74878   0.00000  Uiso   1.00
C657   C     0.53285   0.16938   0.65326   0.00000  Uiso   1.00
C658   C     0.60732   0.24266   0.53704   0.00000  Uiso   1.00
C659   C     0.55121   0.17954   0.59939   0.00000  Uiso   1.00
C660   C     0.40564   0.10418   0.91117   0.00000  Uiso   1.00
C661   C     0.40872   0.07530   0.95093   0.00000  Uiso   1.00
C662   C     0.48980   0.14480   0.97711   0.00000  Uiso   1.00
C663   C     0.45378   0.09351   0.98079   0.00000  Uiso   1.00
C664   C     0.37469   0.29071   0.53216   0.00000  Uiso   1.00
C665   C     0.41177   0.27055   0.98372   0.00000  Uiso   1.00
C666   C     0.40747   0.11605   0.59474   0.00000  Uiso   1.00
C667   C     0.39511   0.17077   0.59034   0.00000  Uiso   1.00
C668   C     0.56662   0.00749   0.83139   0.00000  Uiso   1.00
C669   C     0.57736   0.05868   0.86256   0.00000  Uiso   1.00
C670   C     0.49053   0.17208   0.93379   0.00000  Uiso   1.00
C671   C     0.52572   0.16955   0.51422   0.00000  Uiso   1.00
C672   C     0.57000   0.21710   0.50220   0.00000  Uiso   1.00
C673   C     0.57437   0.24033   0.95642   0.00000  Uiso   1.00
C674   C     0.53349   0.21956   0.92405   0.00000  Uiso   1.00
C675   C     0.51495   0.15217   0.56463   0.00000  Uiso   1.00
C676   C     0.59609   0.22416   0.58571   0.00000  Uiso   1.00
Cu677  Cu    0.44043   0.16105   0.74436   0.00000  Uiso   1.00
Cu678  Cu    0.55957   0.17228   0.75565   0.00000  Uiso   1.00
H679   H     0.43764   0.32093   0.73324   0.00000  Uiso   1.00
H680   H     0.39725   0.33139   0.54078   0.00000  Uiso   1.00
H681   H     0.40957   0.29189   0.95059   0.00000  Uiso   1.00
H682   H     0.46108   0.27637   0.98802   0.00000  Uiso   1.00
H683   H     0.39290   0.22832   0.97689   0.00000  Uiso   1.00
H684   H     0.38931   0.10415   0.63429   0.00000  Uiso   1.00
H685   H     0.37791   0.08795   0.57190   0.00000  Uiso   1.00
H686   H     0.34600   0.17087   0.60796   0.00000  Uiso   1.00
H687   H     0.42512   0.20161   0.61037   0.00000  Uiso   1.00
H688   H     0.40171   0.18001   0.55003   0.00000  Uiso   1.00
H689   H     0.53509   0.24174   0.89163   0.00000  Uiso   1.00
H690   H     0.33742   0.20694   0.78897   0.00000  Uiso   1.00
H691   H     0.60353   0.31932   0.83379   0.00000  Uiso   1.00
H692   H     0.52067   0.31696   0.84913   0.00000  Uiso   1.00
H693   H     0.53772   0.07829   0.86446   0.00000  Uiso   1.00
H694   H     0.58074   0.05096   0.90171   0.00000  Uiso   1.00
H695   H     0.62104   0.08495   0.84487   0.00000  Uiso   1.00
H696   H     0.60699   0.27671   0.94671   0.00000  Uiso   1.00
H697   H     0.37484   0.08670   0.88527   0.00000  Uiso   1.00
H698   H     0.46132   0.06643   0.50536   0.00000  Uiso   1.00
H699   H     0.37850   0.03727   0.95654   0.00000  Uiso   1.00
H700   H     0.61901   0.24722   0.61454   0.00000  Uiso   1.00
H701   H     0.66215   0.12606   0.71156   0.00000  Uiso   1.00
H702   H     0.37779   0.26862   0.56456   0.00000  Uiso   1.00
N703   N     0.64908   0.18074   0.76416   0.00000  Uiso   1.00
N704   N     0.35092   0.15259   0.73584   0.00000  Uiso   1.00
O705   O     0.46131   0.23807   0.74633   0.00000  Uiso   1.00
O706   O     0.47019   0.10829   0.58118   0.00000  Uiso   1.00
O707   O     0.57104   0.01845   0.78002   0.00000  Uiso   1.00
O708   O     0.56191   0.24755   0.75587   0.00000  Uiso   1.00
O709   O     0.42515   0.15960   0.81839   0.00000  Uiso   1.00
O710   O     0.52575   0.16908   0.82793   0.00000  Uiso   1.00
O711   O     0.43809   0.08578   0.74413   0.00000  Uiso   1.00
O712   O     0.53869   0.09526   0.75367   0.00000  Uiso   1.00
O713   O     0.47425   0.16425   0.67207   0.00000  Uiso   1.00
O714   O     0.57485   0.17373   0.68161   0.00000  Uiso   1.00
O715   O     0.64661   0.29073   0.52608   0.00000  Uiso   1.00
C716   C     0.84744   0.26649   0.75378   0.00000  Uiso   1.00
C717   C     0.78307   0.15029   0.89978   0.00000  Uiso   1.00
C718   C     0.85366   0.32219   0.76091   0.00000  Uiso   1.00
C719   C     0.80043   0.16354   0.84666   0.00000  Uiso   1.00
C720   C     0.81141   0.01096   0.74700   0.00000  Uiso   1.00
C721   C     0.81844   0.06671   0.74878   0.00000  Uiso   1.00
C722   C     0.86618   0.16938   0.65326   0.00000  Uiso   1.00
C723   C     0.94065   0.24266   0.53704   0.00000  Uiso   1.00
C724   C     0.88455   0.17954   0.59939   0.00000  Uiso   1.00
C725   C     0.73897   0.10418   0.91117   0.00000  Uiso   1.00
C726   C     0.74205   0.07530   0.95093   0.00000  Uiso   1.00
C727   C     0.82313   0.14480   0.97711   0.00000  Uiso   1.00
C728   C     0.78711   0.09351   0.98079   0.00000  Uiso   1.00
C729   C     0.70802   0.29071   0.53216   0.00000  Uiso   1.00
C730   C     0.74511   0.27055   0.98372   0.00000  Uiso   1.00
C731   C     0.74081   0.11605   0.59474   0.00000  Uiso   1.00
C732   C     0.72845   0.17077   0.59034   0.00000  Uiso   1.00
C733   C     0.89995   0.00749   0.83139   0.00000  Uiso   1.00
C734   C     0.91069   0.05868   0.86256   0.00000  Uiso   1.00
C735   C     0.82386   0.17208   0.93379   0.00000  Uiso   1.00
C736   C     0.85906   0.16955   0.51422   0.00000  Uiso   1.00
C737   C     0.90333   0.21710   0.50220   0.00000  Uiso   1.00
C738   C     0.90770   0.24033   0.95642   0.00000  Uiso   1.00
C739   C     0.86682   0.21956   0.92405   0.00000  Uiso   1.00
C740   C     0.84828   0.15217   0.56463   0.00000  Uiso   1.00
C741   C     0.92942   0.22416   0.58571   0.00000  Uiso   1.00
Cu742  Cu    0.77377   0.16105   0.74436   0.00000  Uiso   1.00
Cu743  Cu    0.89290   0.17228   0.75565   0.00000  Uiso   1.00
H744   H     0.77098   0.32093   0.73324   0.00000  Uiso   1.00
H745   H     0.73058   0.33139   0.54078   0.00000  Uiso   1.00
H746   H     0.74290   0.29189   0.95059   0.00000  Uiso   1.00
H747   H     0.79441   0.27637   0.98802   0.00000  Uiso   1.00
H748   H     0.72623   0.22832   0.97689   0.00000  Uiso   1.00
H749   H     0.72264   0.10415   0.63429   0.00000  Uiso   1.00
H750   H     0.71125   0.08795   0.57190   0.00000  Uiso   1.00
H751   H     0.67934   0.17087   0.60796   0.00000  Uiso   1.00
H752   H     0.75846   0.20161   0.61037   0.00000  Uiso   1.00
H753   H     0.73504   0.18001   0.55003   0.00000  Uiso   1.00
H754   H     0.86842   0.24174   0.89163   0.00000  Uiso   1.00
H755   H     0.67075   0.20694   0.78897   0.00000  Uiso   1.00
H756   H     0.93686   0.31932   0.83379   0.00000  Uiso   1.00
H757   H     0.85401   0.31696   0.84913   0.00000  Uiso   1.00
H758   H     0.87106   0.07829   0.86446   0.00000  Uiso   1.00
H759   H     0.91407   0.05096   0.90171   0.00000  Uiso   1.00
H760   H     0.95437   0.08495   0.84487   0.00000  Uiso   1.00
H761   H     0.94032   0.27671   0.94671   0.00000  Uiso   1.00
H762   H     0.70818   0.08670   0.88527   0.00000  Uiso   1.00
H763   H     0.79465   0.06643   0.50536   0.00000  Uiso   1.00
H764   H     0.71183   0.03727   0.95654   0.00000  Uiso   1.00
H765   H     0.95235   0.24722   0.61454   0.00000  Uiso   1.00
H766   H     0.99549   0.12606   0.71156   0.00000  Uiso   1.00
H767   H     0.71112   0.26862   0.56456   0.00000  Uiso   1.00
N768   N     0.98241   0.18074   0.76416   0.00000  Uiso   1.00
N769   N     0.68426   0.15259   0.73584   0.00000  Uiso   1.00
O770   O     0.79464   0.23807   0.74633   0.00000  Uiso   1.00
O771   O     0.80352   0.10829   0.58118   0.00000  Uiso   1.00
O772   O     0.90438   0.01845   0.78002   0.00000  Uiso   1.00
O773   O     0.89524   0.24755   0.75587   0.00000  Uiso   1.00
O774   O     0.75848   0.15960   0.81839   0.00000  Uiso   1.00
O775   O     0.85908   0.16908   0.82793   0.00000  Uiso   1.00
O776   O     0.77142   0.08578   0.74413   0.00000  Uiso   1.00
O777   O     0.87203   0.09526   0.75367   0.00000  Uiso   1.00
O778   O     0.80758   0.16425   0.67207   0.00000  Uiso   1.00
O779   O     0.90819   0.17373   0.68161   0.00000  Uiso   1.00
O780   O     0.97995   0.29073   0.52608   0.00000  Uiso   1.00
C781   C     0.18078   0.59982   0.75378   0.00000  Uiso   1.00
C782   C     0.11641   0.48362   0.89978   0.00000  Uiso   1.00
C783   C     0.18699   0.65552   0.76091   0.00000  Uiso   1.00
C784   C     0.13376   0.49687   0.84666   0.00000  Uiso   1.00
C785   C     0.14474   0.34429   0.74700   0.00000  Uiso   1.00
C786   C     0.15178   0.40005   0.74878   0.00000  Uiso   1.00
C787   C     0.19952   0.50271   0.65326   0.00000  Uiso   1.00
C788   C     0.27399   0.57599   0.53704   0.00000  Uiso   1.00
C789   C     0.21788   0.51288   0.59939   0.00000  Uiso   1.00
C790   C     0.07230   0.43751   0.91117   0.00000  Uiso   1.00
C791   C     0.07538   0.40864   0.95093   0.00000  Uiso   1.00
C792   C     0.15647   0.47813   0.97711   0.00000  Uiso   1.00
C793   C     0.12044   0.42684   0.98079   0.00000  Uiso   1.00
C794   C     0.04136   0.62404   0.53216   0.00000  Uiso   1.00
C795   C     0.07844   0.60388   0.98372   0.00000  Uiso   1.00
C796   C     0.07414   0.44938   0.59474   0.00000  Uiso   1.00
C797   C     0.06178   0.50410   0.59034   0.00000  Uiso   1.00
C798   C     0.23328   0.34082   0.83139   0.00000  Uiso   1.00
C799   C     0.24402   0.39201   0.86256   0.00000  Uiso   1.00
C800   C     0.15719   0.50541   0.93379   0.00000  Uiso   1.00
C801   C     0.19239   0.50288   0.51422   0.00000  Uiso   1.00
C802   C     0.23667   0.55043   0.50220   0.00000  Uiso   1.00
C803   C     0.24104   0.57366   0.95642   0.00000  Uiso   1.00
C804   C     0.20016   0.55289   0.92405   0.00000  Uiso   1.00
C805   C     0.18161   0.48550   0.56463   0.00000  Uiso   1.00
C806   C     0.26275   0.55749   0.58571   0.00000  Uiso   1.00
Cu807  Cu    0.10710   0.49439   0.74436   0.00000  Uiso   1.00
Cu808  Cu    0.22623   0.50561   0.75565   0.00000  Uiso   1.00
H809   H     0.10431   0.65427   0.73324   0.00000  Uiso   1.00
H810   H     0.06391   0.66472   0.54078   0.00000  Uiso   1.00
H811   H     0.07623   0.62522   0.95059   0.00000  Uiso   1.00
H812   H     0.12775   0.60971   0.98802   0.00000  Uiso   1.00
H813   H     0.05956   0.56165   0.97689   0.00000  Uiso   1.00
H814   H     0.05598   0.43748   0.63429   0.00000  Uiso   1.00
H815   H     0.04458   0.42128   0.57190   0.00000  Uiso   1.00
H816   H     0.01267   0.50420   0.60796   0.00000  Uiso   1.00
H817   H     0.09179   0.53495   0.61037   0.00000  Uiso   1.00
H818   H     0.06838   0.51334   0.55003   0.00000  Uiso   1.00
H819   H     0.20176   0.57508   0.89163   0.00000  Uiso   1.00
H820   H     0.00409   0.54028   0.78897   0.00000  Uiso   1.00
H821   H     0.27020   0.65266   0.83379   0.00000  Uiso   1.00
H822   H     0.18734   0.65030   0.84913   0.00000  Uiso   1.00
H823   H     0.20439   0.41162   0.86446   0.00000  Uiso   1.00
H824   H     0.24741   0.38430   0.90171   0.00000  Uiso   1.00
H825   H     0.28770   0.41829   0.84487   0.00000  Uiso   1.00
H826   H     0.27366   0.61005   0.94671   0.00000  Uiso   1.00
H827   H     0.04151   0.42003   0.88527   0.00000  Uiso   1.00
H828   H     0.12799   0.39976   0.50536   0.00000  Uiso   1.00
H829   H     0.04517   0.37060   0.95654   0.00000  Uiso   1.00
H830   H     0.28568   0.58055   0.61454   0.00000  Uiso   1.00
H831   H     0.32882   0.45939   0.71156   0.00000  Uiso   1.00
H832   H     0.04445   0.60196   0.56456   0.00000  Uiso   1.00
N833   N     0.31574   0.51407   0.76416   0.00000  Uiso   1.00
N834   N     0.01759   0.48593   0.73584   0.00000  Uiso   1.00
O835   O     0.12797   0.57141   0.74633   0.00000  Uiso   1.00
O836   O     0.13685   0.44163   0.58118   0.00000  Uiso   1.00
O837   O     0.23771   0.35179   0.78002   0.00000  Uiso   1.00
O838   O     0.22858   0.58089   0.75587   0.00000  Uiso   1.00
O839   O     0.09181   0.49293   0.81839   0.00000  Uiso   1.00
O840   O     0.19242   0.50241   0.82793   0.00000  Uiso   1.00
O841   O     0.10476   0.41911   0.74413   0.00000  Uiso   1.00
O842   O     0.20536   0.42859   0.75367   0.00000  Uiso   1.00
O843   O     0.14092   0.49759   0.67207   0.00000  Uiso   1.00
O844   O     0.24152   0.50707   0.68161   0.00000  Uiso   1.00
O845   O     0.31328   0.62406   0.52608   0.00000  Uiso   1.00
C846   C     0.51411   0.59982   0.75378   0.00000  Uiso   1.00
C847   C     0.44974   0.48362   0.89978   0.00000  Uiso   1.00
C848   C     0.52032   0.65552   0.76091   0.00000  Uiso   1.00
C849   C     0.46709   0.49687   0.84666   0.00000  Uiso   1.00
C850   C     0.47807   0.34429   0.74700   0.00000  Uiso   1.00
C851   C     0.48511   0.40005   0.74878   0.00000  Uiso   1.00
C852   C     0.53285   0.50271   0.65326   0.00000  Uiso   1.00
C853   C     0.60732   0.57599   0.53704   0.00000  Uiso   1.00
C854   C     0.55121   0.51288   0.59939   0.00000  Uiso   1.00
C855   C     0.40564   0.43751   0.91117   0.00000  Uiso   1.00
C856   C     0.40872   0.40864   0.95093   0.00000  Uiso   1.00
C857   C     0.48980   0.47813   0.97711   0.00000  Uiso   1.00
C858   C     0.45378   0.42684   0.98079   0.00000  Uiso   1.00
C859   C     0.37469   0.62404   0.53216   0.00000  Uiso   1.00
C860   C     0.41177   0.60388   0.98372   0.00000  Uiso   1.00
C861   C     0.40747   0.44938   0.59474   0.00000  Uiso   1.00
C862   C     0.39511   0.50410   0.59034   0.00000  Uiso   1.00
C863   C     0.56662   0.34082   0.83139   0.00000  Uiso   1.00
C864   C     0.57736   0.39201   0.86256   0.00000  Uiso   1.00
C865   C     0.49053   0.50541   0.93379   0.00000  Uiso   1.00
C866   C     0.52572   0.50288   0.51422   0.00000  Uiso   1.00
C867   C     0.57000   0.55043   0.50220   0.00000  Uiso   1.00
C868   C     0.57437   0.57366   0.95642   0.00000  Uiso   1.00
C869   C     0.53349   0.55289   0.92405   0.00000  Uiso   1.00
C870   C     0.51495   0.48550   0.56463   0.00000  Uiso   1.00
C871   C     0.59609   0.55749   0.58571   0.00000  Uiso   1.00
Cu872  Cu    0.44043   0.49439   0.74436   0.00000  Uiso   1.00
Cu873  Cu    0.55957   0.50561   0.75565   0.00000  Uiso   1.00
H874   H     0.43764   0.65427   0.73324   0.00000  Uiso   1.00
H875   H     0.39725   0.66472   0.54078   0.00000  Uiso   1.00
H876   H     0.40957   0.62522   0.95059   0.00000  Uiso   1.00
H877   H     0.46108   0.60971   0.98802   0.00000  Uiso   1.00
H878   H     0.39290   0.56165   0.97689   0.00000  Uiso   1.00
H879   H     0.38931   0.43748   0.63429   0.00000  Uiso   1.00
H880   H     0.37791   0.42128   0.57190   0.00000  Uiso   1.00
H881   H     0.34600   0.50420   0.60796   0.00000  Uiso   1.00
H882   H     0.42512   0.53495   0.61037   0.00000  Uiso   1.00
H883   H     0.40171   0.51334   0.55003   0.00000  Uiso   1.00
H884   H     0.53509   0.57508   0.89163   0.00000  Uiso   1.00
H885   H     0.33742   0.54028   0.78897   0.00000  Uiso   1.00
H886   H     0.60353   0.65266   0.83379   0.00000  Uiso   1.00
H887   H     0.52067   0.65030   0.84913   0.00000  Uiso   1.00
H888   H     0.53772   0.41162   0.86446   0.00000  Uiso   1.00
H889   H     0.58074   0.38430   0.90171   0.00000  Uiso   1.00
H890   H     0.62104   0.41829   0.84487   0.00000  Uiso   1.00
H891   H     0.60699   0.61005   0.94671   0.00000  Uiso   1.00
H892   H     0.37484   0.42003   0.88527   0.00000  Uiso   1.00
H893   H     0.46132   0.39976   0.50536   0.00000  Uiso   1.00
H894   H     0.37850   0.37060   0.95654   0.00000  Uiso   1.00
H895   H     0.61901   0.58055   0.61454   0.00000  Uiso   1.00
H896   H     0.66215   0.45939   0.71156   0.00000  Uiso   1.00
H897   H     0.37779   0.60196   0.56456   0.00000  Uiso   1.00
N898   N     0.64908   0.51407   0.76416   0.00000  Uiso   1.00
N899   N     0.35092   0.48593   0.73584   0.00000  Uiso   1.00
O900   O     0.46131   0.57141   0.74633   0.00000  Uiso   1.00
O901   O     0.47019   0.44163   0.58118   0.00000  Uiso   1.00
O902   O     0.57104   0.35179   0.78002   0.00000  Uiso   1.00
O903   O     0.56191   0.58089   0.75587   0.00000  Uiso   1.00
O904   O     0.42515   0.49293   0.81839   0.00000  Uiso   1.00
O905   O     0.52575   0.50241   0.82793   0.00000  Uiso   1.00
O906   O     0.43809   0.41911   0.74413   0.00000  Uiso   1.00
O907   O     0.53869   0.42859   0.75367   0.00000  Uiso   1.00
O908   O     0.47425   0.49759   0.67207   0.00000  Uiso   1.00
O909   O     0.57485   0.50707   0.68161   0.00000  Uiso   1.00
O910   O     0.64661   0.62406   0.52608   0.00000  Uiso   1.00
C911   C     0.84744   0.59982   0.75378   0.00000  Uiso   1.00
C912   C     0.78307   0.48362   0.89978   0.00000  Uiso   1.00
C913   C     0.85366   0.65552   0.76091   0.00000  Uiso   1.00
C914   C     0.80043   0.49687   0.84666   0.00000  Uiso   1.00
C915   C     0.81141   0.34429   0.74700   0.00000  Uiso   1.00
C916   C     0.81844   0.40005   0.74878   0.00000  Uiso   1.00
C917   C     0.86618   0.50271   0.65326   0.00000  Uiso   1.00
C918   C     0.94065   0.57599   0.53704   0.00000  Uiso   1.00
C919   C     0.88455   0.51288   0.59939   0.00000  Uiso   1.00
C920   C     0.73897   0.43751   0.91117   0.00000  Uiso   1.00
C921   C     0.74205   0.40864   0.95093   0.00000  Uiso   1.00
C922   C     0.82313   0.47813   0.97711   0.00000  Uiso   1.00
C923   C     0.78711   0.42684   0.98079   0.00000  Uiso   1.00
C924   C     0.70802   0.62404   0.53216   0.00000  Uiso   1.00
C925   C     0.74511   0.60388   0.98372   0.00000  Uiso   1.00
C926   C     0.74081   0.44938   0.59474   0.00000  Uiso   1.00
C927   C     0.72845   0.50410   0.59034   0.00000  Uiso   1.00
C928   C     0.89995   0.34082   0.83139   0.00000  Uiso   1.00
C929   C     0.91069   0.39201   0.86256   0.00000  Uiso   1.00
C930   C     0.82386   0.50541   0.93379   0.00000  Uiso   1.00
C931   C     0.85906   0.50288   0.51422   0.00000  Uiso   1.00
C932   C     0.90333   0.55043   0.50220   0.00000  Uiso   1.00
C933   C     0.90770   0.57366   0.95642   0.00000  Uiso   1.00
C934   C     0.86682   0.55289   0.92405   0.00000  Uiso   1.00
C935   C     0.84828   0.48550   0.56463   0.00000  Uiso   1.00
C936   C     0.92942   0.55749   0.58571   0.00000  Uiso   1.00
Cu937  Cu    0.77377   0.49439   0.74436   0.00000  Uiso   1.00
Cu938  Cu    0.89290   0.50561   0.75565   0.00000  Uiso   1.00
H939   H     0.77098   0.65427   0.73324   0.00000  Uiso   1.00
H940   H     0.73058   0.66472   0.54078   0.00000  Uiso   1.00
H941   H     0.74290   0.62522   0.95059   0.00000  Uiso   1.00
H942   H     0.79441   0.60971   0.98802   0.00000  Uiso   1.00
H943   H     0.72623   0.56165   0.97689   0.00000  Uiso   1.00
H944   H     0.72264   0.43748   0.63429   0.00000  Uiso   1.00
H945   H     0.71125   0.42128   0.57190   0.00000  Uiso   1.00
H946   H     0.67934   0.50420   0.60796   0.00000  Uiso   1.00
H947   H     0.75846   0.53495   0.61037   0.00000  Uiso   1.00
H948   H     0.73504   0.51334   0.55003   0.00000  Uiso   1.00
H949   H     0.86842   0.57508   0.89163   0.00000  Uiso   1.00
H950   H     0.67075   0.54028   0.78897   0.00000  Uiso   1.00
H951   H     0.93686   0.65266   0.83379   0.00000  Uiso   1.00
H952   H     0.85401   0.65030   0.84913   0.00000  Uiso   1.00
H953   H     0.87106   0.41162   0.86446   0.00000  Uiso   1.00
H954   H     0.91407   0.38430   0.90171   0.00000  Uiso   1.00
H955   H     0.95437   0.41829   0.84487   0.00000  Uiso   1.00
H956   H     0.94032   0.61005   0.94671   0.00000  Uiso   1.00
H957   H     0.70818   0.42003   0.88527   0.00000  Uiso   1.00
H958   H     0.79465   0.39976   0.50536   0.00000  Uiso   1.00
H959   H     0.71183   0.37060   0.95654   0.00000  Uiso   1.00
H960   H     0.95235   0.58055   0.61454   0.00000  Uiso   1.00
H961   H     0.99549   0.45939   0.71156   0.00000  Uiso   1.00
H962   H     0.71112   0.60196   0.56456   0.00000  Uiso   1.00
N963   N     0.98241   0.51407   0.76416   0.00000  Uiso   1.00
N964   N     0.68426   0.48593   0.73584   0.00000  Uiso   1.00
O965   O     0.79464   0.57141   0.74633   0.00000  Uiso   1.00
O966   O     0.80352   0.44163   0.58118   0.00000  Uiso   1.00
O967   O     0.90438   0.35179   0.78002   0.00000  Uiso   1.00
O968   O     0.89524   0.58089   0.75587   0.00000  Uiso   1.00
O969   O     0.75848   0.49293   0.81839   0.00000  Uiso   1.00
O970   O     0.85908   0.50241   0.82793   0.00000  Uiso   1.00
O971   O     0.77142   0.41911   0.74413   0.00000  Uiso   1.00
O972   O     0.87203   0.42859   0.75367   0.00000  Uiso   1.00
O973   O     0.80758   0.49759   0.67207   0.00000  Uiso   1.00
O974   O     0.90819   0.50707   0.68161   0.00000  Uiso   1.00
O975   O     0.97995   0.62406   0.52608   0.00000  Uiso   1.00
C976   C     0.18078   0.93316   0.75378   0.00000  Uiso   1.00
C977   C     0.11641   0.81695   0.89978   0.00000  Uiso   1.00
C978   C     0.18699   0.98886   0.76091   0.00000  Uiso   1.00
C979   C     0.13376   0.83020   0.84666   0.00000  Uiso   1.00
C980   C     0.14474   0.67762   0.74700   0.00000  Uiso   1.00
C981   C     0.15178   0.73338   0.74878   0.00000  Uiso   1.00
C982   C     0.19952   0.83605   0.65326   0.00000  Uiso   1.00
C983   C     0.27399   0.90933   0.53704   0.00000  Uiso   1.00
C984   C     0.21788   0.84621   0.59939   0.00000  Uiso   1.00
C985   C     0.07230   0.77085   0.91117   0.00000  Uiso   1.00
C986   C     0.07538   0.74197   0.95093   0.00000  Uiso   1.00
C987   C     0.15647   0.81146   0.97711   0.00000  Uiso   1.00
C988   C     0.12044   0.76018   0.98079   0.00000  Uiso   1.00
C989   C     0.04136   0.95737   0.53216   0.00000  Uiso   1.00
C990   C     0.07844   0.93721   0.98372   0.00000  Uiso   1.00
C991   C     0.07414   0.78272   0.59474   0.00000  Uiso   1.00
C992   C     0.06178   0.83743   0.59034   0.00000  Uiso   1.00
C993   C     0.23328   0.67415   0.83139   0.00000  Uiso   1.00
C994   C     0.24402   0.72534   0.86256   0.00000  Uiso   1.00
C995   C     0.15719   0.83874   0.93379   0.00000  Uiso   1.00
C996   C     0.19239   0.83621   0.51422   0.00000  Uiso   1.00
C997   C     0.23667   0.88377   0.50220   0.00000  Uiso   1.00
C998   C     0.24104   0.90700   0.95642   0.00000  Uiso   1.00
C999   C     0.20016   0.88622   0.92405   0.00000  Uiso   1.00
C1000  C     0.18161   0.81884   0.56463   0.00000  Uiso   1.00
C1001  C     0.26275   0.89082   0.58571   0.00000  Uiso   1.00
Cu1002 Cu    0.10710   0.82772   0.74436   0.00000  Uiso   1.00
Cu1003 Cu    0.22623   0.83895   0.75565   0.00000  Uiso   1.00
H1004  H     0.10431   0.98760   0.73324   0.00000  Uiso   1.00
H1005  H     0.06391   0.99806   0.54078   0.00000  Uiso   1.00
H1006  H     0.07623   0.95856   0.95059   0.00000  Uiso   1.00
H1007  H     0.12775   0.94304   0.98802   0.00000  Uiso   1.00
H1008  H     0.05956   0.89499   0.97689   0.00000  Uiso   1.00
H1009  H     0.05598   0.77082   0.63429   0.00000  Uiso   1.00
H1010  H     0.04458   0.75462   0.57190   0.00000  Uiso   1.00
H1011  H     0.01267   0.83754   0.60796   0.00000  Uiso   1.00
H1012  H     0.09179   0.86828   0.61037   0.00000  Uiso   1.00
H1013  H     0.06838   0.84668   0.55003   0.00000  Uiso   1.00
H1014  H     0.20176   0.90841   0.89163   0.00000  Uiso   1.00
H1015  H     0.00409   0.87361   0.78897   0.00000  Uiso   1.00
H1016  H     0.27020   0.98599   0.83379   0.00000  Uiso   1.00
H1017  H     0.18734   0.98363   0.84913   0.00000  Uiso   1.00
H1018  H     0.20439   0.74495   0.86446   0.00000  Uiso   1.00
H1019  H     0.24741   0.71763   0.90171   0.00000  Uiso   1.00
H1020  H     0.28770   0.75162   0.84487   0.00000  Uiso   1.00
H1021  H     0.27366   0.94338   0.94671   0.00000  Uiso   1.00
H1022  H     0.04151   0.75336   0.88527   0.00000  Uiso   1.00
H1023  H     0.12799   0.73310   0.50536   0.00000  Uiso   1.00
H1024  H     0.04517   0.70393   0.95654   0.00000  Uiso   1.00
H1025  H     0.28568   0.91388   0.61454   0.00000  Uiso   1.00
H1026  H     0.32882   0.79273   0.71156   0.00000  Uiso   1.00
H1027  H     0.04445   0.93529   0.56456   0.00000  Uiso   1.00
N1028  N     0.31574   0.84741   0.76416   0.00000  Uiso   1.00
N1029  N     0.01759   0.81926   0.73584   0.00000  Uiso   1.00
O1030  O     0.12797   0.90474   0.74633   0.00000  Uiso   1.00
O1031  O     0.13685   0.77496   0.58118   0.00000  Uiso   1.00
O1032  O     0.23771   0.68512   0.78002   0.00000  Uiso   1.00
O1033  O     0.22858   0.91422   0.75587   0.00000  Uiso   1.00
O1034  O     0.09181   0.82627   0.81839   0.00000  Uiso   1.00
O1035  O     0.19242   0.83575   0.82793   0.00000  Uiso   1.00
O1036  O     0.10476   0.75245   0.74413   0.00000  Uiso   1.00
O1037  O     0.20536   0.76193   0.75367   0.00000  Uiso   1.00
O1038  O     0.14092   0.83092   0.67207   0.00000  Uiso   1.00
O1039  O     0.24152   0.84040   0.68161   0.00000  Uiso   1.00
O1040  O     0.31328   0.95740   0.52608   0.00000  Uiso   1.00
C1041  C     0.51411   0.93316   0.75378   0.00000  Uiso   1.00
C1042  C     0.44974   0.81695   0.89978   0.00000  Uiso   1.00
C1043  C     0.52032   0.98886   0.76091   0.00000  Uiso   1.00
C1044  C     0.46709   0.83020   0.84666   0.00000  Uiso   1.00
C1045  C     0.47807   0.67762   0.74700   0.00000  Uiso   1.00
C1046  C     0.48511   0.73338   0.74878   0.00000  Uiso   1.00
C1047  C     0.53285   0.83605   0.65326   0.00000  Uiso   1.00
C1048  C     0.60732   0.90933   0.53704   0.00000  Uiso   1.00
C1049  C     0.55121   0.84621   0.59939   0.00000  Uiso   1.00
C1050  C     0.40564   0.77085   0.91117   0.00000  Uiso   1.00
C1051  C     0.40872   0.74197   0.95093   0.00000  Uiso   1.00
C1052  C     0.48980   0.81146   0.97711   0.00000  Uiso   1.00
C1053  C     0.45378   0.76018   0.98079   0.00000  Uiso   1.00
C1054  C     0.37469   0.95737   0.53216   0.00000  Uiso   1.00
C1055  C     0.41177   0.93721   0.98372   0.00000  Uiso   1.00
C1056  C     0.40747   0.78272   0.59474   0.00000  Uiso   1.00
C1057  C     0.39511   0.83743   0.59034   0.00000  Uiso   1.00
C1058  C     0.56662   0.67415   0.83139   0.00000  Uiso   1.00
C1059  C     0.57736   0.72534   0.86256   0.00000  Uiso   1.00
C1060  C     0.49053   0.83874   0.93379   0.00000  Uiso   1.00
C1061  C     0.52572   0.83621   0.51422   0.00000  Uiso   1.00
C1062  C     0.57000   0.88377   0.50220   0.00000  Uiso   1.00
C1063  C     0.57437   0.90700   0.95642   0.00000  Uiso   1.00
C1064  C     0.53349   0.88622   0.92405   0.00000  Uiso   1.00
C1065  C     0.51495   0.81884   0.56463   0.00000  Uiso   1.00
C1066  C     0.59609   0.89082   0.58571   0.00000  Uiso   1.00
Cu1067 Cu    0.44043   0.82772   0.74436   0.00000  Uiso   1.00
Cu1068 Cu    0.55957   0.83895   0.75565   0.00000  Uiso   1.00
H1069  H     0.43764   0.98760   0.73324   0.00000  Uiso   1.00
H1070  H     0.39725   0.99806   0.54078   0.00000  Uiso   1.00
H1071  H     0.40957   0.95856   0.95059   0.00000  Uiso   1.00
H1072  H     0.46108   0.94304   0.98802   0.00000  Uiso   1.00
H1073  H     0.39290   0.89499   0.97689   0.00000  Uiso   1.00
H1074  H     0.38931   0.77082   0.63429   0.00000  Uiso   1.00
H1075  H     0.37791   0.75462   0.57190   0.00000  Uiso   1.00
H1076  H     0.34600   0.83754   0.60796   0.00000  Uiso   1.00
H1077  H     0.42512   0.86828   0.61037   0.00000  Uiso   1.00
H1078  H     0.40171   0.84668   0.55003   0.00000  Uiso   1.00
H1079  H     0.53509   0.90841   0.89163   0.00000  Uiso   1.00
H1080  H     0.33742   0.87361   0.78897   0.00000  Uiso   1.00
H1081  H     0.60353   0.98599   0.83379   0.00000  Uiso   1.00
H1082  H     0.52067   0.98363   0.84913   0.00000  Uiso   1.00
H1083  H     0.53772   0.74495   0.86446   0.00000  Uiso   1.00
H1084  H     0.58074   0.71763   0.90171   0.00000  Uiso   1.00
H1085  H     0.62104   0.75162   0.84487   0.00000  Uiso   1.00
H1086  H     0.60699   0.94338   0.94671   0.00000  Uiso   1.00
H1087  H     0.37484   0.75336   0.88527   0.00000  Uiso   1.00
H1088  H     0.46132   0.73310   0.50536   0.00000  Uiso   1.00
H1089  H     0.37850   0.70393   0.95654   0.00000  Uiso   1.00
H1090  H     0.61901   0.91388   0.61454   0.00000  Uiso   1.00
H1091  H     0.66215   0.79273   0.71156   0.00000  Uiso   1.00
H1092  H     0.37779   0.93529   0.56456   0.00000  Uiso   1.00
N1093  N     0.64908   0.84741   0.76416   0.00000  Uiso   1.00
N1094  N     0.35092   0.81926   0.73584   0.00000  Uiso   1.00
O1095  O     0.46131   0.90474   0.74633   0.00000  Uiso   1.00
O1096  O     0.47019   0.77496   0.58118   0.00000  Uiso   1.00
O1097  O     0.57104   0.68512   0.78002   0.00000  Uiso   1.00
O1098  O     0.56191   0.91422   0.75587   0.00000  Uiso   1.00
O1099  O     0.42515   0.82627   0.81839   0.00000  Uiso   1.00
O1100  O     0.52575   0.83575   0.82793   0.00000  Uiso   1.00
O1101  O     0.43809   0.75245   0.74413   0.00000  Uiso   1.00
O1102  O     0.53869   0.76193   0.75367   0.00000  Uiso   1.00
O1103  O     0.47425   0.83092   0.67207   0.00000  Uiso   1.00
O1104  O     0.57485   0.84040   0.68161   0.00000  Uiso   1.00
O1105  O     0.64661   0.95740   0.52608   0.00000  Uiso   1.00
C1106  C     0.84744   0.93316   0.75378   0.00000  Uiso   1.00
C1107  C     0.78307   0.81695   0.89978   0.00000  Uiso   1.00
C1108  C     0.85366   0.98886   0.76091   0.00000  Uiso   1.00
C1109  C     0.80043   0.83020   0.84666   0.00000  Uiso   1.00
C1110  C     0.81141   0.67762   0.74700   0.00000  Uiso   1.00
C1111  C     0.81844   0.73338   0.74878   0.00000  Uiso   1.00
C1112  C     0.86618   0.83605   0.65326   0.00000  Uiso   1.00
C1113  C     0.94065   0.90933   0.53704   0.00000  Uiso   1.00
C1114  C     0.88455   0.84621   0.59939   0.00000  Uiso   1.00
C1115  C     0.73897   0.77085   0.91117   0.00000  Uiso   1.00
C1116  C     0.74205   0.74197   0.95093   0.00000  Uiso   1.00
C1117  C     0.82313   0.81146   0.97711   0.00000  Uiso   1.00
C1118  C     0.78711   0.76018   0.98079   0.00000  Uiso   1.00
C1119  C     0.70802   0.95737   0.53216   0.00000  Uiso   1.00
C1120  C     0.74511   0.93721   0.98372   0.00000  Uiso   1.00
C1121  C     0.74081   0.78272   0.59474   0.00000  Uiso   1.00
C1122  C     0.72845   0.83743   0.59034   0.00000  Uiso   1.00
C1123  C     0.89995   0.67415   0.83139   0.00000  Uiso   1.00
C1124  C     0.91069   0.72534   0.86256   0.00000  Uiso   1.00
C1125  C     0.82386   0.83874   0.93379   0.00000  Uiso   1.00
C1126  C     0.85906   0.83621   0.51422   0.00000  Uiso   1.00
C1127  C     0.90333   0.88377   0.50220   0.00000  Uiso   1.00
C1128  C     0.90770   0.90700   0.95642   0.00000  Uiso   1.00
C1129  C     0.86682   0.88622   0.92405   0.00000  Uiso   1.00
C1130  C     0.84828   0.81884   0.56463   0.00000  Uiso   1.00
C1131  C     0.92942   0.89082   0.58571   0.00000  Uiso   1.00
Cu1132 Cu    0.77377   0.82772   0.74436   0.00000  Uiso   1.00
Cu1133 Cu    0.89290   0.83895   0.75565   0.00000  Uiso   1.00
H1134  H     0.77098   0.98760   0.73324   0.00000  Uiso   1.00
H1135  H     0.73058   0.99806   0.54078   0.00000  Uiso   1.00
H1136  H     0.74290   0.95856   0.95059   0.00000  Uiso   1.00
H1137  H     0.79441   0.94304   0.98802   0.00000  Uiso   1.00
H1138  H     0.72623   0.89499   0.97689   0.00000  Uiso   1.00
H1139  H     0.72264   0.77082   0.63429   0.00000  Uiso   1.00
H1140  H     0.71125   0.75462   0.57190   0.00000  Uiso   1.00
H1141  H     0.67934   0.83754   0.60796   0.00000  Uiso   1.00
H1142  H     0.75846   0.86828   0.61037   0.00000  Uiso   1.00
H1143  H     0.73504   0.84668   0.55003   0.00000  Uiso   1.00
H1144  H     0.86842   0.90841   0.89163   0.00000  Uiso   1.00
H1145  H     0.67075   0.87361   0.78897   0.00000  Uiso   1.00
H1146  H     0.93686   0.98599   0.83379   0.00000  Uiso   1.00
H1147  H     0.85401   0.98363   0.84913   0.00000  Uiso   1.00
H1148  H     0.87106   0.74495   0.86446   0.00000  Uiso   1.00
H1149  H     0.91407   0.71763   0.90171   0.00000  Uiso   1.00
H1150  H     0.95437   0.75162   0.84487   0.00000  Uiso   1.00
H1151  H     0.94032   0.94338   0.94671   0.00000  Uiso   1.00
H1152  H     0.70818   0.75336   0.88527   0.00000  Uiso   1.00
H1153  H     0.79465   0.73310   0.50536   0.00000  Uiso   1.00
H1154  H     0.71183   0.70393   0.95654   0.00000  Uiso   1.00
H1155  H     0.95235   0.91388   0.61454   0.00000  Uiso   1.00
H1156  H     0.99549   0.79273   0.71156   0.00000  Uiso   1.00
H1157  H     0.71112   0.93529   0.56456   0.00000  Uiso   1.00
N1158  N     0.98241   0.84741   0.76416   0.00000  Uiso   1.00
N1159  N     0.68426   0.81926   0.73584   0.00000  Uiso   1.00
O1160  O     0.79464   0.90474   0.74633   0.00000  Uiso   1.00
O1161  O     0.80352   0.77496   0.58118   0.00000  Uiso   1.00
O1162  O     0.90438   0.68512   0.78002   0.00000  Uiso   1.00
O1163  O     0.89524   0.91422   0.75587   0.00000  Uiso   1.00
O1164  O     0.75848   0.82627   0.81839   0.00000  Uiso   1.00
O1165  O     0.85908   0.83575   0.82793   0.00000  Uiso   1.00
O1166  O     0.77142   0.75245   0.74413   0.00000  Uiso   1.00
O1167  O     0.87203   0.76193   0.75367   0.00000  Uiso   1.00
O1168  O     0.80758   0.83092   0.67207   0.00000  Uiso   1.00
O1169  O     0.90819   0.84040   0.68161   0.00000  Uiso   1.00
O1170  O     0.97995   0.95740   0.52608   0.00000  Uiso   1.00
loop_
_geom_bond_atom_site_label_1
_geom_bond_atom_site_label_2
_geom_bond_distance
_geom_bond_site_symmetry_2
_ccdc_geom_bond_type
C1     O55     1.294   .     A
C1     O58     1.286   .     A
C1     C3      1.437   .     S
C2     C4      1.457   .     S
C2     C20     1.419   .     A
C2     C10     1.397   .     A
C3     C200    1.337   .     S
C3     O252    1.390   .     S
C4     O60     1.289   .     A
C4     O59     1.304   .     A
C5     C6      1.434   .     S
C5     C393    1.337   1_545 S
C5     H419    1.088   1_545 S
C6     O62     1.291   .     A
C6     O61     1.290   .     A
C7     O63     1.289   .     A
C7     O64     1.305   .     A
C7     C9      1.458   .     S
C8     C26     1.394   .     A
C8     C22     1.409   .     A
C8     O65     1.388   .     S
C9     C25     1.408   .     A
C9     C26     1.388   .     A
C10    H47     1.082   .     S
C10    C11     1.385   .     A
C11    H49     1.080   .     S
C11    C13     1.392   .     A
C12    C20     1.416   .     A
C12    C13     1.409   .     A
C12    C606    1.431   .     S
C13    H633    1.072   .     S
C14    H30     1.103   .     S
C14    H52     1.109   .     S
C14    C600    1.521   1_554 S
C14    O195    1.415   1_455 S
C15    H31     1.108   .     S
C15    H32     1.107   .     S
C15    H33     1.110   .     S
C15    C599    1.521   .     S
C16    O56     1.431   .     S
C16    H35     1.109   .     S
C16    H34     1.107   .     S
C16    C17     1.539   .     S
C17    H36     1.106   .     S
C17    H37     1.108   .     S
C17    H38     1.107   .     S
C18    O57     1.417   .     S
C18    C19     1.521   .     S
C18    H431    1.111   1_545 S
C18    H432    1.118   1_545 S
C19    H44     1.111   .     S
C19    H43     1.109   .     S
C19    H45     1.110   .     S
C20    C24     1.406   .     A
C21    C22     1.429   .     A
C21    C25     1.427   .     A
C21    C597    1.431   1_554 S
C22    C608    1.399   1_554 S
C23    C24     1.383   .     A
C23    H46     1.084   .     S
C23    C607    1.399   .     S
C24    H39     1.081   .     S
C25    O56     1.390   .     S
C26    H50     1.084   .     S
Cu27   N54     2.022   .     S
Cu27   O63     1.945   .     S
Cu27   O55     1.971   .     S
Cu27   Cu28    2.690   .     S
Cu27   O59     1.958   .     S
Cu27   O61     1.964   .     S
Cu28   N53     2.022   .     S
Cu28   O58     1.964   .     S
Cu28   O60     1.945   .     S
Cu28   O64     1.958   .     S
Cu28   O62     1.971   .     S
H29    C200    1.088   .     S
H40    N183    1.029   1_455 S
H41    C213    1.111   .     S
H42    C213    1.118   .     S
H48    C598    1.072   1_554 S
H51    N119    1.028   .     S
N53    H105    1.029   .     S
N53    N119    1.290   .     S
N54    N183    1.290   1_455 S
N54    H181    1.028   1_455 S
O57    C393    1.390   1_545 S
O65    C79     1.415   .     S
C66    O120    1.294   .     A
C66    O123    1.286   .     A
C66    C68     1.437   .     S
C67    C69     1.457   .     S
C67    C85     1.419   .     A
C67    C75     1.397   .     A
C68    C265    1.337   .     S
C68    O317    1.390   .     S
C69    O125    1.289   .     A
C69    O124    1.304   .     A
C70    C71     1.434   .     S
C70    C458    1.337   1_545 S
C70    H484    1.088   1_545 S
C71    O127    1.291   .     A
C71    O126    1.290   .     A
C72    O128    1.289   .     A
C72    O129    1.305   .     A
C72    C74     1.458   .     S
C73    C91     1.394   .     A
C73    C87     1.409   .     A
C73    O130    1.388   .     S
C74    C90     1.408   .     A
C74    C91     1.388   .     A
C75    H112    1.082   .     S
C75    C76     1.385   .     A
C76    H114    1.080   .     S
C76    C78     1.392   .     A
C77    C85     1.416   .     A
C77    C78     1.409   .     A
C77    C671    1.431   .     S
C78    H698    1.072   .     S
C79    H95     1.103   .     S
C79    H117    1.109   .     S
C79    C665    1.521   1_554 S
C80    H96     1.108   .     S
C80    H97     1.107   .     S
C80    H98     1.110   .     S
C80    C664    1.521   .     S
C81    O121    1.431   .     S
C81    H100    1.109   .     S
C81    H99     1.107   .     S
C81    C82     1.539   .     S
C82    H101    1.106   .     S
C82    H102    1.108   .     S
C82    H103    1.107   .     S
C83    O122    1.417   .     S
C83    C84     1.521   .     S
C83    H496    1.111   1_545 S
C83    H497    1.118   1_545 S
C84    H109    1.111   .     S
C84    H108    1.109   .     S
C84    H110    1.110   .     S
C85    C89     1.406   .     A
C86    C87     1.429   .     A
C86    C90     1.427   .     A
C86    C662    1.431   1_554 S
C87    C673    1.399   1_554 S
C88    C89     1.383   .     A
C88    H111    1.084   .     S
C88    C672    1.399   .     S
C89    H104    1.081   .     S
C90    O121    1.390   .     S
C91    H115    1.084   .     S
Cu92   N119    2.022   .     S
Cu92   O128    1.945   .     S
Cu92   O120    1.971   .     S
Cu92   Cu93    2.690   .     S
Cu92   O124    1.958   .     S
Cu92   O126    1.964   .     S
Cu93   N118    2.022   .     S
Cu93   O123    1.964   .     S
Cu93   O125    1.945   .     S
Cu93   O129    1.958   .     S
Cu93   O127    1.971   .     S
H94    C265    1.088   .     S
H106   C278    1.111   .     S
H107   C278    1.118   .     S
H113   C663    1.072   1_554 S
H116   N184    1.028   .     S
N118   H170    1.029   .     S
N118   N184    1.290   .     S
O122   C458    1.390   1_545 S
O130   C144    1.415   .     S
C131   O185    1.294   .     A
C131   O188    1.286   .     A
C131   C133    1.437   .     S
C132   C134    1.457   .     S
C132   C150    1.419   .     A
C132   C140    1.397   .     A
C133   C330    1.337   .     S
C133   O382    1.390   .     S
C134   O190    1.289   .     A
C134   O189    1.304   .     A
C135   C136    1.434   .     S
C135   C523    1.337   1_545 S
C135   H549    1.088   1_545 S
C136   O192    1.291   .     A
C136   O191    1.290   .     A
C137   O193    1.289   .     A
C137   O194    1.305   .     A
C137   C139    1.458   .     S
C138   C156    1.394   .     A
C138   C152    1.409   .     A
C138   O195    1.388   .     S
C139   C155    1.408   .     A
C139   C156    1.388   .     A
C140   H177    1.082   .     S
C140   C141    1.385   .     A
C141   H179    1.080   .     S
C141   C143    1.392   .     A
C142   C150    1.416   .     A
C142   C143    1.409   .     A
C142   C736    1.431   .     S
C143   H763    1.072   .     S
C144   H160    1.103   .     S
C144   H182    1.109   .     S
C144   C730    1.521   1_554 S
C145   H161    1.108   .     S
C145   H162    1.107   .     S
C145   H163    1.110   .     S
C145   C729    1.521   .     S
C146   O186    1.431   .     S
C146   H165    1.109   .     S
C146   H164    1.107   .     S
C146   C147    1.539   .     S
C147   H166    1.106   .     S
C147   H167    1.108   .     S
C147   H168    1.107   .     S
C148   O187    1.417   .     S
C148   C149    1.521   .     S
C148   H561    1.111   1_545 S
C148   H562    1.118   1_545 S
C149   H174    1.111   .     S
C149   H173    1.109   .     S
C149   H175    1.110   .     S
C150   C154    1.406   .     A
C151   C152    1.429   .     A
C151   C155    1.427   .     A
C151   C727    1.431   1_554 S
C152   C738    1.399   1_554 S
C153   C154    1.383   .     A
C153   H176    1.084   .     S
C153   C737    1.399   .     S
C154   H169    1.081   .     S
C155   O186    1.390   .     S
C156   H180    1.084   .     S
Cu157  N184    2.022   .     S
Cu157  O193    1.945   .     S
Cu157  O185    1.971   .     S
Cu157  Cu158   2.690   .     S
Cu157  O189    1.958   .     S
Cu157  O191    1.964   .     S
Cu158  N183    2.022   .     S
Cu158  O188    1.964   .     S
Cu158  O190    1.945   .     S
Cu158  O194    1.958   .     S
Cu158  O192    1.971   .     S
H159   C330    1.088   .     S
H171   C343    1.111   .     S
H172   C343    1.118   .     S
H178   C728    1.072   1_554 S
H181   N54     1.028   1_655 S
N183   H40     1.029   1_655 S
N183   N54     1.290   1_655 S
O187   C523    1.390   1_545 S
O195   C14     1.415   1_655 S
C196   O250    1.294   .     A
C196   O253    1.286   .     A
C196   C198    1.437   .     S
C197   C199    1.457   .     S
C197   C215    1.419   .     A
C197   C205    1.397   .     A
C198   C395    1.337   .     S
C198   O447    1.390   .     S
C199   O255    1.289   .     A
C199   O254    1.304   .     A
C200   C201    1.434   .     S
C201   O257    1.291   .     A
C201   O256    1.290   .     A
C202   O258    1.289   .     A
C202   O259    1.305   .     A
C202   C204    1.458   .     S
C203   C221    1.394   .     A
C203   C217    1.409   .     A
C203   O260    1.388   .     S
C204   C220    1.408   .     A
C204   C221    1.388   .     A
C205   H242    1.082   .     S
C205   C206    1.385   .     A
C206   H244    1.080   .     S
C206   C208    1.392   .     A
C207   C215    1.416   .     A
C207   C208    1.409   .     A
C207   C801    1.431   .     S
C208   H828    1.072   .     S
C209   H225    1.103   .     S
C209   H247    1.109   .     S
C209   C795    1.521   1_554 S
C209   O390    1.415   1_455 S
C210   H226    1.108   .     S
C210   H227    1.107   .     S
C210   H228    1.110   .     S
C210   C794    1.521   .     S
C211   O251    1.431   .     S
C211   H230    1.109   .     S
C211   H229    1.107   .     S
C211   C212    1.539   .     S
C212   H231    1.106   .     S
C212   H232    1.108   .     S
C212   H233    1.107   .     S
C213   O252    1.417   .     S
C213   C214    1.521   .     S
C214   H239    1.111   .     S
C214   H238    1.109   .     S
C214   H240    1.110   .     S
C215   C219    1.406   .     A
C216   C217    1.429   .     A
C216   C220    1.427   .     A
C216   C792    1.431   1_554 S
C217   C803    1.399   1_554 S
C218   C219    1.383   .     A
C218   H241    1.084   .     S
C218   C802    1.399   .     S
C219   H234    1.081   .     S
C220   O251    1.390   .     S
C221   H245    1.084   .     S
Cu222  N249    2.022   .     S
Cu222  O258    1.945   .     S
Cu222  O250    1.971   .     S
Cu222  Cu223   2.690   .     S
Cu222  O254    1.958   .     S
Cu222  O256    1.964   .     S
Cu223  N248    2.022   .     S
Cu223  O253    1.964   .     S
Cu223  O255    1.945   .     S
Cu223  O259    1.958   .     S
Cu223  O257    1.971   .     S
H224   C395    1.088   .     S
H235   N378    1.029   1_455 S
H236   C408    1.111   .     S
H237   C408    1.118   .     S
H243   C793    1.072   1_554 S
H246   N314    1.028   .     S
N248   H300    1.029   .     S
N248   N314    1.290   .     S
N249   N378    1.290   1_455 S
N249   H376    1.028   1_455 S
O260   C274    1.415   .     S
C261   O315    1.294   .     A
C261   O318    1.286   .     A
C261   C263    1.437   .     S
C262   C264    1.457   .     S
C262   C280    1.419   .     A
C262   C270    1.397   .     A
C263   C460    1.337   .     S
C263   O512    1.390   .     S
C264   O320    1.289   .     A
C264   O319    1.304   .     A
C265   C266    1.434   .     S
C266   O322    1.291   .     A
C266   O321    1.290   .     A
C267   O323    1.289   .     A
C267   O324    1.305   .     A
C267   C269    1.458   .     S
C268   C286    1.394   .     A
C268   C282    1.409   .     A
C268   O325    1.388   .     S
C269   C285    1.408   .     A
C269   C286    1.388   .     A
C270   H307    1.082   .     S
C270   C271    1.385   .     A
C271   H309    1.080   .     S
C271   C273    1.392   .     A
C272   C280    1.416   .     A
C272   C273    1.409   .     A
C272   C866    1.431   .     S
C273   H893    1.072   .     S
C274   H290    1.103   .     S
C274   H312    1.109   .     S
C274   C860    1.521   1_554 S
C275   H291    1.108   .     S
C275   H292    1.107   .     S
C275   H293    1.110   .     S
C275   C859    1.521   .     S
C276   O316    1.431   .     S
C276   H295    1.109   .     S
C276   H294    1.107   .     S
C276   C277    1.539   .     S
C277   H296    1.106   .     S
C277   H297    1.108   .     S
C277   H298    1.107   .     S
C278   O317    1.417   .     S
C278   C279    1.521   .     S
C279   H304    1.111   .     S
C279   H303    1.109   .     S
C279   H305    1.110   .     S
C280   C284    1.406   .     A
C281   C282    1.429   .     A
C281   C285    1.427   .     A
C281   C857    1.431   1_554 S
C282   C868    1.399   1_554 S
C283   C284    1.383   .     A
C283   H306    1.084   .     S
C283   C867    1.399   .     S
C284   H299    1.081   .     S
C285   O316    1.390   .     S
C286   H310    1.084   .     S
Cu287  N314    2.022   .     S
Cu287  O323    1.945   .     S
Cu287  O315    1.971   .     S
Cu287  Cu288   2.690   .     S
Cu287  O319    1.958   .     S
Cu287  O321    1.964   .     S
Cu288  N313    2.022   .     S
Cu288  O318    1.964   .     S
Cu288  O320    1.945   .     S
Cu288  O324    1.958   .     S
Cu288  O322    1.971   .     S
H289   C460    1.088   .     S
H301   C473    1.111   .     S
H302   C473    1.118   .     S
H308   C858    1.072   1_554 S
H311   N379    1.028   .     S
N313   H365    1.029   .     S
N313   N379    1.290   .     S
O325   C339    1.415   .     S
C326   O380    1.294   .     A
C326   O383    1.286   .     A
C326   C328    1.437   .     S
C327   C329    1.457   .     S
C327   C345    1.419   .     A
C327   C335    1.397   .     A
C328   C525    1.337   .     S
C328   O577    1.390   .     S
C329   O385    1.289   .     A
C329   O384    1.304   .     A
C330   C331    1.434   .     S
C331   O387    1.291   .     A
C331   O386    1.290   .     A
C332   O388    1.289   .     A
C332   O389    1.305   .     A
C332   C334    1.458   .     S
C333   C351    1.394   .     A
C333   C347    1.409   .     A
C333   O390    1.388   .     S
C334   C350    1.408   .     A
C334   C351    1.388   .     A
C335   H372    1.082   .     S
C335   C336    1.385   .     A
C336   H374    1.080   .     S
C336   C338    1.392   .     A
C337   C345    1.416   .     A
C337   C338    1.409   .     A
C337   C931    1.431   .     S
C338   H958    1.072   .     S
C339   H355    1.103   .     S
C339   H377    1.109   .     S
C339   C925    1.521   1_554 S
C340   H356    1.108   .     S
C340   H357    1.107   .     S
C340   H358    1.110   .     S
C340   C924    1.521   .     S
C341   O381    1.431   .     S
C341   H360    1.109   .     S
C341   H359    1.107   .     S
C341   C342    1.539   .     S
C342   H361    1.106   .     S
C342   H362    1.108   .     S
C342   H363    1.107   .     S
C343   O382    1.417   .     S
C343   C344    1.521   .     S
C344   H369    1.111   .     S
C344   H368    1.109   .     S
C344   H370    1.110   .     S
C345   C349    1.406   .     A
C346   C347    1.429   .     A
C346   C350    1.427   .     A
C346   C922    1.431   1_554 S
C347   C933    1.399   1_554 S
C348   C349    1.383   .     A
C348   H371    1.084   .     S
C348   C932    1.399   .     S
C349   H364    1.081   .     S
C350   O381    1.390   .     S
C351   H375    1.084   .     S
Cu352  N379    2.022   .     S
Cu352  O388    1.945   .     S
Cu352  O380    1.971   .     S
Cu352  Cu353   2.690   .     S
Cu352  O384    1.958   .     S
Cu352  O386    1.964   .     S
Cu353  N378    2.022   .     S
Cu353  O383    1.964   .     S
Cu353  O385    1.945   .     S
Cu353  O389    1.958   .     S
Cu353  O387    1.971   .     S
H354   C525    1.088   .     S
H366   C538    1.111   .     S
H367   C538    1.118   .     S
H373   C923    1.072   1_554 S
H376   N249    1.028   1_655 S
N378   H235    1.029   1_655 S
N378   N249    1.290   1_655 S
O390   C209    1.415   1_655 S
C391   O445    1.294   .     A
C391   O448    1.286   .     A
C391   C393    1.437   .     S
C392   C394    1.457   .     S
C392   C410    1.419   .     A
C392   C400    1.397   .     A
C393   C5      1.337   1_565 S
C393   O57     1.390   1_565 S
C394   O450    1.289   .     A
C394   O449    1.304   .     A
C395   C396    1.434   .     S
C396   O452    1.291   .     A
C396   O451    1.290   .     A
C397   O453    1.289   .     A
C397   O454    1.305   .     A
C397   C399    1.458   .     S
C398   C416    1.394   .     A
C398   C412    1.409   .     A
C398   O455    1.388   .     S
C399   C415    1.408   .     A
C399   C416    1.388   .     A
C400   H437    1.082   .     S
C400   C401    1.385   .     A
C401   H439    1.080   .     S
C401   C403    1.392   .     A
C402   C410    1.416   .     A
C402   C403    1.409   .     A
C402   C996    1.431   .     S
C403   H1023   1.072   .     S
C404   H420    1.103   .     S
C404   H442    1.109   .     S
C404   C990    1.521   1_554 S
C404   O585    1.415   1_455 S
C405   H421    1.108   .     S
C405   H422    1.107   .     S
C405   H423    1.110   .     S
C405   C989    1.521   .     S
C406   O446    1.431   .     S
C406   H425    1.109   .     S
C406   H424    1.107   .     S
C406   C407    1.539   .     S
C407   H426    1.106   .     S
C407   H427    1.108   .     S
C407   H428    1.107   .     S
C408   O447    1.417   .     S
C408   C409    1.521   .     S
C409   H434    1.111   .     S
C409   H433    1.109   .     S
C409   H435    1.110   .     S
C410   C414    1.406   .     A
C411   C412    1.429   .     A
C411   C415    1.427   .     A
C411   C987    1.431   1_554 S
C412   C998    1.399   1_554 S
C413   C414    1.383   .     A
C413   H436    1.084   .     S
C413   C997    1.399   .     S
C414   H429    1.081   .     S
C415   O446    1.390   .     S
C416   H440    1.084   .     S
Cu417  N444    2.022   .     S
Cu417  O453    1.945   .     S
Cu417  O445    1.971   .     S
Cu417  Cu418   2.690   .     S
Cu417  O449    1.958   .     S
Cu417  O451    1.964   .     S
Cu418  N443    2.022   .     S
Cu418  O448    1.964   .     S
Cu418  O450    1.945   .     S
Cu418  O454    1.958   .     S
Cu418  O452    1.971   .     S
H419   C5      1.088   1_565 S
H430   N573    1.029   1_455 S
H431   C18     1.111   1_565 S
H432   C18     1.118   1_565 S
H438   C988    1.072   1_554 S
H441   N509    1.028   .     S
N443   H495    1.029   .     S
N443   N509    1.290   .     S
N444   N573    1.290   1_455 S
N444   H571    1.028   1_455 S
O455   C469    1.415   .     S
C456   O510    1.294   .     A
C456   O513    1.286   .     A
C456   C458    1.437   .     S
C457   C459    1.457   .     S
C457   C475    1.419   .     A
C457   C465    1.397   .     A
C458   C70     1.337   1_565 S
C458   O122    1.390   1_565 S
C459   O515    1.289   .     A
C459   O514    1.304   .     A
C460   C461    1.434   .     S
C461   O517    1.291   .     A
C461   O516    1.290   .     A
C462   O518    1.289   .     A
C462   O519    1.305   .     A
C462   C464    1.458   .     S
C463   C481    1.394   .     A
C463   C477    1.409   .     A
C463   O520    1.388   .     S
C464   C480    1.408   .     A
C464   C481    1.388   .     A
C465   H502    1.082   .     S
C465   C466    1.385   .     A
C466   H504    1.080   .     S
C466   C468    1.392   .     A
C467   C475    1.416   .     A
C467   C468    1.409   .     A
C467   C1061   1.431   .     S
C468   H1088   1.072   .     S
C469   H485    1.103   .     S
C469   H507    1.109   .     S
C469   C1055   1.521   1_554 S
C470   H486    1.108   .     S
C470   H487    1.107   .     S
C470   H488    1.110   .     S
C470   C1054   1.521   .     S
C471   O511    1.431   .     S
C471   H490    1.109   .     S
C471   H489    1.107   .     S
C471   C472    1.539   .     S
C472   H491    1.106   .     S
C472   H492    1.108   .     S
C472   H493    1.107   .     S
C473   O512    1.417   .     S
C473   C474    1.521   .     S
C474   H499    1.111   .     S
C474   H498    1.109   .     S
C474   H500    1.110   .     S
C475   C479    1.406   .     A
C476   C477    1.429   .     A
C476   C480    1.427   .     A
C476   C1052   1.431   1_554 S
C477   C1063   1.399   1_554 S
C478   C479    1.383   .     A
C478   H501    1.084   .     S
C478   C1062   1.399   .     S
C479   H494    1.081   .     S
C480   O511    1.390   .     S
C481   H505    1.084   .     S
Cu482  N509    2.022   .     S
Cu482  O518    1.945   .     S
Cu482  O510    1.971   .     S
Cu482  Cu483   2.690   .     S
Cu482  O514    1.958   .     S
Cu482  O516    1.964   .     S
Cu483  N508    2.022   .     S
Cu483  O513    1.964   .     S
Cu483  O515    1.945   .     S
Cu483  O519    1.958   .     S
Cu483  O517    1.971   .     S
H484   C70     1.088   1_565 S
H496   C83     1.111   1_565 S
H497   C83     1.118   1_565 S
H503   C1053   1.072   1_554 S
H506   N574    1.028   .     S
N508   H560    1.029   .     S
N508   N574    1.290   .     S
O520   C534    1.415   .     S
C521   O575    1.294   .     A
C521   O578    1.286   .     A
C521   C523    1.437   .     S
C522   C524    1.457   .     S
C522   C540    1.419   .     A
C522   C530    1.397   .     A
C523   C135    1.337   1_565 S
C523   O187    1.390   1_565 S
C524   O580    1.289   .     A
C524   O579    1.304   .     A
C525   C526    1.434   .     S
C526   O582    1.291   .     A
C526   O581    1.290   .     A
C527   O583    1.289   .     A
C527   O584    1.305   .     A
C527   C529    1.458   .     S
C528   C546    1.394   .     A
C528   C542    1.409   .     A
C528   O585    1.388   .     S
C529   C545    1.408   .     A
C529   C546    1.388   .     A
C530   H567    1.082   .     S
C530   C531    1.385   .     A
C531   H569    1.080   .     S
C531   C533    1.392   .     A
C532   C540    1.416   .     A
C532   C533    1.409   .     A
C532   C1126   1.431   .     S
C533   H1153   1.072   .     S
C534   H550    1.103   .     S
C534   H572    1.109   .     S
C534   C1120   1.521   1_554 S
C535   H551    1.108   .     S
C535   H552    1.107   .     S
C535   H553    1.110   .     S
C535   C1119   1.521   .     S
C536   O576    1.431   .     S
C536   H555    1.109   .     S
C536   H554    1.107   .     S
C536   C537    1.539   .     S
C537   H556    1.106   .     S
C537   H557    1.108   .     S
C537   H558    1.107   .     S
C538   O577    1.417   .     S
C538   C539    1.521   .     S
C539   H564    1.111   .     S
C539   H563    1.109   .     S
C539   H565    1.110   .     S
C540   C544    1.406   .     A
C541   C542    1.429   .     A
C541   C545    1.427   .     A
C541   C1117   1.431   1_554 S
C542   C1128   1.399   1_554 S
C543   C544    1.383   .     A
C543   H566    1.084   .     S
C543   C1127   1.399   .     S
C544   H559    1.081   .     S
C545   O576    1.390   .     S
C546   H570    1.084   .     S
Cu547  N574    2.022   .     S
Cu547  O583    1.945   .     S
Cu547  O575    1.971   .     S
Cu547  Cu548   2.690   .     S
Cu547  O579    1.958   .     S
Cu547  O581    1.964   .     S
Cu548  N573    2.022   .     S
Cu548  O578    1.964   .     S
Cu548  O580    1.945   .     S
Cu548  O584    1.958   .     S
Cu548  O582    1.971   .     S
H549   C135    1.088   1_565 S
H561   C148    1.111   1_565 S
H562   C148    1.118   1_565 S
H568   C1118   1.072   1_554 S
H571   N444    1.028   1_655 S
N573   H430    1.029   1_655 S
N573   N444    1.290   1_655 S
O585   C404    1.415   1_655 S
C586   O640    1.294   .     A
C586   O643    1.286   .     A
C586   C588    1.437   .     S
C587   C589    1.457   .     S
C587   C605    1.419   .     A
C587   C595    1.397   .     A
C588   C785    1.337   .     S
C588   O837    1.390   .     S
C589   O645    1.289   .     A
C589   O644    1.304   .     A
C590   C591    1.434   .     S
C590   C978    1.337   1_545 S
C590   H1004   1.088   1_545 S
C591   O647    1.291   .     A
C591   O646    1.290   .     A
C592   O648    1.289   .     A
C592   O649    1.305   .     A
C592   C594    1.458   .     S
C593   C611    1.394   .     A
C593   C607    1.409   .     A
C593   O650    1.388   .     S
C594   C610    1.408   .     A
C594   C611    1.388   .     A
C595   H632    1.082   .     S
C595   C596    1.385   .     A
C596   H634    1.080   .     S
C596   C598    1.392   .     A
C597   C605    1.416   .     A
C597   C598    1.409   .     A
C597   C21     1.431   1_556 S
C598   H48     1.072   1_556 S
C599   H615    1.103   .     S
C599   H637    1.109   .     S
C599   O780    1.415   1_455 S
C600   H616    1.108   .     S
C600   H617    1.107   .     S
C600   H618    1.110   .     S
C600   C14     1.521   1_556 S
C601   O641    1.431   .     S
C601   H620    1.109   .     S
C601   H619    1.107   .     S
C601   C602    1.539   .     S
C602   H621    1.106   .     S
C602   H622    1.108   .     S
C602   H623    1.107   .     S
C603   O642    1.417   .     S
C603   C604    1.521   .     S
C603   H1016   1.111   1_545 S
C603   H1017   1.118   1_545 S
C604   H629    1.111   .     S
C604   H628    1.109   .     S
C604   H630    1.110   .     S
C605   C609    1.406   .     A
C606   C607    1.429   .     A
C606   C610    1.427   .     A
C608   C609    1.383   .     A
C608   H631    1.084   .     S
C608   C22     1.399   1_556 S
C609   H624    1.081   .     S
C610   O641    1.390   .     S
C611   H635    1.084   .     S
Cu612  N639    2.022   .     S
Cu612  O648    1.945   .     S
Cu612  O640    1.971   .     S
Cu612  Cu613   2.690   .     S
Cu612  O644    1.958   .     S
Cu612  O646    1.964   .     S
Cu613  N638    2.022   .     S
Cu613  O643    1.964   .     S
Cu613  O645    1.945   .     S
Cu613  O649    1.958   .     S
Cu613  O647    1.971   .     S
H614   C785    1.088   .     S
H625   N768    1.029   1_455 S
H626   C798    1.111   .     S
H627   C798    1.118   .     S
H636   N704    1.028   .     S
N638   H690    1.029   .     S
N638   N704    1.290   .     S
N639   N768    1.290   1_455 S
N639   H766    1.028   1_455 S
O642   C978    1.390   1_545 S
O650   C664    1.415   .     S
C651   O705    1.294   .     A
C651   O708    1.286   .     A
C651   C653    1.437   .     S
C652   C654    1.457   .     S
C652   C670    1.419   .     A
C652   C660    1.397   .     A
C653   C850    1.337   .     S
C653   O902    1.390   .     S
C654   O710    1.289   .     A
C654   O709    1.304   .     A
C655   C656    1.434   .     S
C655   C1043   1.337   1_545 S
C655   H1069   1.088   1_545 S
C656   O712    1.291   .     A
C656   O711    1.290   .     A
C657   O713    1.289   .     A
C657   O714    1.305   .     A
C657   C659    1.458   .     S
C658   C676    1.394   .     A
C658   C672    1.409   .     A
C658   O715    1.388   .     S
C659   C675    1.408   .     A
C659   C676    1.388   .     A
C660   H697    1.082   .     S
C660   C661    1.385   .     A
C661   H699    1.080   .     S
C661   C663    1.392   .     A
C662   C670    1.416   .     A
C662   C663    1.409   .     A
C662   C86     1.431   1_556 S
C663   H113    1.072   1_556 S
C664   H680    1.103   .     S
C664   H702    1.109   .     S
C665   H681    1.108   .     S
C665   H682    1.107   .     S
C665   H683    1.110   .     S
C665   C79     1.521   1_556 S
C666   O706    1.431   .     S
C666   H685    1.109   .     S
C666   H684    1.107   .     S
C666   C667    1.539   .     S
C667   H686    1.106   .     S
C667   H687    1.108   .     S
C667   H688    1.107   .     S
C668   O707    1.417   .     S
C668   C669    1.521   .     S
C668   H1081   1.111   1_545 S
C668   H1082   1.118   1_545 S
C669   H694    1.111   .     S
C669   H693    1.109   .     S
C669   H695    1.110   .     S
C670   C674    1.406   .     A
C671   C672    1.429   .     A
C671   C675    1.427   .     A
C673   C674    1.383   .     A
C673   H696    1.084   .     S
C673   C87     1.399   1_556 S
C674   H689    1.081   .     S
C675   O706    1.390   .     S
C676   H700    1.084   .     S
Cu677  N704    2.022   .     S
Cu677  O713    1.945   .     S
Cu677  O705    1.971   .     S
Cu677  Cu678   2.690   .     S
Cu677  O709    1.958   .     S
Cu677  O711    1.964   .     S
Cu678  N703    2.022   .     S
Cu678  O708    1.964   .     S
Cu678  O710    1.945   .     S
Cu678  O714    1.958   .     S
Cu678  O712    1.971   .     S
H679   C850    1.088   .     S
H691   C863    1.111   .     S
H692   C863    1.118   .     S
H701   N769    1.028   .     S
N703   H755    1.029   .     S
N703   N769    1.290   .     S
O707   C1043   1.390   1_545 S
O715   C729    1.415   .     S
C716   O770    1.294   .     A
C716   O773    1.286   .     A
C716   C718    1.437   .     S
C717   C719    1.457   .     S
C717   C735    1.419   .     A
C717   C725    1.397   .     A
C718   C915    1.337   .     S
C718   O967    1.390   .     S
C719   O775    1.289   .     A
C719   O774    1.304   .     A
C720   C721    1.434   .     S
C720   C1108   1.337   1_545 S
C720   H1134   1.088   1_545 S
C721   O777    1.291   .     A
C721   O776    1.290   .     A
C722   O778    1.289   .     A
C722   O779    1.305   .     A
C722   C724    1.458   .     S
C723   C741    1.394   .     A
C723   C737    1.409   .     A
C723   O780    1.388   .     S
C724   C740    1.408   .     A
C724   C741    1.388   .     A
C725   H762    1.082   .     S
C725   C726    1.385   .     A
C726   H764    1.080   .     S
C726   C728    1.392   .     A
C727   C735    1.416   .     A
C727   C728    1.409   .     A
C727   C151    1.431   1_556 S
C728   H178    1.072   1_556 S
C729   H745    1.103   .     S
C729   H767    1.109   .     S
C730   H746    1.108   .     S
C730   H747    1.107   .     S
C730   H748    1.110   .     S
C730   C144    1.521   1_556 S
C731   O771    1.431   .     S
C731   H750    1.109   .     S
C731   H749    1.107   .     S
C731   C732    1.539   .     S
C732   H751    1.106   .     S
C732   H752    1.108   .     S
C732   H753    1.107   .     S
C733   O772    1.417   .     S
C733   C734    1.521   .     S
C733   H1146   1.111   1_545 S
C733   H1147   1.118   1_545 S
C734   H759    1.111   .     S
C734   H758    1.109   .     S
C734   H760    1.110   .     S
C735   C739    1.406   .     A
C736   C737    1.429   .     A
C736   C740    1.427   .     A
C738   C739    1.383   .     A
C738   H761    1.084   .     S
C738   C152    1.399   1_556 S
C739   H754    1.081   .     S
C740   O771    1.390   .     S
C741   H765    1.084   .     S
Cu742  N769    2.022   .     S
Cu742  O778    1.945   .     S
Cu742  O770    1.971   .     S
Cu742  Cu743   2.690   .     S
Cu742  O774    1.958   .     S
Cu742  O776    1.964   .     S
Cu743  N768    2.022   .     S
Cu743  O773    1.964   .     S
Cu743  O775    1.945   .     S
Cu743  O779    1.958   .     S
Cu743  O777    1.971   .     S
H744   C915    1.088   .     S
H756   C928    1.111   .     S
H757   C928    1.118   .     S
H766   N639    1.028   1_655 S
N768   H625    1.029   1_655 S
N768   N639    1.290   1_655 S
O772   C1108   1.390   1_545 S
O780   C599    1.415   1_655 S
C781   O835    1.294   .     A
C781   O838    1.286   .     A
C781   C783    1.437   .     S
C782   C784    1.457   .     S
C782   C800    1.419   .     A
C782   C790    1.397   .     A
C783   C980    1.337   .     S
C783   O1032   1.390   .     S
C784   O840    1.289   .     A
C784   O839    1.304   .     A
C785   C786    1.434   .     S
C786   O842    1.291   .     A
C786   O841    1.290   .     A
C787   O843    1.289   .     A
C787   O844    1.305   .     A
C787   C789    1.458   .     S
C788   C806    1.394   .     A
C788   C802    1.409   .     A
C788   O845    1.388   .     S
C789   C805    1.408   .     A
C789   C806    1.388   .     A
C790   H827    1.082   .     S
C790   C791    1.385   .     A
C791   H829    1.080   .     S
C791   C793    1.392   .     A
C792   C800    1.416   .     A
C792   C793    1.409   .     A
C792   C216    1.431   1_556 S
C793   H243    1.072   1_556 S
C794   H810    1.103   .     S
C794   H832    1.109   .     S
C794   O975    1.415   1_455 S
C795   H811    1.108   .     S
C795   H812    1.107   .     S
C795   H813    1.110   .     S
C795   C209    1.521   1_556 S
C796   O836    1.431   .     S
C796   H815    1.109   .     S
C796   H814    1.107   .     S
C796   C797    1.539   .     S
C797   H816    1.106   .     S
C797   H817    1.108   .     S
C797   H818    1.107   .     S
C798   O837    1.417   .     S
C798   C799    1.521   .     S
C799   H824    1.111   .     S
C799   H823    1.109   .     S
C799   H825    1.110   .     S
C800   C804    1.406   .     A
C801   C802    1.429   .     A
C801   C805    1.427   .     A
C803   C804    1.383   .     A
C803   H826    1.084   .     S
C803   C217    1.399   1_556 S
C804   H819    1.081   .     S
C805   O836    1.390   .     S
C806   H830    1.084   .     S
Cu807  N834    2.022   .     S
Cu807  O843    1.945   .     S
Cu807  O835    1.971   .     S
Cu807  Cu808   2.690   .     S
Cu807  O839    1.958   .     S
Cu807  O841    1.964   .     S
Cu808  N833    2.022   .     S
Cu808  O838    1.964   .     S
Cu808  O840    1.945   .     S
Cu808  O844    1.958   .     S
Cu808  O842    1.971   .     S
H809   C980    1.088   .     S
H820   N963    1.029   1_455 S
H821   C993    1.111   .     S
H822   C993    1.118   .     S
H831   N899    1.028   .     S
N833   H885    1.029   .     S
N833   N899    1.290   .     S
N834   N963    1.290   1_455 S
N834   H961    1.028   1_455 S
O845   C859    1.415   .     S
C846   O900    1.294   .     A
C846   O903    1.286   .     A
C846   C848    1.437   .     S
C847   C849    1.457   .     S
C847   C865    1.419   .     A
C847   C855    1.397   .     A
C848   C1045   1.337   .     S
C848   O1097   1.390   .     S
C849   O905    1.289   .     A
C849   O904    1.304   .     A
C850   C851    1.434   .     S
C851   O907    1.291   .     A
C851   O906    1.290   .     A
C852   O908    1.289   .     A
C852   O909    1.305   .     A
C852   C854    1.458   .     S
C853   C871    1.394   .     A
C853   C867    1.409   .     A
C853   O910    1.388   .     S
C854   C870    1.408   .     A
C854   C871    1.388   .     A
C855   H892    1.082   .     S
C855   C856    1.385   .     A
C856   H894    1.080   .     S
C856   C858    1.392   .     A
C857   C865    1.416   .     A
C857   C858    1.409   .     A
C857   C281    1.431   1_556 S
C858   H308    1.072   1_556 S
C859   H875    1.103   .     S
C859   H897    1.109   .     S
C860   H876    1.108   .     S
C860   H877    1.107   .     S
C860   H878    1.110   .     S
C860   C274    1.521   1_556 S
C861   O901    1.431   .     S
C861   H880    1.109   .     S
C861   H879    1.107   .     S
C861   C862    1.539   .     S
C862   H881    1.106   .     S
C862   H882    1.108   .     S
C862   H883    1.107   .     S
C863   O902    1.417   .     S
C863   C864    1.521   .     S
C864   H889    1.111   .     S
C864   H888    1.109   .     S
C864   H890    1.110   .     S
C865   C869    1.406   .     A
C866   C867    1.429   .     A
C866   C870    1.427   .     A
C868   C869    1.383   .     A
C868   H891    1.084   .     S
C868   C282    1.399   1_556 S
C869   H884    1.081   .     S
C870   O901    1.390   .     S
C871   H895    1.084   .     S
Cu872  N899    2.022   .     S
Cu872  O908    1.945   .     S
Cu872  O900    1.971   .     S
Cu872  Cu873   2.690   .     S
Cu872  O904    1.958   .     S
Cu872  O906    1.964   .     S
Cu873  N898    2.022   .     S
Cu873  O903    1.964   .     S
Cu873  O905    1.945   .     S
Cu873  O909    1.958   .     S
Cu873  O907    1.971   .     S
H874   C1045   1.088   .     S
H886   C1058   1.111   .     S
H887   C1058   1.118   .     S
H896   N964    1.028   .     S
N898   H950    1.029   .     S
N898   N964    1.290   .     S
O910   C924    1.415   .     S
C911   O965    1.294   .     A
C911   O968    1.286   .     A
C911   C913    1.437   .     S
C912   C914    1.457   .     S
C912   C930    1.419   .     A
C912   C920    1.397   .     A
C913   C1110   1.337   .     S
C913   O1162   1.390   .     S
C914   O970    1.289   .     A
C914   O969    1.304   .     A
C915   C916    1.434   .     S
C916   O972    1.291   .     A
C916   O971    1.290   .     A
C917   O973    1.289   .     A
C917   O974    1.305   .     A
C917   C919    1.458   .     S
C918   C936    1.394   .     A
C918   C932    1.409   .     A
C918   O975    1.388   .     S
C919   C935    1.408   .     A
C919   C936    1.388   .     A
C920   H957    1.082   .     S
C920   C921    1.385   .     A
C921   H959    1.080   .     S
C921   C923    1.392   .     A
C922   C930    1.416   .     A
C922   C923    1.409   .     A
C922   C346    1.431   1_556 S
C923   H373    1.072   1_556 S
C924   H940    1.103   .     S
C924   H962    1.109   .     S
C925   H941    1.108   .     S
C925   H942    1.107   .     S
C925   H943    1.110   .     S
C925   C339    1.521   1_556 S
C926   O966    1.431   .     S
C926   H945    1.109   .     S
C926   H944    1.107   .     S
C926   C927    1.539   .     S
C927   H946    1.106   .     S
C927   H947    1.108   .     S
C927   H948    1.107   .     S
C928   O967    1.417   .     S
C928   C929    1.521   .     S
C929   H954    1.111   .     S
C929   H953    1.109   .     S
C929   H955    1.110   .     S
C930   C934    1.406   .     A
C931   C932    1.429   .     A
C931   C935    1.427   .     A
C933   C934    1.383   .     A
C933   H956    1.084   .     S
C933   C347    1.399   1_556 S
C934   H949    1.081   .     S
C935   O966    1.390   .     S
C936   H960    1.084   .     S
Cu937  N964    2.022   .     S
Cu937  O973    1.945   .     S
Cu937  O965    1.971   .     S
Cu937  Cu938   2.690   .     S
Cu937  O969    1.958   .     S
Cu937  O971    1.964   .     S
Cu938  N963    2.022   .     S
Cu938  O968    1.964   .     S
Cu938  O970    1.945   .     S
Cu938  O974    1.958   .     S
Cu938  O972    1.971   .     S
H939   C1110   1.088   .     S
H951   C1123   1.111   .     S
H952   C1123   1.118   .     S
H961   N834    1.028   1_655 S
N963   H820    1.029   1_655 S
N963   N834    1.290   1_655 S
O975   C794    1.415   1_655 S
C976   O1030   1.294   .     A
C976   O1033   1.286   .     A
C976   C978    1.437   .     S
C977   C979    1.457   .     S
C977   C995    1.419   .     A
C977   C985    1.397   .     A
C978   C590    1.337   1_565 S
C978   O642    1.390   1_565 S
C979   O1035   1.289   .     A
C979   O1034   1.304   .     A
C980   C981    1.434   .     S
C981   O1037   1.291   .     A
C981   O1036   1.290   .     A
C982   O1038   1.289   .     A
C982   O1039   1.305   .     A
C982   C984    1.458   .     S
C983   C1001   1.394   .     A
C983   C997    1.409   .     A
C983   O1040   1.388   .     S
C984   C1000   1.408   .     A
C984   C1001   1.388   .     A
C985   H1022   1.082   .     S
C985   C986    1.385   .     A
C986   H1024   1.080   .     S
C986   C988    1.392   .     A
C987   C995    1.416   .     A
C987   C988    1.409   .     A
C987   C411    1.431   1_556 S
C988   H438    1.072   1_556 S
C989   H1005   1.103   .     S
C989   H1027   1.109   .     S
C989   O1170   1.415   1_455 S
C990   H1006   1.108   .     S
C990   H1007   1.107   .     S
C990   H1008   1.110   .     S
C990   C404    1.521   1_556 S
C991   O1031   1.431   .     S
C991   H1010   1.109   .     S
C991   H1009   1.107   .     S
C991   C992    1.539   .     S
C992   H1011   1.106   .     S
C992   H1012   1.108   .     S
C992   H1013   1.107   .     S
C993   O1032   1.417   .     S
C993   C994    1.521   .     S
C994   H1019   1.111   .     S
C994   H1018   1.109   .     S
C994   H1020   1.110   .     S
C995   C999    1.406   .     A
C996   C997    1.429   .     A
C996   C1000   1.427   .     A
C998   C999    1.383   .     A
C998   H1021   1.084   .     S
C998   C412    1.399   1_556 S
C999   H1014   1.081   .     S
C1000  O1031   1.390   .     S
C1001  H1025   1.084   .     S
Cu1002 N1029   2.022   .     S
Cu1002 O1038   1.945   .     S
Cu1002 O1030   1.971   .     S
Cu1002 Cu1003  2.690   .     S
Cu1002 O1034   1.958   .     S
Cu1002 O1036   1.964   .     S
Cu1003 N1028   2.022   .     S
Cu1003 O1033   1.964   .     S
Cu1003 O1035   1.945   .     S
Cu1003 O1039   1.958   .     S
Cu1003 O1037   1.971   .     S
H1004  C590    1.088   1_565 S
H1015  N1158   1.029   1_455 S
H1016  C603    1.111   1_565 S
H1017  C603    1.118   1_565 S
H1026  N1094   1.028   .     S
N1028  H1080   1.029   .     S
N1028  N1094   1.290   .     S
N1029  N1158   1.290   1_455 S
N1029  H1156   1.028   1_455 S
O1040  C1054   1.415   .     S
C1041  O1095   1.294   .     A
C1041  O1098   1.286   .     A
C1041  C1043   1.437   .     S
C1042  C1044   1.457   .     S
C1042  C1060   1.419   .     A
C1042  C1050   1.397   .     A
C1043  C655    1.337   1_565 S
C1043  O707    1.390   1_565 S
C1044  O1100   1.289   .     A
C1044  O1099   1.304   .     A
C1045  C1046   1.434   .     S
C1046  O1102   1.291   .     A
C1046  O1101   1.290   .     A
C1047  O1103   1.289   .     A
C1047  O1104   1.305   .     A
C1047  C1049   1.458   .     S
C1048  C1066   1.394   .     A
C1048  C1062   1.409   .     A
C1048  O1105   1.388   .     S
C1049  C1065   1.408   .     A
C1049  C1066   1.388   .     A
C1050  H1087   1.082   .     S
C1050  C1051   1.385   .     A
C1051  H1089   1.080   .     S
C1051  C1053   1.392   .     A
C1052  C1060   1.416   .     A
C1052  C1053   1.409   .     A
C1052  C476    1.431   1_556 S
C1053  H503    1.072   1_556 S
C1054  H1070   1.103   .     S
C1054  H1092   1.109   .     S
C1055  H1071   1.108   .     S
C1055  H1072   1.107   .     S
C1055  H1073   1.110   .     S
C1055  C469    1.521   1_556 S
C1056  O1096   1.431   .     S
C1056  H1075   1.109   .     S
C1056  H1074   1.107   .     S
C1056  C1057   1.539   .     S
C1057  H1076   1.106   .     S
C1057  H1077   1.108   .     S
C1057  H1078   1.107   .     S
C1058  O1097   1.417   .     S
C1058  C1059   1.521   .     S
C1059  H1084   1.111   .     S
C1059  H1083   1.109   .     S
C1059  H1085   1.110   .     S
C1060  C1064   1.406   .     A
C1061  C1062   1.429   .     A
C1061  C1065   1.427   .     A
C1063  C1064   1.383   .     A
C1063  H1086   1.084   .     S
C1063  C477    1.399   1_556 S
C1064  H1079   1.081   .     S
C1065  O1096   1.390   .     S
C1066  H1090   1.084   .     S
Cu1067 N1094   2.022   .     S
Cu1067 O1103   1.945   .     S
Cu1067 O1095   1.971   .     S
Cu1067 Cu1068  2.690   .     S
Cu1067 O1099   1.958   .     S
Cu1067 O1101   1.964   .     S
Cu1068 N1093   2.022   .     S
Cu1068 O1098   1.964   .     S
Cu1068 O1100   1.945   .     S
Cu1068 O1104   1.958   .     S
Cu1068 O1102   1.971   .     S
H1069  C655    1.088   1_565 S
H1081  C668    1.111   1_565 S
H1082  C668    1.118   1_565 S
H1091  N1159   1.028   .     S
N1093  H1145   1.029   .     S
N1093  N1159   1.290   .     S
O1105  C1119   1.415   .     S
C1106  O1160   1.294   .     A
C1106  O1163   1.286   .     A
C1106  C1108   1.437   .     S
C1107  C1109   1.457   .     S
C1107  C1125   1.419   .     A
C1107  C1115   1.397   .     A
C1108  C720    1.337   1_565 S
C1108  O772    1.390   1_565 S
C1109  O1165   1.289   .     A
C1109  O1164   1.304   .     A
C1110  C1111   1.434   .     S
C1111  O1167   1.291   .     A
C1111  O1166   1.290   .     A
C1112  O1168   1.289   .     A
C1112  O1169   1.305   .     A
C1112  C1114   1.458   .     S
C1113  C1131   1.394   .     A
C1113  C1127   1.409   .     A
C1113  O1170   1.388   .     S
C1114  C1130   1.408   .     A
C1114  C1131   1.388   .     A
C1115  H1152   1.082   .     S
C1115  C1116   1.385   .     A
C1116  H1154   1.080   .     S
C1116  C1118   1.392   .     A
C1117  C1125   1.416   .     A
C1117  C1118   1.409   .     A
C1117  C541    1.431   1_556 S
C1118  H568    1.072   1_556 S
C1119  H1135   1.103   .     S
C1119  H1157   1.109   .     S
C1120  H1136   1.108   .     S
C1120  H1137   1.107   .     S
C1120  H1138   1.110   .     S
C1120  C534    1.521   1_556 S
C1121  O1161   1.431   .     S
C1121  H1140   1.109   .     S
C1121  H1139   1.107   .     S
C1121  C1122   1.539   .     S
C1122  H1141   1.106   .     S
C1122  H1142   1.108   .     S
C1122  H1143   1.107   .     S
C1123  O1162   1.417   .     S
C1123  C1124   1.521   .     S
C1124  H1149   1.111   .     S
C1124  H1148   1.109   .     S
C1124  H1150   1.110   .     S
C1125  C1129   1.406   .     A
C1126  C1127   1.429   .     A
C1126  C1130   1.427   .     A
C1128  C1129   1.383   .     A
C1128  H1151   1.084   .     S
C1128  C542    1.399   1_556 S
C1129  H1144   1.081   .     S
C1130  O1161   1.390   .     S
C1131  H1155   1.084   .     S
Cu1132 N1159   2.022   .     S
Cu1132 O1168   1.945   .     S
Cu1132 O1160   1.971   .     S
Cu1132 Cu1133  2.690   .     S
Cu1132 O1164   1.958   .     S
Cu1132 O1166   1.964   .     S
Cu1133 N1158   2.022   .     S
Cu1133 O1163   1.964   .     S
Cu1133 O1165   1.945   .     S
Cu1133 O1169   1.958   .     S
Cu1133 O1167   1.971   .     S
H1134  C720    1.088   1_565 S
H1146  C733    1.111   1_565 S
H1147  C733    1.118   1_565 S
H1156  N1029   1.028   1_655 S
N1158  H1015   1.029   1_655 S
N1158  N1029   1.290   1_655 S
O1170  C989    1.415   1_655 S
