data_str_m2_o1_o5_pcu_sym.54
_audit_creation_date              2020-01-03
_audit_creation_method            'Materials Studio'
_symmetry_space_group_name_H-M    'P1'
_symmetry_Int_Tables_number       1
_symmetry_cell_setting            triclinic
loop_
_symmetry_equiv_pos_as_xyz
  x,y,z
_cell_length_a                    32.3775
_cell_length_b                    28.6163
_cell_length_c                    27.2424
_cell_angle_alpha                 89.9657
_cell_angle_beta                  90.1795
_cell_angle_gamma                 89.9843
loop_
_atom_site_label
_atom_site_type_symbol
_atom_site_fract_x
_atom_site_fract_y
_atom_site_fract_z
_atom_site_U_iso_or_equiv
_atom_site_adp_type
_atom_site_occupancy
C1     C     0.08754   0.16667   0.16664   0.00000  Uiso   1.00
C2     C     0.02156   0.18724   0.20636   0.00000  Uiso   1.00
C3     C     0.29037   0.16667   0.16669   0.00000  Uiso   1.00
C4     C     0.04296   0.16666   0.16666   0.00000  Uiso   1.00
C5     C     0.14047   0.02481   0.13679   0.00000  Uiso   1.00
C6     C     0.19286   0.30852   0.19655   0.00000  Uiso   1.00
C7     C     0.19286   0.02475   0.19655   0.00000  Uiso   1.00
C8     C     0.14047   0.30858   0.13679   0.00000  Uiso   1.00
C9     C     0.24580   0.16666   0.16670   0.00000  Uiso   1.00
C10    C     0.16665   0.16667   0.07354   0.00000  Uiso   1.00
C11    C     0.16669   0.16666   0.25979   0.00000  Uiso   1.00
C12    C     0.16666   0.16668   0.02184   0.00000  Uiso   1.00
C13    C     0.16667   0.16666   0.31149   0.00000  Uiso   1.00
C14    C     0.02135   0.14607   0.12698   0.00000  Uiso   1.00
C15    C     0.31199   0.18726   0.20637   0.00000  Uiso   1.00
C16    C     0.31177   0.14609   0.12699   0.00000  Uiso   1.00
Cu17   Cu    0.16667   0.21355   0.16667   0.00000  Uiso   1.00
Cu18   Cu    0.16667   0.11978   0.16667   0.00000  Uiso   1.00
H19    H     0.11947   0.04346   0.11282   0.00000  Uiso   1.00
H20    H     0.21387   0.28987   0.22051   0.00000  Uiso   1.00
H21    H     0.21386   0.04336   0.22052   0.00000  Uiso   1.00
H22    H     0.11947   0.28997   0.11281   0.00000  Uiso   1.00
H23    H     0.06982   0.13691   0.08493   0.00000  Uiso   1.00
H24    H     0.26349   0.19657   0.24836   0.00000  Uiso   1.00
H25    H     0.26314   0.13724   0.08484   0.00000  Uiso   1.00
H26    H     0.07022   0.19616   0.24849   0.00000  Uiso   1.00
N27    N     0.16667   0.28402   0.16667   0.00000  Uiso   1.00
N28    N     0.16667   0.04931   0.16667   0.00000  Uiso   1.00
O29    O     0.10655   0.20625   0.16666   0.00000  Uiso   1.00
O30    O     0.29263   0.20667   0.24680   0.00000  Uiso   1.00
O31    O     0.29219   0.12674   0.08656   0.00000  Uiso   1.00
O32    O     0.04115   0.20658   0.24680   0.00000  Uiso   1.00
O33    O     0.22679   0.12709   0.16667   0.00000  Uiso   1.00
O34    O     0.22679   0.20625   0.16667   0.00000  Uiso   1.00
O35    O     0.10655   0.12709   0.16666   0.00000  Uiso   1.00
O36    O     0.16667   0.20625   0.09613   0.00000  Uiso   1.00
O37    O     0.16667   0.12708   0.23720   0.00000  Uiso   1.00
O38    O     0.16667   0.20625   0.23720   0.00000  Uiso   1.00
O39    O     0.16667   0.12708   0.09613   0.00000  Uiso   1.00
O40    O     0.04070   0.12665   0.08656   0.00000  Uiso   1.00
C41    C     0.42087   0.16667   0.16664   0.00000  Uiso   1.00
C42    C     0.35489   0.18724   0.20636   0.00000  Uiso   1.00
C43    C     0.62370   0.16667   0.16669   0.00000  Uiso   1.00
C44    C     0.37630   0.16666   0.16666   0.00000  Uiso   1.00
C45    C     0.47380   0.02481   0.13679   0.00000  Uiso   1.00
C46    C     0.52620   0.30852   0.19655   0.00000  Uiso   1.00
C47    C     0.52619   0.02475   0.19655   0.00000  Uiso   1.00
C48    C     0.47381   0.30858   0.13679   0.00000  Uiso   1.00
C49    C     0.57913   0.16666   0.16670   0.00000  Uiso   1.00
C50    C     0.49998   0.16667   0.07354   0.00000  Uiso   1.00
C51    C     0.50002   0.16666   0.25979   0.00000  Uiso   1.00
C52    C     0.49999   0.16668   0.02184   0.00000  Uiso   1.00
C53    C     0.50001   0.16666   0.31149   0.00000  Uiso   1.00
C54    C     0.35468   0.14607   0.12698   0.00000  Uiso   1.00
C55    C     0.64532   0.18726   0.20637   0.00000  Uiso   1.00
C56    C     0.64511   0.14609   0.12699   0.00000  Uiso   1.00
Cu57   Cu    0.50000   0.21355   0.16667   0.00000  Uiso   1.00
Cu58   Cu    0.50000   0.11978   0.16667   0.00000  Uiso   1.00
H59    H     0.45280   0.04346   0.11282   0.00000  Uiso   1.00
H60    H     0.54720   0.28987   0.22051   0.00000  Uiso   1.00
H61    H     0.54719   0.04336   0.22052   0.00000  Uiso   1.00
H62    H     0.45281   0.28997   0.11281   0.00000  Uiso   1.00
H63    H     0.40315   0.13691   0.08493   0.00000  Uiso   1.00
H64    H     0.59683   0.19657   0.24836   0.00000  Uiso   1.00
H65    H     0.59647   0.13724   0.08484   0.00000  Uiso   1.00
H66    H     0.40356   0.19616   0.24849   0.00000  Uiso   1.00
N67    N     0.50000   0.28402   0.16667   0.00000  Uiso   1.00
N68    N     0.50000   0.04931   0.16667   0.00000  Uiso   1.00
O69    O     0.43988   0.20625   0.16666   0.00000  Uiso   1.00
O70    O     0.62597   0.20667   0.24680   0.00000  Uiso   1.00
O71    O     0.62552   0.12674   0.08656   0.00000  Uiso   1.00
O72    O     0.37448   0.20658   0.24680   0.00000  Uiso   1.00
O73    O     0.56012   0.12709   0.16667   0.00000  Uiso   1.00
O74    O     0.56012   0.20625   0.16667   0.00000  Uiso   1.00
O75    O     0.43988   0.12709   0.16666   0.00000  Uiso   1.00
O76    O     0.50000   0.20625   0.09613   0.00000  Uiso   1.00
O77    O     0.50000   0.12708   0.23720   0.00000  Uiso   1.00
O78    O     0.50000   0.20625   0.23720   0.00000  Uiso   1.00
O79    O     0.50000   0.12708   0.09613   0.00000  Uiso   1.00
O80    O     0.37404   0.12665   0.08656   0.00000  Uiso   1.00
C81    C     0.75421   0.16667   0.16664   0.00000  Uiso   1.00
C82    C     0.68823   0.18724   0.20636   0.00000  Uiso   1.00
C83    C     0.95704   0.16667   0.16669   0.00000  Uiso   1.00
C84    C     0.70963   0.16666   0.16666   0.00000  Uiso   1.00
C85    C     0.80714   0.02481   0.13679   0.00000  Uiso   1.00
C86    C     0.85953   0.30852   0.19655   0.00000  Uiso   1.00
C87    C     0.85953   0.02475   0.19655   0.00000  Uiso   1.00
C88    C     0.80714   0.30858   0.13679   0.00000  Uiso   1.00
C89    C     0.91246   0.16666   0.16670   0.00000  Uiso   1.00
C90    C     0.83331   0.16667   0.07354   0.00000  Uiso   1.00
C91    C     0.83335   0.16666   0.25979   0.00000  Uiso   1.00
C92    C     0.83333   0.16668   0.02184   0.00000  Uiso   1.00
C93    C     0.83334   0.16666   0.31149   0.00000  Uiso   1.00
C94    C     0.68801   0.14607   0.12698   0.00000  Uiso   1.00
C95    C     0.97866   0.18726   0.20637   0.00000  Uiso   1.00
C96    C     0.97844   0.14609   0.12699   0.00000  Uiso   1.00
Cu97   Cu    0.83333   0.21355   0.16667   0.00000  Uiso   1.00
Cu98   Cu    0.83333   0.11978   0.16667   0.00000  Uiso   1.00
H99    H     0.78613   0.04346   0.11282   0.00000  Uiso   1.00
H100   H     0.88053   0.28987   0.22051   0.00000  Uiso   1.00
H101   H     0.88053   0.04336   0.22052   0.00000  Uiso   1.00
H102   H     0.78614   0.28997   0.11281   0.00000  Uiso   1.00
H103   H     0.73648   0.13691   0.08493   0.00000  Uiso   1.00
H104   H     0.93016   0.19657   0.24836   0.00000  Uiso   1.00
H105   H     0.92980   0.13724   0.08484   0.00000  Uiso   1.00
H106   H     0.73689   0.19616   0.24849   0.00000  Uiso   1.00
N107   N     0.83333   0.28402   0.16667   0.00000  Uiso   1.00
N108   N     0.83333   0.04931   0.16667   0.00000  Uiso   1.00
O109   O     0.77321   0.20625   0.16666   0.00000  Uiso   1.00
O110   O     0.95930   0.20667   0.24680   0.00000  Uiso   1.00
O111   O     0.95885   0.12674   0.08656   0.00000  Uiso   1.00
O112   O     0.70781   0.20658   0.24680   0.00000  Uiso   1.00
O113   O     0.89345   0.12709   0.16667   0.00000  Uiso   1.00
O114   O     0.89345   0.20625   0.16667   0.00000  Uiso   1.00
O115   O     0.77321   0.12709   0.16666   0.00000  Uiso   1.00
O116   O     0.83333   0.20625   0.09613   0.00000  Uiso   1.00
O117   O     0.83333   0.12708   0.23720   0.00000  Uiso   1.00
O118   O     0.83333   0.20625   0.23720   0.00000  Uiso   1.00
O119   O     0.83333   0.12708   0.09613   0.00000  Uiso   1.00
O120   O     0.70737   0.12665   0.08656   0.00000  Uiso   1.00
C121   C     0.08754   0.50000   0.16664   0.00000  Uiso   1.00
C122   C     0.02156   0.52057   0.20636   0.00000  Uiso   1.00
C123   C     0.29037   0.50001   0.16669   0.00000  Uiso   1.00
C124   C     0.04296   0.50000   0.16666   0.00000  Uiso   1.00
C125   C     0.14047   0.35814   0.13679   0.00000  Uiso   1.00
C126   C     0.19286   0.64186   0.19655   0.00000  Uiso   1.00
C127   C     0.19286   0.35809   0.19655   0.00000  Uiso   1.00
C128   C     0.14047   0.64191   0.13679   0.00000  Uiso   1.00
C129   C     0.24580   0.50000   0.16670   0.00000  Uiso   1.00
C130   C     0.16665   0.50001   0.07354   0.00000  Uiso   1.00
C131   C     0.16669   0.49999   0.25979   0.00000  Uiso   1.00
C132   C     0.16666   0.50001   0.02184   0.00000  Uiso   1.00
C133   C     0.16667   0.49999   0.31149   0.00000  Uiso   1.00
C134   C     0.02135   0.47940   0.12698   0.00000  Uiso   1.00
C135   C     0.31199   0.52060   0.20637   0.00000  Uiso   1.00
C136   C     0.31177   0.47942   0.12699   0.00000  Uiso   1.00
Cu137  Cu    0.16667   0.54689   0.16667   0.00000  Uiso   1.00
Cu138  Cu    0.16667   0.45311   0.16667   0.00000  Uiso   1.00
H139   H     0.11947   0.37680   0.11282   0.00000  Uiso   1.00
H140   H     0.21387   0.62320   0.22051   0.00000  Uiso   1.00
H141   H     0.21386   0.37669   0.22052   0.00000  Uiso   1.00
H142   H     0.11947   0.62331   0.11281   0.00000  Uiso   1.00
H143   H     0.06982   0.47024   0.08493   0.00000  Uiso   1.00
H144   H     0.26349   0.52991   0.24836   0.00000  Uiso   1.00
H145   H     0.26314   0.47057   0.08484   0.00000  Uiso   1.00
H146   H     0.07022   0.52949   0.24849   0.00000  Uiso   1.00
N147   N     0.16667   0.61736   0.16667   0.00000  Uiso   1.00
N148   N     0.16667   0.38264   0.16667   0.00000  Uiso   1.00
O149   O     0.10655   0.53958   0.16666   0.00000  Uiso   1.00
O150   O     0.29263   0.54001   0.24680   0.00000  Uiso   1.00
O151   O     0.29219   0.46007   0.08656   0.00000  Uiso   1.00
O152   O     0.04115   0.53991   0.24680   0.00000  Uiso   1.00
O153   O     0.22679   0.46042   0.16667   0.00000  Uiso   1.00
O154   O     0.22679   0.53958   0.16667   0.00000  Uiso   1.00
O155   O     0.10655   0.46042   0.16666   0.00000  Uiso   1.00
O156   O     0.16667   0.53959   0.09613   0.00000  Uiso   1.00
O157   O     0.16667   0.46041   0.23720   0.00000  Uiso   1.00
O158   O     0.16667   0.53959   0.23720   0.00000  Uiso   1.00
O159   O     0.16667   0.46041   0.09613   0.00000  Uiso   1.00
O160   O     0.04070   0.45998   0.08656   0.00000  Uiso   1.00
C161   C     0.42087   0.50000   0.16664   0.00000  Uiso   1.00
C162   C     0.35489   0.52057   0.20636   0.00000  Uiso   1.00
C163   C     0.62370   0.50001   0.16669   0.00000  Uiso   1.00
C164   C     0.37630   0.50000   0.16666   0.00000  Uiso   1.00
C165   C     0.47380   0.35814   0.13679   0.00000  Uiso   1.00
C166   C     0.52620   0.64186   0.19655   0.00000  Uiso   1.00
C167   C     0.52619   0.35809   0.19655   0.00000  Uiso   1.00
C168   C     0.47381   0.64191   0.13679   0.00000  Uiso   1.00
C169   C     0.57913   0.50000   0.16670   0.00000  Uiso   1.00
C170   C     0.49998   0.50001   0.07354   0.00000  Uiso   1.00
C171   C     0.50002   0.49999   0.25979   0.00000  Uiso   1.00
C172   C     0.49999   0.50001   0.02184   0.00000  Uiso   1.00
C173   C     0.50001   0.49999   0.31149   0.00000  Uiso   1.00
C174   C     0.35468   0.47940   0.12698   0.00000  Uiso   1.00
C175   C     0.64532   0.52060   0.20637   0.00000  Uiso   1.00
C176   C     0.64511   0.47942   0.12699   0.00000  Uiso   1.00
Cu177  Cu    0.50000   0.54689   0.16667   0.00000  Uiso   1.00
Cu178  Cu    0.50000   0.45311   0.16667   0.00000  Uiso   1.00
H179   H     0.45280   0.37680   0.11282   0.00000  Uiso   1.00
H180   H     0.54720   0.62320   0.22051   0.00000  Uiso   1.00
H181   H     0.54719   0.37669   0.22052   0.00000  Uiso   1.00
H182   H     0.45281   0.62331   0.11281   0.00000  Uiso   1.00
H183   H     0.40315   0.47024   0.08493   0.00000  Uiso   1.00
H184   H     0.59683   0.52991   0.24836   0.00000  Uiso   1.00
H185   H     0.59647   0.47057   0.08484   0.00000  Uiso   1.00
H186   H     0.40356   0.52949   0.24849   0.00000  Uiso   1.00
N187   N     0.50000   0.61736   0.16667   0.00000  Uiso   1.00
N188   N     0.50000   0.38264   0.16667   0.00000  Uiso   1.00
O189   O     0.43988   0.53958   0.16666   0.00000  Uiso   1.00
O190   O     0.62597   0.54001   0.24680   0.00000  Uiso   1.00
O191   O     0.62552   0.46007   0.08656   0.00000  Uiso   1.00
O192   O     0.37448   0.53991   0.24680   0.00000  Uiso   1.00
O193   O     0.56012   0.46042   0.16667   0.00000  Uiso   1.00
O194   O     0.56012   0.53958   0.16667   0.00000  Uiso   1.00
O195   O     0.43988   0.46042   0.16666   0.00000  Uiso   1.00
O196   O     0.50000   0.53959   0.09613   0.00000  Uiso   1.00
O197   O     0.50000   0.46041   0.23720   0.00000  Uiso   1.00
O198   O     0.50000   0.53959   0.23720   0.00000  Uiso   1.00
O199   O     0.50000   0.46041   0.09613   0.00000  Uiso   1.00
O200   O     0.37404   0.45998   0.08656   0.00000  Uiso   1.00
C201   C     0.75421   0.50000   0.16664   0.00000  Uiso   1.00
C202   C     0.68823   0.52057   0.20636   0.00000  Uiso   1.00
C203   C     0.95704   0.50001   0.16669   0.00000  Uiso   1.00
C204   C     0.70963   0.50000   0.16666   0.00000  Uiso   1.00
C205   C     0.80714   0.35814   0.13679   0.00000  Uiso   1.00
C206   C     0.85953   0.64186   0.19655   0.00000  Uiso   1.00
C207   C     0.85953   0.35809   0.19655   0.00000  Uiso   1.00
C208   C     0.80714   0.64191   0.13679   0.00000  Uiso   1.00
C209   C     0.91246   0.50000   0.16670   0.00000  Uiso   1.00
C210   C     0.83331   0.50001   0.07354   0.00000  Uiso   1.00
C211   C     0.83335   0.49999   0.25979   0.00000  Uiso   1.00
C212   C     0.83333   0.50001   0.02184   0.00000  Uiso   1.00
C213   C     0.83334   0.49999   0.31149   0.00000  Uiso   1.00
C214   C     0.68801   0.47940   0.12698   0.00000  Uiso   1.00
C215   C     0.97866   0.52060   0.20637   0.00000  Uiso   1.00
C216   C     0.97844   0.47942   0.12699   0.00000  Uiso   1.00
Cu217  Cu    0.83333   0.54689   0.16667   0.00000  Uiso   1.00
Cu218  Cu    0.83333   0.45311   0.16667   0.00000  Uiso   1.00
H219   H     0.78613   0.37680   0.11282   0.00000  Uiso   1.00
H220   H     0.88053   0.62320   0.22051   0.00000  Uiso   1.00
H221   H     0.88053   0.37669   0.22052   0.00000  Uiso   1.00
H222   H     0.78614   0.62331   0.11281   0.00000  Uiso   1.00
H223   H     0.73648   0.47024   0.08493   0.00000  Uiso   1.00
H224   H     0.93016   0.52991   0.24836   0.00000  Uiso   1.00
H225   H     0.92980   0.47057   0.08484   0.00000  Uiso   1.00
H226   H     0.73689   0.52949   0.24849   0.00000  Uiso   1.00
N227   N     0.83333   0.61736   0.16667   0.00000  Uiso   1.00
N228   N     0.83333   0.38264   0.16667   0.00000  Uiso   1.00
O229   O     0.77321   0.53958   0.16666   0.00000  Uiso   1.00
O230   O     0.95930   0.54001   0.24680   0.00000  Uiso   1.00
O231   O     0.95885   0.46007   0.08656   0.00000  Uiso   1.00
O232   O     0.70781   0.53991   0.24680   0.00000  Uiso   1.00
O233   O     0.89345   0.46042   0.16667   0.00000  Uiso   1.00
O234   O     0.89345   0.53958   0.16667   0.00000  Uiso   1.00
O235   O     0.77321   0.46042   0.16666   0.00000  Uiso   1.00
O236   O     0.83333   0.53959   0.09613   0.00000  Uiso   1.00
O237   O     0.83333   0.46041   0.23720   0.00000  Uiso   1.00
O238   O     0.83333   0.53959   0.23720   0.00000  Uiso   1.00
O239   O     0.83333   0.46041   0.09613   0.00000  Uiso   1.00
O240   O     0.70737   0.45998   0.08656   0.00000  Uiso   1.00
C241   C     0.08754   0.83334   0.16664   0.00000  Uiso   1.00
C242   C     0.02156   0.85390   0.20636   0.00000  Uiso   1.00
C243   C     0.29037   0.83334   0.16669   0.00000  Uiso   1.00
C244   C     0.04296   0.83333   0.16666   0.00000  Uiso   1.00
C245   C     0.14047   0.69148   0.13679   0.00000  Uiso   1.00
C246   C     0.19286   0.97519   0.19655   0.00000  Uiso   1.00
C247   C     0.19286   0.69142   0.19655   0.00000  Uiso   1.00
C248   C     0.14047   0.97525   0.13679   0.00000  Uiso   1.00
C249   C     0.24580   0.83333   0.16670   0.00000  Uiso   1.00
C250   C     0.16665   0.83334   0.07354   0.00000  Uiso   1.00
C251   C     0.16669   0.83333   0.25979   0.00000  Uiso   1.00
C252   C     0.16666   0.83334   0.02184   0.00000  Uiso   1.00
C253   C     0.16667   0.83332   0.31149   0.00000  Uiso   1.00
C254   C     0.02135   0.81273   0.12698   0.00000  Uiso   1.00
C255   C     0.31199   0.85393   0.20637   0.00000  Uiso   1.00
C256   C     0.31177   0.81276   0.12699   0.00000  Uiso   1.00
Cu257  Cu    0.16667   0.88022   0.16667   0.00000  Uiso   1.00
Cu258  Cu    0.16667   0.78645   0.16667   0.00000  Uiso   1.00
H259   H     0.11947   0.71013   0.11282   0.00000  Uiso   1.00
H260   H     0.21387   0.95654   0.22051   0.00000  Uiso   1.00
H261   H     0.21386   0.71003   0.22052   0.00000  Uiso   1.00
H262   H     0.11947   0.95664   0.11281   0.00000  Uiso   1.00
H263   H     0.06982   0.80357   0.08493   0.00000  Uiso   1.00
H264   H     0.26349   0.86324   0.24836   0.00000  Uiso   1.00
H265   H     0.26314   0.80390   0.08484   0.00000  Uiso   1.00
H266   H     0.07022   0.86282   0.24849   0.00000  Uiso   1.00
N267   N     0.16667   0.95069   0.16667   0.00000  Uiso   1.00
N268   N     0.16667   0.71598   0.16667   0.00000  Uiso   1.00
O269   O     0.10655   0.87291   0.16666   0.00000  Uiso   1.00
O270   O     0.29263   0.87334   0.24680   0.00000  Uiso   1.00
O271   O     0.29219   0.79341   0.08656   0.00000  Uiso   1.00
O272   O     0.04115   0.87325   0.24680   0.00000  Uiso   1.00
O273   O     0.22679   0.79375   0.16667   0.00000  Uiso   1.00
O274   O     0.22679   0.87291   0.16667   0.00000  Uiso   1.00
O275   O     0.10655   0.79375   0.16666   0.00000  Uiso   1.00
O276   O     0.16667   0.87292   0.09613   0.00000  Uiso   1.00
O277   O     0.16667   0.79375   0.23720   0.00000  Uiso   1.00
O278   O     0.16667   0.87292   0.23720   0.00000  Uiso   1.00
O279   O     0.16667   0.79375   0.09613   0.00000  Uiso   1.00
O280   O     0.04070   0.79331   0.08656   0.00000  Uiso   1.00
C281   C     0.42087   0.83334   0.16664   0.00000  Uiso   1.00
C282   C     0.35489   0.85390   0.20636   0.00000  Uiso   1.00
C283   C     0.62370   0.83334   0.16669   0.00000  Uiso   1.00
C284   C     0.37630   0.83333   0.16666   0.00000  Uiso   1.00
C285   C     0.47380   0.69148   0.13679   0.00000  Uiso   1.00
C286   C     0.52620   0.97519   0.19655   0.00000  Uiso   1.00
C287   C     0.52619   0.69142   0.19655   0.00000  Uiso   1.00
C288   C     0.47381   0.97525   0.13679   0.00000  Uiso   1.00
C289   C     0.57913   0.83333   0.16670   0.00000  Uiso   1.00
C290   C     0.49998   0.83334   0.07354   0.00000  Uiso   1.00
C291   C     0.50002   0.83333   0.25979   0.00000  Uiso   1.00
C292   C     0.49999   0.83334   0.02184   0.00000  Uiso   1.00
C293   C     0.50001   0.83332   0.31149   0.00000  Uiso   1.00
C294   C     0.35468   0.81273   0.12698   0.00000  Uiso   1.00
C295   C     0.64532   0.85393   0.20637   0.00000  Uiso   1.00
C296   C     0.64511   0.81276   0.12699   0.00000  Uiso   1.00
Cu297  Cu    0.50000   0.88022   0.16667   0.00000  Uiso   1.00
Cu298  Cu    0.50000   0.78645   0.16667   0.00000  Uiso   1.00
H299   H     0.45280   0.71013   0.11282   0.00000  Uiso   1.00
H300   H     0.54720   0.95654   0.22051   0.00000  Uiso   1.00
H301   H     0.54719   0.71003   0.22052   0.00000  Uiso   1.00
H302   H     0.45281   0.95664   0.11281   0.00000  Uiso   1.00
H303   H     0.40315   0.80357   0.08493   0.00000  Uiso   1.00
H304   H     0.59683   0.86324   0.24836   0.00000  Uiso   1.00
H305   H     0.59647   0.80390   0.08484   0.00000  Uiso   1.00
H306   H     0.40356   0.86282   0.24849   0.00000  Uiso   1.00
N307   N     0.50000   0.95069   0.16667   0.00000  Uiso   1.00
N308   N     0.50000   0.71598   0.16667   0.00000  Uiso   1.00
O309   O     0.43988   0.87291   0.16666   0.00000  Uiso   1.00
O310   O     0.62597   0.87334   0.24680   0.00000  Uiso   1.00
O311   O     0.62552   0.79341   0.08656   0.00000  Uiso   1.00
O312   O     0.37448   0.87325   0.24680   0.00000  Uiso   1.00
O313   O     0.56012   0.79375   0.16667   0.00000  Uiso   1.00
O314   O     0.56012   0.87291   0.16667   0.00000  Uiso   1.00
O315   O     0.43988   0.79375   0.16666   0.00000  Uiso   1.00
O316   O     0.50000   0.87292   0.09613   0.00000  Uiso   1.00
O317   O     0.50000   0.79375   0.23720   0.00000  Uiso   1.00
O318   O     0.50000   0.87292   0.23720   0.00000  Uiso   1.00
O319   O     0.50000   0.79375   0.09613   0.00000  Uiso   1.00
O320   O     0.37404   0.79331   0.08656   0.00000  Uiso   1.00
C321   C     0.75421   0.83334   0.16664   0.00000  Uiso   1.00
C322   C     0.68823   0.85390   0.20636   0.00000  Uiso   1.00
C323   C     0.95704   0.83334   0.16669   0.00000  Uiso   1.00
C324   C     0.70963   0.83333   0.16666   0.00000  Uiso   1.00
C325   C     0.80714   0.69148   0.13679   0.00000  Uiso   1.00
C326   C     0.85953   0.97519   0.19655   0.00000  Uiso   1.00
C327   C     0.85953   0.69142   0.19655   0.00000  Uiso   1.00
C328   C     0.80714   0.97525   0.13679   0.00000  Uiso   1.00
C329   C     0.91246   0.83333   0.16670   0.00000  Uiso   1.00
C330   C     0.83331   0.83334   0.07354   0.00000  Uiso   1.00
C331   C     0.83335   0.83333   0.25979   0.00000  Uiso   1.00
C332   C     0.83333   0.83334   0.02184   0.00000  Uiso   1.00
C333   C     0.83334   0.83332   0.31149   0.00000  Uiso   1.00
C334   C     0.68801   0.81273   0.12698   0.00000  Uiso   1.00
C335   C     0.97866   0.85393   0.20637   0.00000  Uiso   1.00
C336   C     0.97844   0.81276   0.12699   0.00000  Uiso   1.00
Cu337  Cu    0.83333   0.88022   0.16667   0.00000  Uiso   1.00
Cu338  Cu    0.83333   0.78645   0.16667   0.00000  Uiso   1.00
H339   H     0.78613   0.71013   0.11282   0.00000  Uiso   1.00
H340   H     0.88053   0.95654   0.22051   0.00000  Uiso   1.00
H341   H     0.88053   0.71003   0.22052   0.00000  Uiso   1.00
H342   H     0.78614   0.95664   0.11281   0.00000  Uiso   1.00
H343   H     0.73648   0.80357   0.08493   0.00000  Uiso   1.00
H344   H     0.93016   0.86324   0.24836   0.00000  Uiso   1.00
H345   H     0.92980   0.80390   0.08484   0.00000  Uiso   1.00
H346   H     0.73689   0.86282   0.24849   0.00000  Uiso   1.00
N347   N     0.83333   0.95069   0.16667   0.00000  Uiso   1.00
N348   N     0.83333   0.71598   0.16667   0.00000  Uiso   1.00
O349   O     0.77321   0.87291   0.16666   0.00000  Uiso   1.00
O350   O     0.95930   0.87334   0.24680   0.00000  Uiso   1.00
O351   O     0.95885   0.79341   0.08656   0.00000  Uiso   1.00
O352   O     0.70781   0.87325   0.24680   0.00000  Uiso   1.00
O353   O     0.89345   0.79375   0.16667   0.00000  Uiso   1.00
O354   O     0.89345   0.87291   0.16667   0.00000  Uiso   1.00
O355   O     0.77321   0.79375   0.16666   0.00000  Uiso   1.00
O356   O     0.83333   0.87292   0.09613   0.00000  Uiso   1.00
O357   O     0.83333   0.79375   0.23720   0.00000  Uiso   1.00
O358   O     0.83333   0.87292   0.23720   0.00000  Uiso   1.00
O359   O     0.83333   0.79375   0.09613   0.00000  Uiso   1.00
O360   O     0.70737   0.79331   0.08656   0.00000  Uiso   1.00
C361   C     0.08754   0.16667   0.49998   0.00000  Uiso   1.00
C362   C     0.02156   0.18724   0.53970   0.00000  Uiso   1.00
C363   C     0.29037   0.16667   0.50002   0.00000  Uiso   1.00
C364   C     0.04296   0.16666   0.49999   0.00000  Uiso   1.00
C365   C     0.14047   0.02481   0.47012   0.00000  Uiso   1.00
C366   C     0.19286   0.30852   0.52988   0.00000  Uiso   1.00
C367   C     0.19286   0.02475   0.52988   0.00000  Uiso   1.00
C368   C     0.14047   0.30858   0.47012   0.00000  Uiso   1.00
C369   C     0.24580   0.16666   0.50003   0.00000  Uiso   1.00
C370   C     0.16665   0.16667   0.40688   0.00000  Uiso   1.00
C371   C     0.16669   0.16666   0.59312   0.00000  Uiso   1.00
C372   C     0.16666   0.16668   0.35518   0.00000  Uiso   1.00
C373   C     0.16667   0.16666   0.64482   0.00000  Uiso   1.00
C374   C     0.02135   0.14607   0.46032   0.00000  Uiso   1.00
C375   C     0.31199   0.18726   0.53970   0.00000  Uiso   1.00
C376   C     0.31177   0.14609   0.46033   0.00000  Uiso   1.00
Cu377  Cu    0.16667   0.21355   0.50000   0.00000  Uiso   1.00
Cu378  Cu    0.16667   0.11978   0.50000   0.00000  Uiso   1.00
H379   H     0.11947   0.04346   0.44615   0.00000  Uiso   1.00
H380   H     0.21387   0.28987   0.55385   0.00000  Uiso   1.00
H381   H     0.21386   0.04336   0.55385   0.00000  Uiso   1.00
H382   H     0.11947   0.28997   0.44615   0.00000  Uiso   1.00
H383   H     0.06982   0.13691   0.41826   0.00000  Uiso   1.00
H384   H     0.26349   0.19657   0.58169   0.00000  Uiso   1.00
H385   H     0.26314   0.13724   0.41818   0.00000  Uiso   1.00
H386   H     0.07022   0.19616   0.58182   0.00000  Uiso   1.00
N387   N     0.16667   0.28402   0.50000   0.00000  Uiso   1.00
N388   N     0.16667   0.04931   0.50000   0.00000  Uiso   1.00
O389   O     0.10655   0.20625   0.50000   0.00000  Uiso   1.00
O390   O     0.29263   0.20667   0.58013   0.00000  Uiso   1.00
O391   O     0.29219   0.12674   0.41989   0.00000  Uiso   1.00
O392   O     0.04115   0.20658   0.58013   0.00000  Uiso   1.00
O393   O     0.22679   0.12709   0.50000   0.00000  Uiso   1.00
O394   O     0.22679   0.20625   0.50000   0.00000  Uiso   1.00
O395   O     0.10655   0.12709   0.50000   0.00000  Uiso   1.00
O396   O     0.16667   0.20625   0.42946   0.00000  Uiso   1.00
O397   O     0.16667   0.12708   0.57054   0.00000  Uiso   1.00
O398   O     0.16667   0.20625   0.57054   0.00000  Uiso   1.00
O399   O     0.16667   0.12708   0.42946   0.00000  Uiso   1.00
O400   O     0.04070   0.12665   0.41990   0.00000  Uiso   1.00
C401   C     0.42087   0.16667   0.49998   0.00000  Uiso   1.00
C402   C     0.35489   0.18724   0.53970   0.00000  Uiso   1.00
C403   C     0.62370   0.16667   0.50002   0.00000  Uiso   1.00
C404   C     0.37630   0.16666   0.49999   0.00000  Uiso   1.00
C405   C     0.47380   0.02481   0.47012   0.00000  Uiso   1.00
C406   C     0.52620   0.30852   0.52988   0.00000  Uiso   1.00
C407   C     0.52619   0.02475   0.52988   0.00000  Uiso   1.00
C408   C     0.47381   0.30858   0.47012   0.00000  Uiso   1.00
C409   C     0.57913   0.16666   0.50003   0.00000  Uiso   1.00
C410   C     0.49998   0.16667   0.40688   0.00000  Uiso   1.00
C411   C     0.50002   0.16666   0.59312   0.00000  Uiso   1.00
C412   C     0.49999   0.16668   0.35518   0.00000  Uiso   1.00
C413   C     0.50001   0.16666   0.64482   0.00000  Uiso   1.00
C414   C     0.35468   0.14607   0.46032   0.00000  Uiso   1.00
C415   C     0.64532   0.18726   0.53970   0.00000  Uiso   1.00
C416   C     0.64511   0.14609   0.46033   0.00000  Uiso   1.00
Cu417  Cu    0.50000   0.21355   0.50000   0.00000  Uiso   1.00
Cu418  Cu    0.50000   0.11978   0.50000   0.00000  Uiso   1.00
H419   H     0.45280   0.04346   0.44615   0.00000  Uiso   1.00
H420   H     0.54720   0.28987   0.55385   0.00000  Uiso   1.00
H421   H     0.54719   0.04336   0.55385   0.00000  Uiso   1.00
H422   H     0.45281   0.28997   0.44615   0.00000  Uiso   1.00
H423   H     0.40315   0.13691   0.41826   0.00000  Uiso   1.00
H424   H     0.59683   0.19657   0.58169   0.00000  Uiso   1.00
H425   H     0.59647   0.13724   0.41818   0.00000  Uiso   1.00
H426   H     0.40356   0.19616   0.58182   0.00000  Uiso   1.00
N427   N     0.50000   0.28402   0.50000   0.00000  Uiso   1.00
N428   N     0.50000   0.04931   0.50000   0.00000  Uiso   1.00
O429   O     0.43988   0.20625   0.50000   0.00000  Uiso   1.00
O430   O     0.62597   0.20667   0.58013   0.00000  Uiso   1.00
O431   O     0.62552   0.12674   0.41989   0.00000  Uiso   1.00
O432   O     0.37448   0.20658   0.58013   0.00000  Uiso   1.00
O433   O     0.56012   0.12709   0.50000   0.00000  Uiso   1.00
O434   O     0.56012   0.20625   0.50000   0.00000  Uiso   1.00
O435   O     0.43988   0.12709   0.50000   0.00000  Uiso   1.00
O436   O     0.50000   0.20625   0.42946   0.00000  Uiso   1.00
O437   O     0.50000   0.12708   0.57054   0.00000  Uiso   1.00
O438   O     0.50000   0.20625   0.57054   0.00000  Uiso   1.00
O439   O     0.50000   0.12708   0.42946   0.00000  Uiso   1.00
O440   O     0.37404   0.12665   0.41990   0.00000  Uiso   1.00
C441   C     0.75421   0.16667   0.49998   0.00000  Uiso   1.00
C442   C     0.68823   0.18724   0.53970   0.00000  Uiso   1.00
C443   C     0.95704   0.16667   0.50002   0.00000  Uiso   1.00
C444   C     0.70963   0.16666   0.49999   0.00000  Uiso   1.00
C445   C     0.80714   0.02481   0.47012   0.00000  Uiso   1.00
C446   C     0.85953   0.30852   0.52988   0.00000  Uiso   1.00
C447   C     0.85953   0.02475   0.52988   0.00000  Uiso   1.00
C448   C     0.80714   0.30858   0.47012   0.00000  Uiso   1.00
C449   C     0.91246   0.16666   0.50003   0.00000  Uiso   1.00
C450   C     0.83331   0.16667   0.40688   0.00000  Uiso   1.00
C451   C     0.83335   0.16666   0.59312   0.00000  Uiso   1.00
C452   C     0.83333   0.16668   0.35518   0.00000  Uiso   1.00
C453   C     0.83334   0.16666   0.64482   0.00000  Uiso   1.00
C454   C     0.68801   0.14607   0.46032   0.00000  Uiso   1.00
C455   C     0.97866   0.18726   0.53970   0.00000  Uiso   1.00
C456   C     0.97844   0.14609   0.46033   0.00000  Uiso   1.00
Cu457  Cu    0.83333   0.21355   0.50000   0.00000  Uiso   1.00
Cu458  Cu    0.83333   0.11978   0.50000   0.00000  Uiso   1.00
H459   H     0.78613   0.04346   0.44615   0.00000  Uiso   1.00
H460   H     0.88053   0.28987   0.55385   0.00000  Uiso   1.00
H461   H     0.88053   0.04336   0.55385   0.00000  Uiso   1.00
H462   H     0.78614   0.28997   0.44615   0.00000  Uiso   1.00
H463   H     0.73648   0.13691   0.41826   0.00000  Uiso   1.00
H464   H     0.93016   0.19657   0.58169   0.00000  Uiso   1.00
H465   H     0.92980   0.13724   0.41818   0.00000  Uiso   1.00
H466   H     0.73689   0.19616   0.58182   0.00000  Uiso   1.00
N467   N     0.83333   0.28402   0.50000   0.00000  Uiso   1.00
N468   N     0.83333   0.04931   0.50000   0.00000  Uiso   1.00
O469   O     0.77321   0.20625   0.50000   0.00000  Uiso   1.00
O470   O     0.95930   0.20667   0.58013   0.00000  Uiso   1.00
O471   O     0.95885   0.12674   0.41989   0.00000  Uiso   1.00
O472   O     0.70781   0.20658   0.58013   0.00000  Uiso   1.00
O473   O     0.89345   0.12709   0.50000   0.00000  Uiso   1.00
O474   O     0.89345   0.20625   0.50000   0.00000  Uiso   1.00
O475   O     0.77321   0.12709   0.50000   0.00000  Uiso   1.00
O476   O     0.83333   0.20625   0.42946   0.00000  Uiso   1.00
O477   O     0.83333   0.12708   0.57054   0.00000  Uiso   1.00
O478   O     0.83333   0.20625   0.57054   0.00000  Uiso   1.00
O479   O     0.83333   0.12708   0.42946   0.00000  Uiso   1.00
O480   O     0.70737   0.12665   0.41990   0.00000  Uiso   1.00
C481   C     0.08754   0.50000   0.49998   0.00000  Uiso   1.00
C482   C     0.02156   0.52057   0.53970   0.00000  Uiso   1.00
C483   C     0.29037   0.50001   0.50002   0.00000  Uiso   1.00
C484   C     0.04296   0.50000   0.49999   0.00000  Uiso   1.00
C485   C     0.14047   0.35814   0.47012   0.00000  Uiso   1.00
C486   C     0.19286   0.64186   0.52988   0.00000  Uiso   1.00
C487   C     0.19286   0.35809   0.52988   0.00000  Uiso   1.00
C488   C     0.14047   0.64191   0.47012   0.00000  Uiso   1.00
C489   C     0.24580   0.50000   0.50003   0.00000  Uiso   1.00
C490   C     0.16665   0.50001   0.40688   0.00000  Uiso   1.00
C491   C     0.16669   0.49999   0.59312   0.00000  Uiso   1.00
C492   C     0.16666   0.50001   0.35518   0.00000  Uiso   1.00
C493   C     0.16667   0.49999   0.64482   0.00000  Uiso   1.00
C494   C     0.02135   0.47940   0.46032   0.00000  Uiso   1.00
C495   C     0.31199   0.52060   0.53970   0.00000  Uiso   1.00
C496   C     0.31177   0.47942   0.46033   0.00000  Uiso   1.00
Cu497  Cu    0.16667   0.54689   0.50000   0.00000  Uiso   1.00
Cu498  Cu    0.16667   0.45311   0.50000   0.00000  Uiso   1.00
H499   H     0.11947   0.37680   0.44615   0.00000  Uiso   1.00
H500   H     0.21387   0.62320   0.55385   0.00000  Uiso   1.00
H501   H     0.21386   0.37669   0.55385   0.00000  Uiso   1.00
H502   H     0.11947   0.62331   0.44615   0.00000  Uiso   1.00
H503   H     0.06982   0.47024   0.41826   0.00000  Uiso   1.00
H504   H     0.26349   0.52991   0.58169   0.00000  Uiso   1.00
H505   H     0.26314   0.47057   0.41818   0.00000  Uiso   1.00
H506   H     0.07022   0.52949   0.58182   0.00000  Uiso   1.00
N507   N     0.16667   0.61736   0.50000   0.00000  Uiso   1.00
N508   N     0.16667   0.38264   0.50000   0.00000  Uiso   1.00
O509   O     0.10655   0.53958   0.50000   0.00000  Uiso   1.00
O510   O     0.29263   0.54001   0.58013   0.00000  Uiso   1.00
O511   O     0.29219   0.46007   0.41989   0.00000  Uiso   1.00
O512   O     0.04115   0.53991   0.58013   0.00000  Uiso   1.00
O513   O     0.22679   0.46042   0.50000   0.00000  Uiso   1.00
O514   O     0.22679   0.53958   0.50000   0.00000  Uiso   1.00
O515   O     0.10655   0.46042   0.50000   0.00000  Uiso   1.00
O516   O     0.16667   0.53959   0.42946   0.00000  Uiso   1.00
O517   O     0.16667   0.46041   0.57054   0.00000  Uiso   1.00
O518   O     0.16667   0.53959   0.57054   0.00000  Uiso   1.00
O519   O     0.16667   0.46041   0.42946   0.00000  Uiso   1.00
O520   O     0.04070   0.45998   0.41990   0.00000  Uiso   1.00
C521   C     0.42087   0.50000   0.49998   0.00000  Uiso   1.00
C522   C     0.35489   0.52057   0.53970   0.00000  Uiso   1.00
C523   C     0.62370   0.50001   0.50002   0.00000  Uiso   1.00
C524   C     0.37630   0.50000   0.49999   0.00000  Uiso   1.00
C525   C     0.47380   0.35814   0.47012   0.00000  Uiso   1.00
C526   C     0.52620   0.64186   0.52988   0.00000  Uiso   1.00
C527   C     0.52619   0.35809   0.52988   0.00000  Uiso   1.00
C528   C     0.47381   0.64191   0.47012   0.00000  Uiso   1.00
C529   C     0.57913   0.50000   0.50003   0.00000  Uiso   1.00
C530   C     0.49998   0.50001   0.40688   0.00000  Uiso   1.00
C531   C     0.50002   0.49999   0.59312   0.00000  Uiso   1.00
C532   C     0.49999   0.50001   0.35518   0.00000  Uiso   1.00
C533   C     0.50001   0.49999   0.64482   0.00000  Uiso   1.00
C534   C     0.35468   0.47940   0.46032   0.00000  Uiso   1.00
C535   C     0.64532   0.52060   0.53970   0.00000  Uiso   1.00
C536   C     0.64511   0.47942   0.46033   0.00000  Uiso   1.00
Cu537  Cu    0.50000   0.54689   0.50000   0.00000  Uiso   1.00
Cu538  Cu    0.50000   0.45311   0.50000   0.00000  Uiso   1.00
H539   H     0.45280   0.37680   0.44615   0.00000  Uiso   1.00
H540   H     0.54720   0.62320   0.55385   0.00000  Uiso   1.00
H541   H     0.54719   0.37669   0.55385   0.00000  Uiso   1.00
H542   H     0.45281   0.62331   0.44615   0.00000  Uiso   1.00
H543   H     0.40315   0.47024   0.41826   0.00000  Uiso   1.00
H544   H     0.59683   0.52991   0.58169   0.00000  Uiso   1.00
H545   H     0.59647   0.47057   0.41818   0.00000  Uiso   1.00
H546   H     0.40356   0.52949   0.58182   0.00000  Uiso   1.00
N547   N     0.50000   0.61736   0.50000   0.00000  Uiso   1.00
N548   N     0.50000   0.38264   0.50000   0.00000  Uiso   1.00
O549   O     0.43988   0.53958   0.50000   0.00000  Uiso   1.00
O550   O     0.62597   0.54001   0.58013   0.00000  Uiso   1.00
O551   O     0.62552   0.46007   0.41989   0.00000  Uiso   1.00
O552   O     0.37448   0.53991   0.58013   0.00000  Uiso   1.00
O553   O     0.56012   0.46042   0.50000   0.00000  Uiso   1.00
O554   O     0.56012   0.53958   0.50000   0.00000  Uiso   1.00
O555   O     0.43988   0.46042   0.50000   0.00000  Uiso   1.00
O556   O     0.50000   0.53959   0.42946   0.00000  Uiso   1.00
O557   O     0.50000   0.46041   0.57054   0.00000  Uiso   1.00
O558   O     0.50000   0.53959   0.57054   0.00000  Uiso   1.00
O559   O     0.50000   0.46041   0.42946   0.00000  Uiso   1.00
O560   O     0.37404   0.45998   0.41990   0.00000  Uiso   1.00
C561   C     0.75421   0.50000   0.49998   0.00000  Uiso   1.00
C562   C     0.68823   0.52057   0.53970   0.00000  Uiso   1.00
C563   C     0.95704   0.50001   0.50002   0.00000  Uiso   1.00
C564   C     0.70963   0.50000   0.49999   0.00000  Uiso   1.00
C565   C     0.80714   0.35814   0.47012   0.00000  Uiso   1.00
C566   C     0.85953   0.64186   0.52988   0.00000  Uiso   1.00
C567   C     0.85953   0.35809   0.52988   0.00000  Uiso   1.00
C568   C     0.80714   0.64191   0.47012   0.00000  Uiso   1.00
C569   C     0.91246   0.50000   0.50003   0.00000  Uiso   1.00
C570   C     0.83331   0.50001   0.40688   0.00000  Uiso   1.00
C571   C     0.83335   0.49999   0.59312   0.00000  Uiso   1.00
C572   C     0.83333   0.50001   0.35518   0.00000  Uiso   1.00
C573   C     0.83334   0.49999   0.64482   0.00000  Uiso   1.00
C574   C     0.68801   0.47940   0.46032   0.00000  Uiso   1.00
C575   C     0.97866   0.52060   0.53970   0.00000  Uiso   1.00
C576   C     0.97844   0.47942   0.46033   0.00000  Uiso   1.00
Cu577  Cu    0.83333   0.54689   0.50000   0.00000  Uiso   1.00
Cu578  Cu    0.83333   0.45311   0.50000   0.00000  Uiso   1.00
H579   H     0.78613   0.37680   0.44615   0.00000  Uiso   1.00
H580   H     0.88053   0.62320   0.55385   0.00000  Uiso   1.00
H581   H     0.88053   0.37669   0.55385   0.00000  Uiso   1.00
H582   H     0.78614   0.62331   0.44615   0.00000  Uiso   1.00
H583   H     0.73648   0.47024   0.41826   0.00000  Uiso   1.00
H584   H     0.93016   0.52991   0.58169   0.00000  Uiso   1.00
H585   H     0.92980   0.47057   0.41818   0.00000  Uiso   1.00
H586   H     0.73689   0.52949   0.58182   0.00000  Uiso   1.00
N587   N     0.83333   0.61736   0.50000   0.00000  Uiso   1.00
N588   N     0.83333   0.38264   0.50000   0.00000  Uiso   1.00
O589   O     0.77321   0.53958   0.50000   0.00000  Uiso   1.00
O590   O     0.95930   0.54001   0.58013   0.00000  Uiso   1.00
O591   O     0.95885   0.46007   0.41989   0.00000  Uiso   1.00
O592   O     0.70781   0.53991   0.58013   0.00000  Uiso   1.00
O593   O     0.89345   0.46042   0.50000   0.00000  Uiso   1.00
O594   O     0.89345   0.53958   0.50000   0.00000  Uiso   1.00
O595   O     0.77321   0.46042   0.50000   0.00000  Uiso   1.00
O596   O     0.83333   0.53959   0.42946   0.00000  Uiso   1.00
O597   O     0.83333   0.46041   0.57054   0.00000  Uiso   1.00
O598   O     0.83333   0.53959   0.57054   0.00000  Uiso   1.00
O599   O     0.83333   0.46041   0.42946   0.00000  Uiso   1.00
O600   O     0.70737   0.45998   0.41990   0.00000  Uiso   1.00
C601   C     0.08754   0.83334   0.49998   0.00000  Uiso   1.00
C602   C     0.02156   0.85390   0.53970   0.00000  Uiso   1.00
C603   C     0.29037   0.83334   0.50002   0.00000  Uiso   1.00
C604   C     0.04296   0.83333   0.49999   0.00000  Uiso   1.00
C605   C     0.14047   0.69148   0.47012   0.00000  Uiso   1.00
C606   C     0.19286   0.97519   0.52988   0.00000  Uiso   1.00
C607   C     0.19286   0.69142   0.52988   0.00000  Uiso   1.00
C608   C     0.14047   0.97525   0.47012   0.00000  Uiso   1.00
C609   C     0.24580   0.83333   0.50003   0.00000  Uiso   1.00
C610   C     0.16665   0.83334   0.40688   0.00000  Uiso   1.00
C611   C     0.16669   0.83333   0.59312   0.00000  Uiso   1.00
C612   C     0.16666   0.83334   0.35518   0.00000  Uiso   1.00
C613   C     0.16667   0.83332   0.64482   0.00000  Uiso   1.00
C614   C     0.02135   0.81273   0.46032   0.00000  Uiso   1.00
C615   C     0.31199   0.85393   0.53970   0.00000  Uiso   1.00
C616   C     0.31177   0.81276   0.46033   0.00000  Uiso   1.00
Cu617  Cu    0.16667   0.88022   0.50000   0.00000  Uiso   1.00
Cu618  Cu    0.16667   0.78645   0.50000   0.00000  Uiso   1.00
H619   H     0.11947   0.71013   0.44615   0.00000  Uiso   1.00
H620   H     0.21387   0.95654   0.55385   0.00000  Uiso   1.00
H621   H     0.21386   0.71003   0.55385   0.00000  Uiso   1.00
H622   H     0.11947   0.95664   0.44615   0.00000  Uiso   1.00
H623   H     0.06982   0.80357   0.41826   0.00000  Uiso   1.00
H624   H     0.26349   0.86324   0.58169   0.00000  Uiso   1.00
H625   H     0.26314   0.80390   0.41818   0.00000  Uiso   1.00
H626   H     0.07022   0.86282   0.58182   0.00000  Uiso   1.00
N627   N     0.16667   0.95069   0.50000   0.00000  Uiso   1.00
N628   N     0.16667   0.71598   0.50000   0.00000  Uiso   1.00
O629   O     0.10655   0.87291   0.50000   0.00000  Uiso   1.00
O630   O     0.29263   0.87334   0.58013   0.00000  Uiso   1.00
O631   O     0.29219   0.79341   0.41989   0.00000  Uiso   1.00
O632   O     0.04115   0.87325   0.58013   0.00000  Uiso   1.00
O633   O     0.22679   0.79375   0.50000   0.00000  Uiso   1.00
O634   O     0.22679   0.87291   0.50000   0.00000  Uiso   1.00
O635   O     0.10655   0.79375   0.50000   0.00000  Uiso   1.00
O636   O     0.16667   0.87292   0.42946   0.00000  Uiso   1.00
O637   O     0.16667   0.79375   0.57054   0.00000  Uiso   1.00
O638   O     0.16667   0.87292   0.57054   0.00000  Uiso   1.00
O639   O     0.16667   0.79375   0.42946   0.00000  Uiso   1.00
O640   O     0.04070   0.79331   0.41990   0.00000  Uiso   1.00
C641   C     0.42087   0.83334   0.49998   0.00000  Uiso   1.00
C642   C     0.35489   0.85390   0.53970   0.00000  Uiso   1.00
C643   C     0.62370   0.83334   0.50002   0.00000  Uiso   1.00
C644   C     0.37630   0.83333   0.49999   0.00000  Uiso   1.00
C645   C     0.47380   0.69148   0.47012   0.00000  Uiso   1.00
C646   C     0.52620   0.97519   0.52988   0.00000  Uiso   1.00
C647   C     0.52619   0.69142   0.52988   0.00000  Uiso   1.00
C648   C     0.47381   0.97525   0.47012   0.00000  Uiso   1.00
C649   C     0.57913   0.83333   0.50003   0.00000  Uiso   1.00
C650   C     0.49998   0.83334   0.40688   0.00000  Uiso   1.00
C651   C     0.50002   0.83333   0.59312   0.00000  Uiso   1.00
C652   C     0.49999   0.83334   0.35518   0.00000  Uiso   1.00
C653   C     0.50001   0.83332   0.64482   0.00000  Uiso   1.00
C654   C     0.35468   0.81273   0.46032   0.00000  Uiso   1.00
C655   C     0.64532   0.85393   0.53970   0.00000  Uiso   1.00
C656   C     0.64511   0.81276   0.46033   0.00000  Uiso   1.00
Cu657  Cu    0.50000   0.88022   0.50000   0.00000  Uiso   1.00
Cu658  Cu    0.50000   0.78645   0.50000   0.00000  Uiso   1.00
H659   H     0.45280   0.71013   0.44615   0.00000  Uiso   1.00
H660   H     0.54720   0.95654   0.55385   0.00000  Uiso   1.00
H661   H     0.54719   0.71003   0.55385   0.00000  Uiso   1.00
H662   H     0.45281   0.95664   0.44615   0.00000  Uiso   1.00
H663   H     0.40315   0.80357   0.41826   0.00000  Uiso   1.00
H664   H     0.59683   0.86324   0.58169   0.00000  Uiso   1.00
H665   H     0.59647   0.80390   0.41818   0.00000  Uiso   1.00
H666   H     0.40356   0.86282   0.58182   0.00000  Uiso   1.00
N667   N     0.50000   0.95069   0.50000   0.00000  Uiso   1.00
N668   N     0.50000   0.71598   0.50000   0.00000  Uiso   1.00
O669   O     0.43988   0.87291   0.50000   0.00000  Uiso   1.00
O670   O     0.62597   0.87334   0.58013   0.00000  Uiso   1.00
O671   O     0.62552   0.79341   0.41989   0.00000  Uiso   1.00
O672   O     0.37448   0.87325   0.58013   0.00000  Uiso   1.00
O673   O     0.56012   0.79375   0.50000   0.00000  Uiso   1.00
O674   O     0.56012   0.87291   0.50000   0.00000  Uiso   1.00
O675   O     0.43988   0.79375   0.50000   0.00000  Uiso   1.00
O676   O     0.50000   0.87292   0.42946   0.00000  Uiso   1.00
O677   O     0.50000   0.79375   0.57054   0.00000  Uiso   1.00
O678   O     0.50000   0.87292   0.57054   0.00000  Uiso   1.00
O679   O     0.50000   0.79375   0.42946   0.00000  Uiso   1.00
O680   O     0.37404   0.79331   0.41990   0.00000  Uiso   1.00
C681   C     0.75421   0.83334   0.49998   0.00000  Uiso   1.00
C682   C     0.68823   0.85390   0.53970   0.00000  Uiso   1.00
C683   C     0.95704   0.83334   0.50002   0.00000  Uiso   1.00
C684   C     0.70963   0.83333   0.49999   0.00000  Uiso   1.00
C685   C     0.80714   0.69148   0.47012   0.00000  Uiso   1.00
C686   C     0.85953   0.97519   0.52988   0.00000  Uiso   1.00
C687   C     0.85953   0.69142   0.52988   0.00000  Uiso   1.00
C688   C     0.80714   0.97525   0.47012   0.00000  Uiso   1.00
C689   C     0.91246   0.83333   0.50003   0.00000  Uiso   1.00
C690   C     0.83331   0.83334   0.40688   0.00000  Uiso   1.00
C691   C     0.83335   0.83333   0.59312   0.00000  Uiso   1.00
C692   C     0.83333   0.83334   0.35518   0.00000  Uiso   1.00
C693   C     0.83334   0.83332   0.64482   0.00000  Uiso   1.00
C694   C     0.68801   0.81273   0.46032   0.00000  Uiso   1.00
C695   C     0.97866   0.85393   0.53970   0.00000  Uiso   1.00
C696   C     0.97844   0.81276   0.46033   0.00000  Uiso   1.00
Cu697  Cu    0.83333   0.88022   0.50000   0.00000  Uiso   1.00
Cu698  Cu    0.83333   0.78645   0.50000   0.00000  Uiso   1.00
H699   H     0.78613   0.71013   0.44615   0.00000  Uiso   1.00
H700   H     0.88053   0.95654   0.55385   0.00000  Uiso   1.00
H701   H     0.88053   0.71003   0.55385   0.00000  Uiso   1.00
H702   H     0.78614   0.95664   0.44615   0.00000  Uiso   1.00
H703   H     0.73648   0.80357   0.41826   0.00000  Uiso   1.00
H704   H     0.93016   0.86324   0.58169   0.00000  Uiso   1.00
H705   H     0.92980   0.80390   0.41818   0.00000  Uiso   1.00
H706   H     0.73689   0.86282   0.58182   0.00000  Uiso   1.00
N707   N     0.83333   0.95069   0.50000   0.00000  Uiso   1.00
N708   N     0.83333   0.71598   0.50000   0.00000  Uiso   1.00
O709   O     0.77321   0.87291   0.50000   0.00000  Uiso   1.00
O710   O     0.95930   0.87334   0.58013   0.00000  Uiso   1.00
O711   O     0.95885   0.79341   0.41989   0.00000  Uiso   1.00
O712   O     0.70781   0.87325   0.58013   0.00000  Uiso   1.00
O713   O     0.89345   0.79375   0.50000   0.00000  Uiso   1.00
O714   O     0.89345   0.87291   0.50000   0.00000  Uiso   1.00
O715   O     0.77321   0.79375   0.50000   0.00000  Uiso   1.00
O716   O     0.83333   0.87292   0.42946   0.00000  Uiso   1.00
O717   O     0.83333   0.79375   0.57054   0.00000  Uiso   1.00
O718   O     0.83333   0.87292   0.57054   0.00000  Uiso   1.00
O719   O     0.83333   0.79375   0.42946   0.00000  Uiso   1.00
O720   O     0.70737   0.79331   0.41990   0.00000  Uiso   1.00
C721   C     0.08754   0.16667   0.83331   0.00000  Uiso   1.00
C722   C     0.02156   0.18724   0.87303   0.00000  Uiso   1.00
C723   C     0.29037   0.16667   0.83336   0.00000  Uiso   1.00
C724   C     0.04296   0.16666   0.83333   0.00000  Uiso   1.00
C725   C     0.14047   0.02481   0.80345   0.00000  Uiso   1.00
C726   C     0.19286   0.30852   0.86321   0.00000  Uiso   1.00
C727   C     0.19286   0.02475   0.86321   0.00000  Uiso   1.00
C728   C     0.14047   0.30858   0.80345   0.00000  Uiso   1.00
C729   C     0.24580   0.16666   0.83336   0.00000  Uiso   1.00
C730   C     0.16665   0.16667   0.74021   0.00000  Uiso   1.00
C731   C     0.16669   0.16666   0.92646   0.00000  Uiso   1.00
C732   C     0.16666   0.16668   0.68851   0.00000  Uiso   1.00
C733   C     0.16667   0.16666   0.97816   0.00000  Uiso   1.00
C734   C     0.02135   0.14607   0.79365   0.00000  Uiso   1.00
C735   C     0.31199   0.18726   0.87304   0.00000  Uiso   1.00
C736   C     0.31177   0.14609   0.79366   0.00000  Uiso   1.00
Cu737  Cu    0.16667   0.21355   0.83333   0.00000  Uiso   1.00
Cu738  Cu    0.16667   0.11978   0.83333   0.00000  Uiso   1.00
H739   H     0.11947   0.04346   0.77949   0.00000  Uiso   1.00
H740   H     0.21387   0.28987   0.88718   0.00000  Uiso   1.00
H741   H     0.21386   0.04336   0.88719   0.00000  Uiso   1.00
H742   H     0.11947   0.28997   0.77948   0.00000  Uiso   1.00
H743   H     0.06982   0.13691   0.75160   0.00000  Uiso   1.00
H744   H     0.26349   0.19657   0.91502   0.00000  Uiso   1.00
H745   H     0.26314   0.13724   0.75151   0.00000  Uiso   1.00
H746   H     0.07022   0.19616   0.91515   0.00000  Uiso   1.00
N747   N     0.16667   0.28402   0.83333   0.00000  Uiso   1.00
N748   N     0.16667   0.04931   0.83333   0.00000  Uiso   1.00
O749   O     0.10655   0.20625   0.83333   0.00000  Uiso   1.00
O750   O     0.29263   0.20667   0.91346   0.00000  Uiso   1.00
O751   O     0.29219   0.12674   0.75322   0.00000  Uiso   1.00
O752   O     0.04115   0.20658   0.91347   0.00000  Uiso   1.00
O753   O     0.22679   0.12709   0.83334   0.00000  Uiso   1.00
O754   O     0.22679   0.20625   0.83334   0.00000  Uiso   1.00
O755   O     0.10655   0.12709   0.83333   0.00000  Uiso   1.00
O756   O     0.16667   0.20625   0.76280   0.00000  Uiso   1.00
O757   O     0.16667   0.12708   0.90387   0.00000  Uiso   1.00
O758   O     0.16667   0.20625   0.90387   0.00000  Uiso   1.00
O759   O     0.16667   0.12708   0.76280   0.00000  Uiso   1.00
O760   O     0.04070   0.12665   0.75323   0.00000  Uiso   1.00
C761   C     0.42087   0.16667   0.83331   0.00000  Uiso   1.00
C762   C     0.35489   0.18724   0.87303   0.00000  Uiso   1.00
C763   C     0.62370   0.16667   0.83336   0.00000  Uiso   1.00
C764   C     0.37630   0.16666   0.83333   0.00000  Uiso   1.00
C765   C     0.47380   0.02481   0.80345   0.00000  Uiso   1.00
C766   C     0.52620   0.30852   0.86321   0.00000  Uiso   1.00
C767   C     0.52619   0.02475   0.86321   0.00000  Uiso   1.00
C768   C     0.47381   0.30858   0.80345   0.00000  Uiso   1.00
C769   C     0.57913   0.16666   0.83336   0.00000  Uiso   1.00
C770   C     0.49998   0.16667   0.74021   0.00000  Uiso   1.00
C771   C     0.50002   0.16666   0.92646   0.00000  Uiso   1.00
C772   C     0.49999   0.16668   0.68851   0.00000  Uiso   1.00
C773   C     0.50001   0.16666   0.97816   0.00000  Uiso   1.00
C774   C     0.35468   0.14607   0.79365   0.00000  Uiso   1.00
C775   C     0.64532   0.18726   0.87304   0.00000  Uiso   1.00
C776   C     0.64511   0.14609   0.79366   0.00000  Uiso   1.00
Cu777  Cu    0.50000   0.21355   0.83333   0.00000  Uiso   1.00
Cu778  Cu    0.50000   0.11978   0.83333   0.00000  Uiso   1.00
H779   H     0.45280   0.04346   0.77949   0.00000  Uiso   1.00
H780   H     0.54720   0.28987   0.88718   0.00000  Uiso   1.00
H781   H     0.54719   0.04336   0.88719   0.00000  Uiso   1.00
H782   H     0.45281   0.28997   0.77948   0.00000  Uiso   1.00
H783   H     0.40315   0.13691   0.75160   0.00000  Uiso   1.00
H784   H     0.59683   0.19657   0.91502   0.00000  Uiso   1.00
H785   H     0.59647   0.13724   0.75151   0.00000  Uiso   1.00
H786   H     0.40356   0.19616   0.91515   0.00000  Uiso   1.00
N787   N     0.50000   0.28402   0.83333   0.00000  Uiso   1.00
N788   N     0.50000   0.04931   0.83333   0.00000  Uiso   1.00
O789   O     0.43988   0.20625   0.83333   0.00000  Uiso   1.00
O790   O     0.62597   0.20667   0.91346   0.00000  Uiso   1.00
O791   O     0.62552   0.12674   0.75322   0.00000  Uiso   1.00
O792   O     0.37448   0.20658   0.91347   0.00000  Uiso   1.00
O793   O     0.56012   0.12709   0.83334   0.00000  Uiso   1.00
O794   O     0.56012   0.20625   0.83334   0.00000  Uiso   1.00
O795   O     0.43988   0.12709   0.83333   0.00000  Uiso   1.00
O796   O     0.50000   0.20625   0.76280   0.00000  Uiso   1.00
O797   O     0.50000   0.12708   0.90387   0.00000  Uiso   1.00
O798   O     0.50000   0.20625   0.90387   0.00000  Uiso   1.00
O799   O     0.50000   0.12708   0.76280   0.00000  Uiso   1.00
O800   O     0.37404   0.12665   0.75323   0.00000  Uiso   1.00
C801   C     0.75421   0.16667   0.83331   0.00000  Uiso   1.00
C802   C     0.68823   0.18724   0.87303   0.00000  Uiso   1.00
C803   C     0.95704   0.16667   0.83336   0.00000  Uiso   1.00
C804   C     0.70963   0.16666   0.83333   0.00000  Uiso   1.00
C805   C     0.80714   0.02481   0.80345   0.00000  Uiso   1.00
C806   C     0.85953   0.30852   0.86321   0.00000  Uiso   1.00
C807   C     0.85953   0.02475   0.86321   0.00000  Uiso   1.00
C808   C     0.80714   0.30858   0.80345   0.00000  Uiso   1.00
C809   C     0.91246   0.16666   0.83336   0.00000  Uiso   1.00
C810   C     0.83331   0.16667   0.74021   0.00000  Uiso   1.00
C811   C     0.83335   0.16666   0.92646   0.00000  Uiso   1.00
C812   C     0.83333   0.16668   0.68851   0.00000  Uiso   1.00
C813   C     0.83334   0.16666   0.97816   0.00000  Uiso   1.00
C814   C     0.68801   0.14607   0.79365   0.00000  Uiso   1.00
C815   C     0.97866   0.18726   0.87304   0.00000  Uiso   1.00
C816   C     0.97844   0.14609   0.79366   0.00000  Uiso   1.00
Cu817  Cu    0.83333   0.21355   0.83333   0.00000  Uiso   1.00
Cu818  Cu    0.83333   0.11978   0.83333   0.00000  Uiso   1.00
H819   H     0.78613   0.04346   0.77949   0.00000  Uiso   1.00
H820   H     0.88053   0.28987   0.88718   0.00000  Uiso   1.00
H821   H     0.88053   0.04336   0.88719   0.00000  Uiso   1.00
H822   H     0.78614   0.28997   0.77948   0.00000  Uiso   1.00
H823   H     0.73648   0.13691   0.75160   0.00000  Uiso   1.00
H824   H     0.93016   0.19657   0.91502   0.00000  Uiso   1.00
H825   H     0.92980   0.13724   0.75151   0.00000  Uiso   1.00
H826   H     0.73689   0.19616   0.91515   0.00000  Uiso   1.00
N827   N     0.83333   0.28402   0.83333   0.00000  Uiso   1.00
N828   N     0.83333   0.04931   0.83333   0.00000  Uiso   1.00
O829   O     0.77321   0.20625   0.83333   0.00000  Uiso   1.00
O830   O     0.95930   0.20667   0.91346   0.00000  Uiso   1.00
O831   O     0.95885   0.12674   0.75322   0.00000  Uiso   1.00
O832   O     0.70781   0.20658   0.91347   0.00000  Uiso   1.00
O833   O     0.89345   0.12709   0.83334   0.00000  Uiso   1.00
O834   O     0.89345   0.20625   0.83334   0.00000  Uiso   1.00
O835   O     0.77321   0.12709   0.83333   0.00000  Uiso   1.00
O836   O     0.83333   0.20625   0.76280   0.00000  Uiso   1.00
O837   O     0.83333   0.12708   0.90387   0.00000  Uiso   1.00
O838   O     0.83333   0.20625   0.90387   0.00000  Uiso   1.00
O839   O     0.83333   0.12708   0.76280   0.00000  Uiso   1.00
O840   O     0.70737   0.12665   0.75323   0.00000  Uiso   1.00
C841   C     0.08754   0.50000   0.83331   0.00000  Uiso   1.00
C842   C     0.02156   0.52057   0.87303   0.00000  Uiso   1.00
C843   C     0.29037   0.50001   0.83336   0.00000  Uiso   1.00
C844   C     0.04296   0.50000   0.83333   0.00000  Uiso   1.00
C845   C     0.14047   0.35814   0.80345   0.00000  Uiso   1.00
C846   C     0.19286   0.64186   0.86321   0.00000  Uiso   1.00
C847   C     0.19286   0.35809   0.86321   0.00000  Uiso   1.00
C848   C     0.14047   0.64191   0.80345   0.00000  Uiso   1.00
C849   C     0.24580   0.50000   0.83336   0.00000  Uiso   1.00
C850   C     0.16665   0.50001   0.74021   0.00000  Uiso   1.00
C851   C     0.16669   0.49999   0.92646   0.00000  Uiso   1.00
C852   C     0.16666   0.50001   0.68851   0.00000  Uiso   1.00
C853   C     0.16667   0.49999   0.97816   0.00000  Uiso   1.00
C854   C     0.02135   0.47940   0.79365   0.00000  Uiso   1.00
C855   C     0.31199   0.52060   0.87304   0.00000  Uiso   1.00
C856   C     0.31177   0.47942   0.79366   0.00000  Uiso   1.00
Cu857  Cu    0.16667   0.54689   0.83333   0.00000  Uiso   1.00
Cu858  Cu    0.16667   0.45311   0.83333   0.00000  Uiso   1.00
H859   H     0.11947   0.37680   0.77949   0.00000  Uiso   1.00
H860   H     0.21387   0.62320   0.88718   0.00000  Uiso   1.00
H861   H     0.21386   0.37669   0.88719   0.00000  Uiso   1.00
H862   H     0.11947   0.62331   0.77948   0.00000  Uiso   1.00
H863   H     0.06982   0.47024   0.75160   0.00000  Uiso   1.00
H864   H     0.26349   0.52991   0.91502   0.00000  Uiso   1.00
H865   H     0.26314   0.47057   0.75151   0.00000  Uiso   1.00
H866   H     0.07022   0.52949   0.91515   0.00000  Uiso   1.00
N867   N     0.16667   0.61736   0.83333   0.00000  Uiso   1.00
N868   N     0.16667   0.38264   0.83333   0.00000  Uiso   1.00
O869   O     0.10655   0.53958   0.83333   0.00000  Uiso   1.00
O870   O     0.29263   0.54001   0.91346   0.00000  Uiso   1.00
O871   O     0.29219   0.46007   0.75322   0.00000  Uiso   1.00
O872   O     0.04115   0.53991   0.91347   0.00000  Uiso   1.00
O873   O     0.22679   0.46042   0.83334   0.00000  Uiso   1.00
O874   O     0.22679   0.53958   0.83334   0.00000  Uiso   1.00
O875   O     0.10655   0.46042   0.83333   0.00000  Uiso   1.00
O876   O     0.16667   0.53959   0.76280   0.00000  Uiso   1.00
O877   O     0.16667   0.46041   0.90387   0.00000  Uiso   1.00
O878   O     0.16667   0.53959   0.90387   0.00000  Uiso   1.00
O879   O     0.16667   0.46041   0.76280   0.00000  Uiso   1.00
O880   O     0.04070   0.45998   0.75323   0.00000  Uiso   1.00
C881   C     0.42087   0.50000   0.83331   0.00000  Uiso   1.00
C882   C     0.35489   0.52057   0.87303   0.00000  Uiso   1.00
C883   C     0.62370   0.50001   0.83336   0.00000  Uiso   1.00
C884   C     0.37630   0.50000   0.83333   0.00000  Uiso   1.00
C885   C     0.47380   0.35814   0.80345   0.00000  Uiso   1.00
C886   C     0.52620   0.64186   0.86321   0.00000  Uiso   1.00
C887   C     0.52619   0.35809   0.86321   0.00000  Uiso   1.00
C888   C     0.47381   0.64191   0.80345   0.00000  Uiso   1.00
C889   C     0.57913   0.50000   0.83336   0.00000  Uiso   1.00
C890   C     0.49998   0.50001   0.74021   0.00000  Uiso   1.00
C891   C     0.50002   0.49999   0.92646   0.00000  Uiso   1.00
C892   C     0.49999   0.50001   0.68851   0.00000  Uiso   1.00
C893   C     0.50001   0.49999   0.97816   0.00000  Uiso   1.00
C894   C     0.35468   0.47940   0.79365   0.00000  Uiso   1.00
C895   C     0.64532   0.52060   0.87304   0.00000  Uiso   1.00
C896   C     0.64511   0.47942   0.79366   0.00000  Uiso   1.00
Cu897  Cu    0.50000   0.54689   0.83333   0.00000  Uiso   1.00
Cu898  Cu    0.50000   0.45311   0.83333   0.00000  Uiso   1.00
H899   H     0.45280   0.37680   0.77949   0.00000  Uiso   1.00
H900   H     0.54720   0.62320   0.88718   0.00000  Uiso   1.00
H901   H     0.54719   0.37669   0.88719   0.00000  Uiso   1.00
H902   H     0.45281   0.62331   0.77948   0.00000  Uiso   1.00
H903   H     0.40315   0.47024   0.75160   0.00000  Uiso   1.00
H904   H     0.59683   0.52991   0.91502   0.00000  Uiso   1.00
H905   H     0.59647   0.47057   0.75151   0.00000  Uiso   1.00
H906   H     0.40356   0.52949   0.91515   0.00000  Uiso   1.00
N907   N     0.50000   0.61736   0.83333   0.00000  Uiso   1.00
N908   N     0.50000   0.38264   0.83333   0.00000  Uiso   1.00
O909   O     0.43988   0.53958   0.83333   0.00000  Uiso   1.00
O910   O     0.62597   0.54001   0.91346   0.00000  Uiso   1.00
O911   O     0.62552   0.46007   0.75322   0.00000  Uiso   1.00
O912   O     0.37448   0.53991   0.91347   0.00000  Uiso   1.00
O913   O     0.56012   0.46042   0.83334   0.00000  Uiso   1.00
O914   O     0.56012   0.53958   0.83334   0.00000  Uiso   1.00
O915   O     0.43988   0.46042   0.83333   0.00000  Uiso   1.00
O916   O     0.50000   0.53959   0.76280   0.00000  Uiso   1.00
O917   O     0.50000   0.46041   0.90387   0.00000  Uiso   1.00
O918   O     0.50000   0.53959   0.90387   0.00000  Uiso   1.00
O919   O     0.50000   0.46041   0.76280   0.00000  Uiso   1.00
O920   O     0.37404   0.45998   0.75323   0.00000  Uiso   1.00
C921   C     0.75421   0.50000   0.83331   0.00000  Uiso   1.00
C922   C     0.68823   0.52057   0.87303   0.00000  Uiso   1.00
C923   C     0.95704   0.50001   0.83336   0.00000  Uiso   1.00
C924   C     0.70963   0.50000   0.83333   0.00000  Uiso   1.00
C925   C     0.80714   0.35814   0.80345   0.00000  Uiso   1.00
C926   C     0.85953   0.64186   0.86321   0.00000  Uiso   1.00
C927   C     0.85953   0.35809   0.86321   0.00000  Uiso   1.00
C928   C     0.80714   0.64191   0.80345   0.00000  Uiso   1.00
C929   C     0.91246   0.50000   0.83336   0.00000  Uiso   1.00
C930   C     0.83331   0.50001   0.74021   0.00000  Uiso   1.00
C931   C     0.83335   0.49999   0.92646   0.00000  Uiso   1.00
C932   C     0.83333   0.50001   0.68851   0.00000  Uiso   1.00
C933   C     0.83334   0.49999   0.97816   0.00000  Uiso   1.00
C934   C     0.68801   0.47940   0.79365   0.00000  Uiso   1.00
C935   C     0.97866   0.52060   0.87304   0.00000  Uiso   1.00
C936   C     0.97844   0.47942   0.79366   0.00000  Uiso   1.00
Cu937  Cu    0.83333   0.54689   0.83333   0.00000  Uiso   1.00
Cu938  Cu    0.83333   0.45311   0.83333   0.00000  Uiso   1.00
H939   H     0.78613   0.37680   0.77949   0.00000  Uiso   1.00
H940   H     0.88053   0.62320   0.88718   0.00000  Uiso   1.00
H941   H     0.88053   0.37669   0.88719   0.00000  Uiso   1.00
H942   H     0.78614   0.62331   0.77948   0.00000  Uiso   1.00
H943   H     0.73648   0.47024   0.75160   0.00000  Uiso   1.00
H944   H     0.93016   0.52991   0.91502   0.00000  Uiso   1.00
H945   H     0.92980   0.47057   0.75151   0.00000  Uiso   1.00
H946   H     0.73689   0.52949   0.91515   0.00000  Uiso   1.00
N947   N     0.83333   0.61736   0.83333   0.00000  Uiso   1.00
N948   N     0.83333   0.38264   0.83333   0.00000  Uiso   1.00
O949   O     0.77321   0.53958   0.83333   0.00000  Uiso   1.00
O950   O     0.95930   0.54001   0.91346   0.00000  Uiso   1.00
O951   O     0.95885   0.46007   0.75322   0.00000  Uiso   1.00
O952   O     0.70781   0.53991   0.91347   0.00000  Uiso   1.00
O953   O     0.89345   0.46042   0.83334   0.00000  Uiso   1.00
O954   O     0.89345   0.53958   0.83334   0.00000  Uiso   1.00
O955   O     0.77321   0.46042   0.83333   0.00000  Uiso   1.00
O956   O     0.83333   0.53959   0.76280   0.00000  Uiso   1.00
O957   O     0.83333   0.46041   0.90387   0.00000  Uiso   1.00
O958   O     0.83333   0.53959   0.90387   0.00000  Uiso   1.00
O959   O     0.83333   0.46041   0.76280   0.00000  Uiso   1.00
O960   O     0.70737   0.45998   0.75323   0.00000  Uiso   1.00
C961   C     0.08754   0.83334   0.83331   0.00000  Uiso   1.00
C962   C     0.02156   0.85390   0.87303   0.00000  Uiso   1.00
C963   C     0.29037   0.83334   0.83336   0.00000  Uiso   1.00
C964   C     0.04296   0.83333   0.83333   0.00000  Uiso   1.00
C965   C     0.14047   0.69148   0.80345   0.00000  Uiso   1.00
C966   C     0.19286   0.97519   0.86321   0.00000  Uiso   1.00
C967   C     0.19286   0.69142   0.86321   0.00000  Uiso   1.00
C968   C     0.14047   0.97525   0.80345   0.00000  Uiso   1.00
C969   C     0.24580   0.83333   0.83336   0.00000  Uiso   1.00
C970   C     0.16665   0.83334   0.74021   0.00000  Uiso   1.00
C971   C     0.16669   0.83333   0.92646   0.00000  Uiso   1.00
C972   C     0.16666   0.83334   0.68851   0.00000  Uiso   1.00
C973   C     0.16667   0.83332   0.97816   0.00000  Uiso   1.00
C974   C     0.02135   0.81273   0.79365   0.00000  Uiso   1.00
C975   C     0.31199   0.85393   0.87304   0.00000  Uiso   1.00
C976   C     0.31177   0.81276   0.79366   0.00000  Uiso   1.00
Cu977  Cu    0.16667   0.88022   0.83333   0.00000  Uiso   1.00
Cu978  Cu    0.16667   0.78645   0.83333   0.00000  Uiso   1.00
H979   H     0.11947   0.71013   0.77949   0.00000  Uiso   1.00
H980   H     0.21387   0.95654   0.88718   0.00000  Uiso   1.00
H981   H     0.21386   0.71003   0.88719   0.00000  Uiso   1.00
H982   H     0.11947   0.95664   0.77948   0.00000  Uiso   1.00
H983   H     0.06982   0.80357   0.75160   0.00000  Uiso   1.00
H984   H     0.26349   0.86324   0.91502   0.00000  Uiso   1.00
H985   H     0.26314   0.80390   0.75151   0.00000  Uiso   1.00
H986   H     0.07022   0.86282   0.91515   0.00000  Uiso   1.00
N987   N     0.16667   0.95069   0.83333   0.00000  Uiso   1.00
N988   N     0.16667   0.71598   0.83333   0.00000  Uiso   1.00
O989   O     0.10655   0.87291   0.83333   0.00000  Uiso   1.00
O990   O     0.29263   0.87334   0.91346   0.00000  Uiso   1.00
O991   O     0.29219   0.79341   0.75322   0.00000  Uiso   1.00
O992   O     0.04115   0.87325   0.91347   0.00000  Uiso   1.00
O993   O     0.22679   0.79375   0.83334   0.00000  Uiso   1.00
O994   O     0.22679   0.87291   0.83334   0.00000  Uiso   1.00
O995   O     0.10655   0.79375   0.83333   0.00000  Uiso   1.00
O996   O     0.16667   0.87292   0.76280   0.00000  Uiso   1.00
O997   O     0.16667   0.79375   0.90387   0.00000  Uiso   1.00
O998   O     0.16667   0.87292   0.90387   0.00000  Uiso   1.00
O999   O     0.16667   0.79375   0.76280   0.00000  Uiso   1.00
O1000  O     0.04070   0.79331   0.75323   0.00000  Uiso   1.00
C1001  C     0.42087   0.83334   0.83331   0.00000  Uiso   1.00
C1002  C     0.35489   0.85390   0.87303   0.00000  Uiso   1.00
C1003  C     0.62370   0.83334   0.83336   0.00000  Uiso   1.00
C1004  C     0.37630   0.83333   0.83333   0.00000  Uiso   1.00
C1005  C     0.47380   0.69148   0.80345   0.00000  Uiso   1.00
C1006  C     0.52620   0.97519   0.86321   0.00000  Uiso   1.00
C1007  C     0.52619   0.69142   0.86321   0.00000  Uiso   1.00
C1008  C     0.47381   0.97525   0.80345   0.00000  Uiso   1.00
C1009  C     0.57913   0.83333   0.83336   0.00000  Uiso   1.00
C1010  C     0.49998   0.83334   0.74021   0.00000  Uiso   1.00
C1011  C     0.50002   0.83333   0.92646   0.00000  Uiso   1.00
C1012  C     0.49999   0.83334   0.68851   0.00000  Uiso   1.00
C1013  C     0.50001   0.83332   0.97816   0.00000  Uiso   1.00
C1014  C     0.35468   0.81273   0.79365   0.00000  Uiso   1.00
C1015  C     0.64532   0.85393   0.87304   0.00000  Uiso   1.00
C1016  C     0.64511   0.81276   0.79366   0.00000  Uiso   1.00
Cu1017 Cu    0.50000   0.88022   0.83333   0.00000  Uiso   1.00
Cu1018 Cu    0.50000   0.78645   0.83333   0.00000  Uiso   1.00
H1019  H     0.45280   0.71013   0.77949   0.00000  Uiso   1.00
H1020  H     0.54720   0.95654   0.88718   0.00000  Uiso   1.00
H1021  H     0.54719   0.71003   0.88719   0.00000  Uiso   1.00
H1022  H     0.45281   0.95664   0.77948   0.00000  Uiso   1.00
H1023  H     0.40315   0.80357   0.75160   0.00000  Uiso   1.00
H1024  H     0.59683   0.86324   0.91502   0.00000  Uiso   1.00
H1025  H     0.59647   0.80390   0.75151   0.00000  Uiso   1.00
H1026  H     0.40356   0.86282   0.91515   0.00000  Uiso   1.00
N1027  N     0.50000   0.95069   0.83333   0.00000  Uiso   1.00
N1028  N     0.50000   0.71598   0.83333   0.00000  Uiso   1.00
O1029  O     0.43988   0.87291   0.83333   0.00000  Uiso   1.00
O1030  O     0.62597   0.87334   0.91346   0.00000  Uiso   1.00
O1031  O     0.62552   0.79341   0.75322   0.00000  Uiso   1.00
O1032  O     0.37448   0.87325   0.91347   0.00000  Uiso   1.00
O1033  O     0.56012   0.79375   0.83334   0.00000  Uiso   1.00
O1034  O     0.56012   0.87291   0.83334   0.00000  Uiso   1.00
O1035  O     0.43988   0.79375   0.83333   0.00000  Uiso   1.00
O1036  O     0.50000   0.87292   0.76280   0.00000  Uiso   1.00
O1037  O     0.50000   0.79375   0.90387   0.00000  Uiso   1.00
O1038  O     0.50000   0.87292   0.90387   0.00000  Uiso   1.00
O1039  O     0.50000   0.79375   0.76280   0.00000  Uiso   1.00
O1040  O     0.37404   0.79331   0.75323   0.00000  Uiso   1.00
C1041  C     0.75421   0.83334   0.83331   0.00000  Uiso   1.00
C1042  C     0.68823   0.85390   0.87303   0.00000  Uiso   1.00
C1043  C     0.95704   0.83334   0.83336   0.00000  Uiso   1.00
C1044  C     0.70963   0.83333   0.83333   0.00000  Uiso   1.00
C1045  C     0.80714   0.69148   0.80345   0.00000  Uiso   1.00
C1046  C     0.85953   0.97519   0.86321   0.00000  Uiso   1.00
C1047  C     0.85953   0.69142   0.86321   0.00000  Uiso   1.00
C1048  C     0.80714   0.97525   0.80345   0.00000  Uiso   1.00
C1049  C     0.91246   0.83333   0.83336   0.00000  Uiso   1.00
C1050  C     0.83331   0.83334   0.74021   0.00000  Uiso   1.00
C1051  C     0.83335   0.83333   0.92646   0.00000  Uiso   1.00
C1052  C     0.83333   0.83334   0.68851   0.00000  Uiso   1.00
C1053  C     0.83334   0.83332   0.97816   0.00000  Uiso   1.00
C1054  C     0.68801   0.81273   0.79365   0.00000  Uiso   1.00
C1055  C     0.97866   0.85393   0.87304   0.00000  Uiso   1.00
C1056  C     0.97844   0.81276   0.79366   0.00000  Uiso   1.00
Cu1057 Cu    0.83333   0.88022   0.83333   0.00000  Uiso   1.00
Cu1058 Cu    0.83333   0.78645   0.83333   0.00000  Uiso   1.00
H1059  H     0.78613   0.71013   0.77949   0.00000  Uiso   1.00
H1060  H     0.88053   0.95654   0.88718   0.00000  Uiso   1.00
H1061  H     0.88053   0.71003   0.88719   0.00000  Uiso   1.00
H1062  H     0.78614   0.95664   0.77948   0.00000  Uiso   1.00
H1063  H     0.73648   0.80357   0.75160   0.00000  Uiso   1.00
H1064  H     0.93016   0.86324   0.91502   0.00000  Uiso   1.00
H1065  H     0.92980   0.80390   0.75151   0.00000  Uiso   1.00
H1066  H     0.73689   0.86282   0.91515   0.00000  Uiso   1.00
N1067  N     0.83333   0.95069   0.83333   0.00000  Uiso   1.00
N1068  N     0.83333   0.71598   0.83333   0.00000  Uiso   1.00
O1069  O     0.77321   0.87291   0.83333   0.00000  Uiso   1.00
O1070  O     0.95930   0.87334   0.91346   0.00000  Uiso   1.00
O1071  O     0.95885   0.79341   0.75322   0.00000  Uiso   1.00
O1072  O     0.70781   0.87325   0.91347   0.00000  Uiso   1.00
O1073  O     0.89345   0.79375   0.83334   0.00000  Uiso   1.00
O1074  O     0.89345   0.87291   0.83334   0.00000  Uiso   1.00
O1075  O     0.77321   0.79375   0.83333   0.00000  Uiso   1.00
O1076  O     0.83333   0.87292   0.76280   0.00000  Uiso   1.00
O1077  O     0.83333   0.79375   0.90387   0.00000  Uiso   1.00
O1078  O     0.83333   0.87292   0.90387   0.00000  Uiso   1.00
O1079  O     0.83333   0.79375   0.76280   0.00000  Uiso   1.00
O1080  O     0.70737   0.79331   0.75323   0.00000  Uiso   1.00
loop_
_geom_bond_atom_site_label_1
_geom_bond_atom_site_label_2
_geom_bond_distance
_geom_bond_site_symmetry_2
_ccdc_geom_bond_type
C1     C4      1.443   .     S
C1     O29     1.289   .     A
C1     O35     1.289   .     A
C2     C4      1.415   .     A
C2     O32     1.385   .     S
C2     C95     1.389   1_455 S
C3     C9      1.443   .     S
C3     C16     1.415   .     A
C3     C15     1.415   .     A
C4     C14     1.415   .     A
C5     H19     1.082   .     S
C5     N28     1.368   .     A
C5     C248    1.418   1_545 S
C6     N27     1.368   .     A
C6     H20     1.082   .     S
C6     C127    1.418   .     S
C7     H21     1.082   .     S
C7     N28     1.368   .     A
C7     C246    1.418   1_545 S
C8     H22     1.082   .     S
C8     N27     1.368   .     A
C8     C125    1.418   .     S
C9     O33     1.289   .     A
C9     O34     1.289   .     A
C10    C12     1.408   .     S
C10    O36     1.289   .     A
C10    O39     1.289   .     A
C11    O38     1.289   .     A
C11    C13     1.408   .     S
C11    O37     1.289   .     A
C12    C733    1.190   1_554 S
C13    C372    1.190   .     S
C14    O40     1.385   .     S
C14    C96     1.389   1_455 S
C15    O30     1.385   .     S
C15    C42     1.389   .     S
C16    O31     1.385   .     S
C16    C54     1.389   .     S
Cu17   O36     1.933   .     S
Cu17   O29     1.958   .     S
Cu17   Cu18    2.683   .     S
Cu17   O38     1.933   .     S
Cu17   O34     1.958   .     S
Cu17   N27     2.017   .     S
Cu18   O39     1.933   .     S
Cu18   O35     1.958   .     S
Cu18   N28     2.017   .     S
Cu18   O37     1.933   .     S
Cu18   O33     1.958   .     S
H23    O40     0.988   .     S
H24    O30     0.988   .     S
H25    O31     0.988   .     S
H26    O32     0.988   .     S
C41    C44     1.443   .     S
C41    O69     1.289   .     A
C41    O75     1.289   .     A
C42    C44     1.415   .     A
C42    O72     1.385   .     S
C43    C49     1.443   .     S
C43    C56     1.415   .     A
C43    C55     1.415   .     A
C44    C54     1.415   .     A
C45    H59     1.082   .     S
C45    N68     1.368   .     A
C45    C288    1.418   1_545 S
C46    N67     1.368   .     A
C46    H60     1.082   .     S
C46    C167    1.418   .     S
C47    H61     1.082   .     S
C47    N68     1.368   .     A
C47    C286    1.418   1_545 S
C48    H62     1.082   .     S
C48    N67     1.368   .     A
C48    C165    1.418   .     S
C49    O73     1.289   .     A
C49    O74     1.289   .     A
C50    C52     1.408   .     S
C50    O76     1.289   .     A
C50    O79     1.289   .     A
C51    O78     1.289   .     A
C51    C53     1.408   .     S
C51    O77     1.289   .     A
C52    C773    1.190   1_554 S
C53    C412    1.190   .     S
C54    O80     1.385   .     S
C55    O70     1.385   .     S
C55    C82     1.389   .     S
C56    O71     1.385   .     S
C56    C94     1.389   .     S
Cu57   O76     1.933   .     S
Cu57   O69     1.958   .     S
Cu57   Cu58    2.683   .     S
Cu57   O78     1.933   .     S
Cu57   O74     1.958   .     S
Cu57   N67     2.017   .     S
Cu58   O79     1.933   .     S
Cu58   O75     1.958   .     S
Cu58   N68     2.017   .     S
Cu58   O77     1.933   .     S
Cu58   O73     1.958   .     S
H63    O80     0.988   .     S
H64    O70     0.988   .     S
H65    O71     0.988   .     S
H66    O72     0.988   .     S
C81    C84     1.443   .     S
C81    O109    1.289   .     A
C81    O115    1.289   .     A
C82    C84     1.415   .     A
C82    O112    1.385   .     S
C83    C89     1.443   .     S
C83    C96     1.415   .     A
C83    C95     1.415   .     A
C84    C94     1.415   .     A
C85    H99     1.082   .     S
C85    N108    1.368   .     A
C85    C328    1.418   1_545 S
C86    N107    1.368   .     A
C86    H100    1.082   .     S
C86    C207    1.418   .     S
C87    H101    1.082   .     S
C87    N108    1.368   .     A
C87    C326    1.418   1_545 S
C88    H102    1.082   .     S
C88    N107    1.368   .     A
C88    C205    1.418   .     S
C89    O113    1.289   .     A
C89    O114    1.289   .     A
C90    C92     1.408   .     S
C90    O116    1.289   .     A
C90    O119    1.289   .     A
C91    O118    1.289   .     A
C91    C93     1.408   .     S
C91    O117    1.289   .     A
C92    C813    1.190   1_554 S
C93    C452    1.190   .     S
C94    O120    1.385   .     S
C95    O110    1.385   .     S
C95    C2      1.389   1_655 S
C96    O111    1.385   .     S
C96    C14     1.389   1_655 S
Cu97   O116    1.933   .     S
Cu97   O109    1.958   .     S
Cu97   Cu98    2.683   .     S
Cu97   O118    1.933   .     S
Cu97   O114    1.958   .     S
Cu97   N107    2.017   .     S
Cu98   O119    1.933   .     S
Cu98   O115    1.958   .     S
Cu98   N108    2.017   .     S
Cu98   O117    1.933   .     S
Cu98   O113    1.958   .     S
H103   O120    0.988   .     S
H104   O110    0.988   .     S
H105   O111    0.988   .     S
H106   O112    0.988   .     S
C121   C124    1.443   .     S
C121   O149    1.289   .     A
C121   O155    1.289   .     A
C122   C124    1.415   .     A
C122   O152    1.385   .     S
C122   C215    1.389   1_455 S
C123   C129    1.443   .     S
C123   C136    1.415   .     A
C123   C135    1.415   .     A
C124   C134    1.415   .     A
C125   H139    1.082   .     S
C125   N148    1.368   .     A
C126   N147    1.368   .     A
C126   H140    1.082   .     S
C126   C247    1.418   .     S
C127   H141    1.082   .     S
C127   N148    1.368   .     A
C128   H142    1.082   .     S
C128   N147    1.368   .     A
C128   C245    1.418   .     S
C129   O153    1.289   .     A
C129   O154    1.289   .     A
C130   C132    1.408   .     S
C130   O156    1.289   .     A
C130   O159    1.289   .     A
C131   O158    1.289   .     A
C131   C133    1.408   .     S
C131   O157    1.289   .     A
C132   C853    1.190   1_554 S
C133   C492    1.190   .     S
C134   O160    1.385   .     S
C134   C216    1.389   1_455 S
C135   O150    1.385   .     S
C135   C162    1.389   .     S
C136   O151    1.385   .     S
C136   C174    1.389   .     S
Cu137  O156    1.933   .     S
Cu137  O149    1.958   .     S
Cu137  Cu138   2.683   .     S
Cu137  O158    1.933   .     S
Cu137  O154    1.958   .     S
Cu137  N147    2.017   .     S
Cu138  O159    1.933   .     S
Cu138  O155    1.958   .     S
Cu138  N148    2.017   .     S
Cu138  O157    1.933   .     S
Cu138  O153    1.958   .     S
H143   O160    0.988   .     S
H144   O150    0.988   .     S
H145   O151    0.988   .     S
H146   O152    0.988   .     S
C161   C164    1.443   .     S
C161   O189    1.289   .     A
C161   O195    1.289   .     A
C162   C164    1.415   .     A
C162   O192    1.385   .     S
C163   C169    1.443   .     S
C163   C176    1.415   .     A
C163   C175    1.415   .     A
C164   C174    1.415   .     A
C165   H179    1.082   .     S
C165   N188    1.368   .     A
C166   N187    1.368   .     A
C166   H180    1.082   .     S
C166   C287    1.418   .     S
C167   H181    1.082   .     S
C167   N188    1.368   .     A
C168   H182    1.082   .     S
C168   N187    1.368   .     A
C168   C285    1.418   .     S
C169   O193    1.289   .     A
C169   O194    1.289   .     A
C170   C172    1.408   .     S
C170   O196    1.289   .     A
C170   O199    1.289   .     A
C171   O198    1.289   .     A
C171   C173    1.408   .     S
C171   O197    1.289   .     A
C172   C893    1.190   1_554 S
C173   C532    1.190   .     S
C174   O200    1.385   .     S
C175   O190    1.385   .     S
C175   C202    1.389   .     S
C176   O191    1.385   .     S
C176   C214    1.389   .     S
Cu177  O196    1.933   .     S
Cu177  O189    1.958   .     S
Cu177  Cu178   2.683   .     S
Cu177  O198    1.933   .     S
Cu177  O194    1.958   .     S
Cu177  N187    2.017   .     S
Cu178  O199    1.933   .     S
Cu178  O195    1.958   .     S
Cu178  N188    2.017   .     S
Cu178  O197    1.933   .     S
Cu178  O193    1.958   .     S
H183   O200    0.988   .     S
H184   O190    0.988   .     S
H185   O191    0.988   .     S
H186   O192    0.988   .     S
C201   C204    1.443   .     S
C201   O229    1.289   .     A
C201   O235    1.289   .     A
C202   C204    1.415   .     A
C202   O232    1.385   .     S
C203   C209    1.443   .     S
C203   C216    1.415   .     A
C203   C215    1.415   .     A
C204   C214    1.415   .     A
C205   H219    1.082   .     S
C205   N228    1.368   .     A
C206   N227    1.368   .     A
C206   H220    1.082   .     S
C206   C327    1.418   .     S
C207   H221    1.082   .     S
C207   N228    1.368   .     A
C208   H222    1.082   .     S
C208   N227    1.368   .     A
C208   C325    1.418   .     S
C209   O233    1.289   .     A
C209   O234    1.289   .     A
C210   C212    1.408   .     S
C210   O236    1.289   .     A
C210   O239    1.289   .     A
C211   O238    1.289   .     A
C211   C213    1.408   .     S
C211   O237    1.289   .     A
C212   C933    1.190   1_554 S
C213   C572    1.190   .     S
C214   O240    1.385   .     S
C215   O230    1.385   .     S
C215   C122    1.389   1_655 S
C216   O231    1.385   .     S
C216   C134    1.389   1_655 S
Cu217  O236    1.933   .     S
Cu217  O229    1.958   .     S
Cu217  Cu218   2.683   .     S
Cu217  O238    1.933   .     S
Cu217  O234    1.958   .     S
Cu217  N227    2.017   .     S
Cu218  O239    1.933   .     S
Cu218  O235    1.958   .     S
Cu218  N228    2.017   .     S
Cu218  O237    1.933   .     S
Cu218  O233    1.958   .     S
H223   O240    0.988   .     S
H224   O230    0.988   .     S
H225   O231    0.988   .     S
H226   O232    0.988   .     S
C241   C244    1.443   .     S
C241   O269    1.289   .     A
C241   O275    1.289   .     A
C242   C244    1.415   .     A
C242   O272    1.385   .     S
C242   C335    1.389   1_455 S
C243   C249    1.443   .     S
C243   C256    1.415   .     A
C243   C255    1.415   .     A
C244   C254    1.415   .     A
C245   H259    1.082   .     S
C245   N268    1.368   .     A
C246   N267    1.368   .     A
C246   H260    1.082   .     S
C246   C7      1.418   1_565 S
C247   H261    1.082   .     S
C247   N268    1.368   .     A
C248   H262    1.082   .     S
C248   N267    1.368   .     A
C248   C5      1.418   1_565 S
C249   O273    1.289   .     A
C249   O274    1.289   .     A
C250   C252    1.408   .     S
C250   O276    1.289   .     A
C250   O279    1.289   .     A
C251   O278    1.289   .     A
C251   C253    1.408   .     S
C251   O277    1.289   .     A
C252   C973    1.190   1_554 S
C253   C612    1.190   .     S
C254   O280    1.385   .     S
C254   C336    1.389   1_455 S
C255   O270    1.385   .     S
C255   C282    1.389   .     S
C256   O271    1.385   .     S
C256   C294    1.389   .     S
Cu257  O276    1.933   .     S
Cu257  O269    1.958   .     S
Cu257  Cu258   2.683   .     S
Cu257  O278    1.933   .     S
Cu257  O274    1.958   .     S
Cu257  N267    2.017   .     S
Cu258  O279    1.933   .     S
Cu258  O275    1.958   .     S
Cu258  N268    2.017   .     S
Cu258  O277    1.933   .     S
Cu258  O273    1.958   .     S
H263   O280    0.988   .     S
H264   O270    0.988   .     S
H265   O271    0.988   .     S
H266   O272    0.988   .     S
C281   C284    1.443   .     S
C281   O309    1.289   .     A
C281   O315    1.289   .     A
C282   C284    1.415   .     A
C282   O312    1.385   .     S
C283   C289    1.443   .     S
C283   C296    1.415   .     A
C283   C295    1.415   .     A
C284   C294    1.415   .     A
C285   H299    1.082   .     S
C285   N308    1.368   .     A
C286   N307    1.368   .     A
C286   H300    1.082   .     S
C286   C47     1.418   1_565 S
C287   H301    1.082   .     S
C287   N308    1.368   .     A
C288   H302    1.082   .     S
C288   N307    1.368   .     A
C288   C45     1.418   1_565 S
C289   O313    1.289   .     A
C289   O314    1.289   .     A
C290   C292    1.408   .     S
C290   O316    1.289   .     A
C290   O319    1.289   .     A
C291   O318    1.289   .     A
C291   C293    1.408   .     S
C291   O317    1.289   .     A
C292   C1013   1.190   1_554 S
C293   C652    1.190   .     S
C294   O320    1.385   .     S
C295   O310    1.385   .     S
C295   C322    1.389   .     S
C296   O311    1.385   .     S
C296   C334    1.389   .     S
Cu297  O316    1.933   .     S
Cu297  O309    1.958   .     S
Cu297  Cu298   2.683   .     S
Cu297  O318    1.933   .     S
Cu297  O314    1.958   .     S
Cu297  N307    2.017   .     S
Cu298  O319    1.933   .     S
Cu298  O315    1.958   .     S
Cu298  N308    2.017   .     S
Cu298  O317    1.933   .     S
Cu298  O313    1.958   .     S
H303   O320    0.988   .     S
H304   O310    0.988   .     S
H305   O311    0.988   .     S
H306   O312    0.988   .     S
C321   C324    1.443   .     S
C321   O349    1.289   .     A
C321   O355    1.289   .     A
C322   C324    1.415   .     A
C322   O352    1.385   .     S
C323   C329    1.443   .     S
C323   C336    1.415   .     A
C323   C335    1.415   .     A
C324   C334    1.415   .     A
C325   H339    1.082   .     S
C325   N348    1.368   .     A
C326   N347    1.368   .     A
C326   H340    1.082   .     S
C326   C87     1.418   1_565 S
C327   H341    1.082   .     S
C327   N348    1.368   .     A
C328   H342    1.082   .     S
C328   N347    1.368   .     A
C328   C85     1.418   1_565 S
C329   O353    1.289   .     A
C329   O354    1.289   .     A
C330   C332    1.408   .     S
C330   O356    1.289   .     A
C330   O359    1.289   .     A
C331   O358    1.289   .     A
C331   C333    1.408   .     S
C331   O357    1.289   .     A
C332   C1053   1.190   1_554 S
C333   C692    1.190   .     S
C334   O360    1.385   .     S
C335   O350    1.385   .     S
C335   C242    1.389   1_655 S
C336   O351    1.385   .     S
C336   C254    1.389   1_655 S
Cu337  O356    1.933   .     S
Cu337  O349    1.958   .     S
Cu337  Cu338   2.683   .     S
Cu337  O358    1.933   .     S
Cu337  O354    1.958   .     S
Cu337  N347    2.017   .     S
Cu338  O359    1.933   .     S
Cu338  O355    1.958   .     S
Cu338  N348    2.017   .     S
Cu338  O357    1.933   .     S
Cu338  O353    1.958   .     S
H343   O360    0.988   .     S
H344   O350    0.988   .     S
H345   O351    0.988   .     S
H346   O352    0.988   .     S
C361   C364    1.443   .     S
C361   O389    1.289   .     A
C361   O395    1.289   .     A
C362   C364    1.415   .     A
C362   O392    1.385   .     S
C362   C455    1.389   1_455 S
C363   C369    1.443   .     S
C363   C376    1.415   .     A
C363   C375    1.415   .     A
C364   C374    1.415   .     A
C365   H379    1.082   .     S
C365   N388    1.368   .     A
C365   C608    1.418   1_545 S
C366   N387    1.368   .     A
C366   H380    1.082   .     S
C366   C487    1.418   .     S
C367   H381    1.082   .     S
C367   N388    1.368   .     A
C367   C606    1.418   1_545 S
C368   H382    1.082   .     S
C368   N387    1.368   .     A
C368   C485    1.418   .     S
C369   O393    1.289   .     A
C369   O394    1.289   .     A
C370   C372    1.408   .     S
C370   O396    1.289   .     A
C370   O399    1.289   .     A
C371   O398    1.289   .     A
C371   C373    1.408   .     S
C371   O397    1.289   .     A
C373   C732    1.190   .     S
C374   O400    1.385   .     S
C374   C456    1.389   1_455 S
C375   O390    1.385   .     S
C375   C402    1.389   .     S
C376   O391    1.385   .     S
C376   C414    1.389   .     S
Cu377  O396    1.933   .     S
Cu377  O389    1.958   .     S
Cu377  Cu378   2.683   .     S
Cu377  O398    1.933   .     S
Cu377  O394    1.958   .     S
Cu377  N387    2.017   .     S
Cu378  O399    1.933   .     S
Cu378  O395    1.958   .     S
Cu378  N388    2.017   .     S
Cu378  O397    1.933   .     S
Cu378  O393    1.958   .     S
H383   O400    0.988   .     S
H384   O390    0.988   .     S
H385   O391    0.988   .     S
H386   O392    0.988   .     S
C401   C404    1.443   .     S
C401   O429    1.289   .     A
C401   O435    1.289   .     A
C402   C404    1.415   .     A
C402   O432    1.385   .     S
C403   C409    1.443   .     S
C403   C416    1.415   .     A
C403   C415    1.415   .     A
C404   C414    1.415   .     A
C405   H419    1.082   .     S
C405   N428    1.368   .     A
C405   C648    1.418   1_545 S
C406   N427    1.368   .     A
C406   H420    1.082   .     S
C406   C527    1.418   .     S
C407   H421    1.082   .     S
C407   N428    1.368   .     A
C407   C646    1.418   1_545 S
C408   H422    1.082   .     S
C408   N427    1.368   .     A
C408   C525    1.418   .     S
C409   O433    1.289   .     A
C409   O434    1.289   .     A
C410   C412    1.408   .     S
C410   O436    1.289   .     A
C410   O439    1.289   .     A
C411   O438    1.289   .     A
C411   C413    1.408   .     S
C411   O437    1.289   .     A
C413   C772    1.190   .     S
C414   O440    1.385   .     S
C415   O430    1.385   .     S
C415   C442    1.389   .     S
C416   O431    1.385   .     S
C416   C454    1.389   .     S
Cu417  O436    1.933   .     S
Cu417  O429    1.958   .     S
Cu417  Cu418   2.683   .     S
Cu417  O438    1.933   .     S
Cu417  O434    1.958   .     S
Cu417  N427    2.017   .     S
Cu418  O439    1.933   .     S
Cu418  O435    1.958   .     S
Cu418  N428    2.017   .     S
Cu418  O437    1.933   .     S
Cu418  O433    1.958   .     S
H423   O440    0.988   .     S
H424   O430    0.988   .     S
H425   O431    0.988   .     S
H426   O432    0.988   .     S
C441   C444    1.443   .     S
C441   O469    1.289   .     A
C441   O475    1.289   .     A
C442   C444    1.415   .     A
C442   O472    1.385   .     S
C443   C449    1.443   .     S
C443   C456    1.415   .     A
C443   C455    1.415   .     A
C444   C454    1.415   .     A
C445   H459    1.082   .     S
C445   N468    1.368   .     A
C445   C688    1.418   1_545 S
C446   N467    1.368   .     A
C446   H460    1.082   .     S
C446   C567    1.418   .     S
C447   H461    1.082   .     S
C447   N468    1.368   .     A
C447   C686    1.418   1_545 S
C448   H462    1.082   .     S
C448   N467    1.368   .     A
C448   C565    1.418   .     S
C449   O473    1.289   .     A
C449   O474    1.289   .     A
C450   C452    1.408   .     S
C450   O476    1.289   .     A
C450   O479    1.289   .     A
C451   O478    1.289   .     A
C451   C453    1.408   .     S
C451   O477    1.289   .     A
C453   C812    1.190   .     S
C454   O480    1.385   .     S
C455   O470    1.385   .     S
C455   C362    1.389   1_655 S
C456   O471    1.385   .     S
C456   C374    1.389   1_655 S
Cu457  O476    1.933   .     S
Cu457  O469    1.958   .     S
Cu457  Cu458   2.683   .     S
Cu457  O478    1.933   .     S
Cu457  O474    1.958   .     S
Cu457  N467    2.017   .     S
Cu458  O479    1.933   .     S
Cu458  O475    1.958   .     S
Cu458  N468    2.017   .     S
Cu458  O477    1.933   .     S
Cu458  O473    1.958   .     S
H463   O480    0.988   .     S
H464   O470    0.988   .     S
H465   O471    0.988   .     S
H466   O472    0.988   .     S
C481   C484    1.443   .     S
C481   O509    1.289   .     A
C481   O515    1.289   .     A
C482   C484    1.415   .     A
C482   O512    1.385   .     S
C482   C575    1.389   1_455 S
C483   C489    1.443   .     S
C483   C496    1.415   .     A
C483   C495    1.415   .     A
C484   C494    1.415   .     A
C485   H499    1.082   .     S
C485   N508    1.368   .     A
C486   N507    1.368   .     A
C486   H500    1.082   .     S
C486   C607    1.418   .     S
C487   H501    1.082   .     S
C487   N508    1.368   .     A
C488   H502    1.082   .     S
C488   N507    1.368   .     A
C488   C605    1.418   .     S
C489   O513    1.289   .     A
C489   O514    1.289   .     A
C490   C492    1.408   .     S
C490   O516    1.289   .     A
C490   O519    1.289   .     A
C491   O518    1.289   .     A
C491   C493    1.408   .     S
C491   O517    1.289   .     A
C493   C852    1.190   .     S
C494   O520    1.385   .     S
C494   C576    1.389   1_455 S
C495   O510    1.385   .     S
C495   C522    1.389   .     S
C496   O511    1.385   .     S
C496   C534    1.389   .     S
Cu497  O516    1.933   .     S
Cu497  O509    1.958   .     S
Cu497  Cu498   2.683   .     S
Cu497  O518    1.933   .     S
Cu497  O514    1.958   .     S
Cu497  N507    2.017   .     S
Cu498  O519    1.933   .     S
Cu498  O515    1.958   .     S
Cu498  N508    2.017   .     S
Cu498  O517    1.933   .     S
Cu498  O513    1.958   .     S
H503   O520    0.988   .     S
H504   O510    0.988   .     S
H505   O511    0.988   .     S
H506   O512    0.988   .     S
C521   C524    1.443   .     S
C521   O549    1.289   .     A
C521   O555    1.289   .     A
C522   C524    1.415   .     A
C522   O552    1.385   .     S
C523   C529    1.443   .     S
C523   C536    1.415   .     A
C523   C535    1.415   .     A
C524   C534    1.415   .     A
C525   H539    1.082   .     S
C525   N548    1.368   .     A
C526   N547    1.368   .     A
C526   H540    1.082   .     S
C526   C647    1.418   .     S
C527   H541    1.082   .     S
C527   N548    1.368   .     A
C528   H542    1.082   .     S
C528   N547    1.368   .     A
C528   C645    1.418   .     S
C529   O553    1.289   .     A
C529   O554    1.289   .     A
C530   C532    1.408   .     S
C530   O556    1.289   .     A
C530   O559    1.289   .     A
C531   O558    1.289   .     A
C531   C533    1.408   .     S
C531   O557    1.289   .     A
C533   C892    1.190   .     S
C534   O560    1.385   .     S
C535   O550    1.385   .     S
C535   C562    1.389   .     S
C536   O551    1.385   .     S
C536   C574    1.389   .     S
Cu537  O556    1.933   .     S
Cu537  O549    1.958   .     S
Cu537  Cu538   2.683   .     S
Cu537  O558    1.933   .     S
Cu537  O554    1.958   .     S
Cu537  N547    2.017   .     S
Cu538  O559    1.933   .     S
Cu538  O555    1.958   .     S
Cu538  N548    2.017   .     S
Cu538  O557    1.933   .     S
Cu538  O553    1.958   .     S
H543   O560    0.988   .     S
H544   O550    0.988   .     S
H545   O551    0.988   .     S
H546   O552    0.988   .     S
C561   C564    1.443   .     S
C561   O589    1.289   .     A
C561   O595    1.289   .     A
C562   C564    1.415   .     A
C562   O592    1.385   .     S
C563   C569    1.443   .     S
C563   C576    1.415   .     A
C563   C575    1.415   .     A
C564   C574    1.415   .     A
C565   H579    1.082   .     S
C565   N588    1.368   .     A
C566   N587    1.368   .     A
C566   H580    1.082   .     S
C566   C687    1.418   .     S
C567   H581    1.082   .     S
C567   N588    1.368   .     A
C568   H582    1.082   .     S
C568   N587    1.368   .     A
C568   C685    1.418   .     S
C569   O593    1.289   .     A
C569   O594    1.289   .     A
C570   C572    1.408   .     S
C570   O596    1.289   .     A
C570   O599    1.289   .     A
C571   O598    1.289   .     A
C571   C573    1.408   .     S
C571   O597    1.289   .     A
C573   C932    1.190   .     S
C574   O600    1.385   .     S
C575   O590    1.385   .     S
C575   C482    1.389   1_655 S
C576   O591    1.385   .     S
C576   C494    1.389   1_655 S
Cu577  O596    1.933   .     S
Cu577  O589    1.958   .     S
Cu577  Cu578   2.683   .     S
Cu577  O598    1.933   .     S
Cu577  O594    1.958   .     S
Cu577  N587    2.017   .     S
Cu578  O599    1.933   .     S
Cu578  O595    1.958   .     S
Cu578  N588    2.017   .     S
Cu578  O597    1.933   .     S
Cu578  O593    1.958   .     S
H583   O600    0.988   .     S
H584   O590    0.988   .     S
H585   O591    0.988   .     S
H586   O592    0.988   .     S
C601   C604    1.443   .     S
C601   O629    1.289   .     A
C601   O635    1.289   .     A
C602   C604    1.415   .     A
C602   O632    1.385   .     S
C602   C695    1.389   1_455 S
C603   C609    1.443   .     S
C603   C616    1.415   .     A
C603   C615    1.415   .     A
C604   C614    1.415   .     A
C605   H619    1.082   .     S
C605   N628    1.368   .     A
C606   N627    1.368   .     A
C606   H620    1.082   .     S
C606   C367    1.418   1_565 S
C607   H621    1.082   .     S
C607   N628    1.368   .     A
C608   H622    1.082   .     S
C608   N627    1.368   .     A
C608   C365    1.418   1_565 S
C609   O633    1.289   .     A
C609   O634    1.289   .     A
C610   C612    1.408   .     S
C610   O636    1.289   .     A
C610   O639    1.289   .     A
C611   O638    1.289   .     A
C611   C613    1.408   .     S
C611   O637    1.289   .     A
C613   C972    1.190   .     S
C614   O640    1.385   .     S
C614   C696    1.389   1_455 S
C615   O630    1.385   .     S
C615   C642    1.389   .     S
C616   O631    1.385   .     S
C616   C654    1.389   .     S
Cu617  O636    1.933   .     S
Cu617  O629    1.958   .     S
Cu617  Cu618   2.683   .     S
Cu617  O638    1.933   .     S
Cu617  O634    1.958   .     S
Cu617  N627    2.017   .     S
Cu618  O639    1.933   .     S
Cu618  O635    1.958   .     S
Cu618  N628    2.017   .     S
Cu618  O637    1.933   .     S
Cu618  O633    1.958   .     S
H623   O640    0.988   .     S
H624   O630    0.988   .     S
H625   O631    0.988   .     S
H626   O632    0.988   .     S
C641   C644    1.443   .     S
C641   O669    1.289   .     A
C641   O675    1.289   .     A
C642   C644    1.415   .     A
C642   O672    1.385   .     S
C643   C649    1.443   .     S
C643   C656    1.415   .     A
C643   C655    1.415   .     A
C644   C654    1.415   .     A
C645   H659    1.082   .     S
C645   N668    1.368   .     A
C646   N667    1.368   .     A
C646   H660    1.082   .     S
C646   C407    1.418   1_565 S
C647   H661    1.082   .     S
C647   N668    1.368   .     A
C648   H662    1.082   .     S
C648   N667    1.368   .     A
C648   C405    1.418   1_565 S
C649   O673    1.289   .     A
C649   O674    1.289   .     A
C650   C652    1.408   .     S
C650   O676    1.289   .     A
C650   O679    1.289   .     A
C651   O678    1.289   .     A
C651   C653    1.408   .     S
C651   O677    1.289   .     A
C653   C1012   1.190   .     S
C654   O680    1.385   .     S
C655   O670    1.385   .     S
C655   C682    1.389   .     S
C656   O671    1.385   .     S
C656   C694    1.389   .     S
Cu657  O676    1.933   .     S
Cu657  O669    1.958   .     S
Cu657  Cu658   2.683   .     S
Cu657  O678    1.933   .     S
Cu657  O674    1.958   .     S
Cu657  N667    2.017   .     S
Cu658  O679    1.933   .     S
Cu658  O675    1.958   .     S
Cu658  N668    2.017   .     S
Cu658  O677    1.933   .     S
Cu658  O673    1.958   .     S
H663   O680    0.988   .     S
H664   O670    0.988   .     S
H665   O671    0.988   .     S
H666   O672    0.988   .     S
C681   C684    1.443   .     S
C681   O709    1.289   .     A
C681   O715    1.289   .     A
C682   C684    1.415   .     A
C682   O712    1.385   .     S
C683   C689    1.443   .     S
C683   C696    1.415   .     A
C683   C695    1.415   .     A
C684   C694    1.415   .     A
C685   H699    1.082   .     S
C685   N708    1.368   .     A
C686   N707    1.368   .     A
C686   H700    1.082   .     S
C686   C447    1.418   1_565 S
C687   H701    1.082   .     S
C687   N708    1.368   .     A
C688   H702    1.082   .     S
C688   N707    1.368   .     A
C688   C445    1.418   1_565 S
C689   O713    1.289   .     A
C689   O714    1.289   .     A
C690   C692    1.408   .     S
C690   O716    1.289   .     A
C690   O719    1.289   .     A
C691   O718    1.289   .     A
C691   C693    1.408   .     S
C691   O717    1.289   .     A
C693   C1052   1.190   .     S
C694   O720    1.385   .     S
C695   O710    1.385   .     S
C695   C602    1.389   1_655 S
C696   O711    1.385   .     S
C696   C614    1.389   1_655 S
Cu697  O716    1.933   .     S
Cu697  O709    1.958   .     S
Cu697  Cu698   2.683   .     S
Cu697  O718    1.933   .     S
Cu697  O714    1.958   .     S
Cu697  N707    2.017   .     S
Cu698  O719    1.933   .     S
Cu698  O715    1.958   .     S
Cu698  N708    2.017   .     S
Cu698  O717    1.933   .     S
Cu698  O713    1.958   .     S
H703   O720    0.988   .     S
H704   O710    0.988   .     S
H705   O711    0.988   .     S
H706   O712    0.988   .     S
C721   C724    1.443   .     S
C721   O749    1.289   .     A
C721   O755    1.289   .     A
C722   C724    1.415   .     A
C722   O752    1.385   .     S
C722   C815    1.389   1_455 S
C723   C729    1.443   .     S
C723   C736    1.415   .     A
C723   C735    1.415   .     A
C724   C734    1.415   .     A
C725   H739    1.082   .     S
C725   N748    1.368   .     A
C725   C968    1.418   1_545 S
C726   N747    1.368   .     A
C726   H740    1.082   .     S
C726   C847    1.418   .     S
C727   H741    1.082   .     S
C727   N748    1.368   .     A
C727   C966    1.418   1_545 S
C728   H742    1.082   .     S
C728   N747    1.368   .     A
C728   C845    1.418   .     S
C729   O753    1.289   .     A
C729   O754    1.289   .     A
C730   C732    1.408   .     S
C730   O756    1.289   .     A
C730   O759    1.289   .     A
C731   O758    1.289   .     A
C731   C733    1.408   .     S
C731   O757    1.289   .     A
C733   C12     1.190   1_556 S
C734   O760    1.385   .     S
C734   C816    1.389   1_455 S
C735   O750    1.385   .     S
C735   C762    1.389   .     S
C736   O751    1.385   .     S
C736   C774    1.389   .     S
Cu737  O756    1.933   .     S
Cu737  O749    1.958   .     S
Cu737  Cu738   2.683   .     S
Cu737  O758    1.933   .     S
Cu737  O754    1.958   .     S
Cu737  N747    2.017   .     S
Cu738  O759    1.933   .     S
Cu738  O755    1.958   .     S
Cu738  N748    2.017   .     S
Cu738  O757    1.933   .     S
Cu738  O753    1.958   .     S
H743   O760    0.988   .     S
H744   O750    0.988   .     S
H745   O751    0.988   .     S
H746   O752    0.988   .     S
C761   C764    1.443   .     S
C761   O789    1.289   .     A
C761   O795    1.289   .     A
C762   C764    1.415   .     A
C762   O792    1.385   .     S
C763   C769    1.443   .     S
C763   C776    1.415   .     A
C763   C775    1.415   .     A
C764   C774    1.415   .     A
C765   H779    1.082   .     S
C765   N788    1.368   .     A
C765   C1008   1.418   1_545 S
C766   N787    1.368   .     A
C766   H780    1.082   .     S
C766   C887    1.418   .     S
C767   H781    1.082   .     S
C767   N788    1.368   .     A
C767   C1006   1.418   1_545 S
C768   H782    1.082   .     S
C768   N787    1.368   .     A
C768   C885    1.418   .     S
C769   O793    1.289   .     A
C769   O794    1.289   .     A
C770   C772    1.408   .     S
C770   O796    1.289   .     A
C770   O799    1.289   .     A
C771   O798    1.289   .     A
C771   C773    1.408   .     S
C771   O797    1.289   .     A
C773   C52     1.190   1_556 S
C774   O800    1.385   .     S
C775   O790    1.385   .     S
C775   C802    1.389   .     S
C776   O791    1.385   .     S
C776   C814    1.389   .     S
Cu777  O796    1.933   .     S
Cu777  O789    1.958   .     S
Cu777  Cu778   2.683   .     S
Cu777  O798    1.933   .     S
Cu777  O794    1.958   .     S
Cu777  N787    2.017   .     S
Cu778  O799    1.933   .     S
Cu778  O795    1.958   .     S
Cu778  N788    2.017   .     S
Cu778  O797    1.933   .     S
Cu778  O793    1.958   .     S
H783   O800    0.988   .     S
H784   O790    0.988   .     S
H785   O791    0.988   .     S
H786   O792    0.988   .     S
C801   C804    1.443   .     S
C801   O829    1.289   .     A
C801   O835    1.289   .     A
C802   C804    1.415   .     A
C802   O832    1.385   .     S
C803   C809    1.443   .     S
C803   C816    1.415   .     A
C803   C815    1.415   .     A
C804   C814    1.415   .     A
C805   H819    1.082   .     S
C805   N828    1.368   .     A
C805   C1048   1.418   1_545 S
C806   N827    1.368   .     A
C806   H820    1.082   .     S
C806   C927    1.418   .     S
C807   H821    1.082   .     S
C807   N828    1.368   .     A
C807   C1046   1.418   1_545 S
C808   H822    1.082   .     S
C808   N827    1.368   .     A
C808   C925    1.418   .     S
C809   O833    1.289   .     A
C809   O834    1.289   .     A
C810   C812    1.408   .     S
C810   O836    1.289   .     A
C810   O839    1.289   .     A
C811   O838    1.289   .     A
C811   C813    1.408   .     S
C811   O837    1.289   .     A
C813   C92     1.190   1_556 S
C814   O840    1.385   .     S
C815   O830    1.385   .     S
C815   C722    1.389   1_655 S
C816   O831    1.385   .     S
C816   C734    1.389   1_655 S
Cu817  O836    1.933   .     S
Cu817  O829    1.958   .     S
Cu817  Cu818   2.683   .     S
Cu817  O838    1.933   .     S
Cu817  O834    1.958   .     S
Cu817  N827    2.017   .     S
Cu818  O839    1.933   .     S
Cu818  O835    1.958   .     S
Cu818  N828    2.017   .     S
Cu818  O837    1.933   .     S
Cu818  O833    1.958   .     S
H823   O840    0.988   .     S
H824   O830    0.988   .     S
H825   O831    0.988   .     S
H826   O832    0.988   .     S
C841   C844    1.443   .     S
C841   O869    1.289   .     A
C841   O875    1.289   .     A
C842   C844    1.415   .     A
C842   O872    1.385   .     S
C842   C935    1.389   1_455 S
C843   C849    1.443   .     S
C843   C856    1.415   .     A
C843   C855    1.415   .     A
C844   C854    1.415   .     A
C845   H859    1.082   .     S
C845   N868    1.368   .     A
C846   N867    1.368   .     A
C846   H860    1.082   .     S
C846   C967    1.418   .     S
C847   H861    1.082   .     S
C847   N868    1.368   .     A
C848   H862    1.082   .     S
C848   N867    1.368   .     A
C848   C965    1.418   .     S
C849   O873    1.289   .     A
C849   O874    1.289   .     A
C850   C852    1.408   .     S
C850   O876    1.289   .     A
C850   O879    1.289   .     A
C851   O878    1.289   .     A
C851   C853    1.408   .     S
C851   O877    1.289   .     A
C853   C132    1.190   1_556 S
C854   O880    1.385   .     S
C854   C936    1.389   1_455 S
C855   O870    1.385   .     S
C855   C882    1.389   .     S
C856   O871    1.385   .     S
C856   C894    1.389   .     S
Cu857  O876    1.933   .     S
Cu857  O869    1.958   .     S
Cu857  Cu858   2.683   .     S
Cu857  O878    1.933   .     S
Cu857  O874    1.958   .     S
Cu857  N867    2.017   .     S
Cu858  O879    1.933   .     S
Cu858  O875    1.958   .     S
Cu858  N868    2.017   .     S
Cu858  O877    1.933   .     S
Cu858  O873    1.958   .     S
H863   O880    0.988   .     S
H864   O870    0.988   .     S
H865   O871    0.988   .     S
H866   O872    0.988   .     S
C881   C884    1.443   .     S
C881   O909    1.289   .     A
C881   O915    1.289   .     A
C882   C884    1.415   .     A
C882   O912    1.385   .     S
C883   C889    1.443   .     S
C883   C896    1.415   .     A
C883   C895    1.415   .     A
C884   C894    1.415   .     A
C885   H899    1.082   .     S
C885   N908    1.368   .     A
C886   N907    1.368   .     A
C886   H900    1.082   .     S
C886   C1007   1.418   .     S
C887   H901    1.082   .     S
C887   N908    1.368   .     A
C888   H902    1.082   .     S
C888   N907    1.368   .     A
C888   C1005   1.418   .     S
C889   O913    1.289   .     A
C889   O914    1.289   .     A
C890   C892    1.408   .     S
C890   O916    1.289   .     A
C890   O919    1.289   .     A
C891   O918    1.289   .     A
C891   C893    1.408   .     S
C891   O917    1.289   .     A
C893   C172    1.190   1_556 S
C894   O920    1.385   .     S
C895   O910    1.385   .     S
C895   C922    1.389   .     S
C896   O911    1.385   .     S
C896   C934    1.389   .     S
Cu897  O916    1.933   .     S
Cu897  O909    1.958   .     S
Cu897  Cu898   2.683   .     S
Cu897  O918    1.933   .     S
Cu897  O914    1.958   .     S
Cu897  N907    2.017   .     S
Cu898  O919    1.933   .     S
Cu898  O915    1.958   .     S
Cu898  N908    2.017   .     S
Cu898  O917    1.933   .     S
Cu898  O913    1.958   .     S
H903   O920    0.988   .     S
H904   O910    0.988   .     S
H905   O911    0.988   .     S
H906   O912    0.988   .     S
C921   C924    1.443   .     S
C921   O949    1.289   .     A
C921   O955    1.289   .     A
C922   C924    1.415   .     A
C922   O952    1.385   .     S
C923   C929    1.443   .     S
C923   C936    1.415   .     A
C923   C935    1.415   .     A
C924   C934    1.415   .     A
C925   H939    1.082   .     S
C925   N948    1.368   .     A
C926   N947    1.368   .     A
C926   H940    1.082   .     S
C926   C1047   1.418   .     S
C927   H941    1.082   .     S
C927   N948    1.368   .     A
C928   H942    1.082   .     S
C928   N947    1.368   .     A
C928   C1045   1.418   .     S
C929   O953    1.289   .     A
C929   O954    1.289   .     A
C930   C932    1.408   .     S
C930   O956    1.289   .     A
C930   O959    1.289   .     A
C931   O958    1.289   .     A
C931   C933    1.408   .     S
C931   O957    1.289   .     A
C933   C212    1.190   1_556 S
C934   O960    1.385   .     S
C935   O950    1.385   .     S
C935   C842    1.389   1_655 S
C936   O951    1.385   .     S
C936   C854    1.389   1_655 S
Cu937  O956    1.933   .     S
Cu937  O949    1.958   .     S
Cu937  Cu938   2.683   .     S
Cu937  O958    1.933   .     S
Cu937  O954    1.958   .     S
Cu937  N947    2.017   .     S
Cu938  O959    1.933   .     S
Cu938  O955    1.958   .     S
Cu938  N948    2.017   .     S
Cu938  O957    1.933   .     S
Cu938  O953    1.958   .     S
H943   O960    0.988   .     S
H944   O950    0.988   .     S
H945   O951    0.988   .     S
H946   O952    0.988   .     S
C961   C964    1.443   .     S
C961   O989    1.289   .     A
C961   O995    1.289   .     A
C962   C964    1.415   .     A
C962   O992    1.385   .     S
C962   C1055   1.389   1_455 S
C963   C969    1.443   .     S
C963   C976    1.415   .     A
C963   C975    1.415   .     A
C964   C974    1.415   .     A
C965   H979    1.082   .     S
C965   N988    1.368   .     A
C966   N987    1.368   .     A
C966   H980    1.082   .     S
C966   C727    1.418   1_565 S
C967   H981    1.082   .     S
C967   N988    1.368   .     A
C968   H982    1.082   .     S
C968   N987    1.368   .     A
C968   C725    1.418   1_565 S
C969   O993    1.289   .     A
C969   O994    1.289   .     A
C970   C972    1.408   .     S
C970   O996    1.289   .     A
C970   O999    1.289   .     A
C971   O998    1.289   .     A
C971   C973    1.408   .     S
C971   O997    1.289   .     A
C973   C252    1.190   1_556 S
C974   O1000   1.385   .     S
C974   C1056   1.389   1_455 S
C975   O990    1.385   .     S
C975   C1002   1.389   .     S
C976   O991    1.385   .     S
C976   C1014   1.389   .     S
Cu977  O996    1.933   .     S
Cu977  O989    1.958   .     S
Cu977  Cu978   2.683   .     S
Cu977  O998    1.933   .     S
Cu977  O994    1.958   .     S
Cu977  N987    2.017   .     S
Cu978  O999    1.933   .     S
Cu978  O995    1.958   .     S
Cu978  N988    2.017   .     S
Cu978  O997    1.933   .     S
Cu978  O993    1.958   .     S
H983   O1000   0.988   .     S
H984   O990    0.988   .     S
H985   O991    0.988   .     S
H986   O992    0.988   .     S
C1001  C1004   1.443   .     S
C1001  O1029   1.289   .     A
C1001  O1035   1.289   .     A
C1002  C1004   1.415   .     A
C1002  O1032   1.385   .     S
C1003  C1009   1.443   .     S
C1003  C1016   1.415   .     A
C1003  C1015   1.415   .     A
C1004  C1014   1.415   .     A
C1005  H1019   1.082   .     S
C1005  N1028   1.368   .     A
C1006  N1027   1.368   .     A
C1006  H1020   1.082   .     S
C1006  C767    1.418   1_565 S
C1007  H1021   1.082   .     S
C1007  N1028   1.368   .     A
C1008  H1022   1.082   .     S
C1008  N1027   1.368   .     A
C1008  C765    1.418   1_565 S
C1009  O1033   1.289   .     A
C1009  O1034   1.289   .     A
C1010  C1012   1.408   .     S
C1010  O1036   1.289   .     A
C1010  O1039   1.289   .     A
C1011  O1038   1.289   .     A
C1011  C1013   1.408   .     S
C1011  O1037   1.289   .     A
C1013  C292    1.190   1_556 S
C1014  O1040   1.385   .     S
C1015  O1030   1.385   .     S
C1015  C1042   1.389   .     S
C1016  O1031   1.385   .     S
C1016  C1054   1.389   .     S
Cu1017 O1036   1.933   .     S
Cu1017 O1029   1.958   .     S
Cu1017 Cu1018  2.683   .     S
Cu1017 O1038   1.933   .     S
Cu1017 O1034   1.958   .     S
Cu1017 N1027   2.017   .     S
Cu1018 O1039   1.933   .     S
Cu1018 O1035   1.958   .     S
Cu1018 N1028   2.017   .     S
Cu1018 O1037   1.933   .     S
Cu1018 O1033   1.958   .     S
H1023  O1040   0.988   .     S
H1024  O1030   0.988   .     S
H1025  O1031   0.988   .     S
H1026  O1032   0.988   .     S
C1041  C1044   1.443   .     S
C1041  O1069   1.289   .     A
C1041  O1075   1.289   .     A
C1042  C1044   1.415   .     A
C1042  O1072   1.385   .     S
C1043  C1049   1.443   .     S
C1043  C1056   1.415   .     A
C1043  C1055   1.415   .     A
C1044  C1054   1.415   .     A
C1045  H1059   1.082   .     S
C1045  N1068   1.368   .     A
C1046  N1067   1.368   .     A
C1046  H1060   1.082   .     S
C1046  C807    1.418   1_565 S
C1047  H1061   1.082   .     S
C1047  N1068   1.368   .     A
C1048  H1062   1.082   .     S
C1048  N1067   1.368   .     A
C1048  C805    1.418   1_565 S
C1049  O1073   1.289   .     A
C1049  O1074   1.289   .     A
C1050  C1052   1.408   .     S
C1050  O1076   1.289   .     A
C1050  O1079   1.289   .     A
C1051  O1078   1.289   .     A
C1051  C1053   1.408   .     S
C1051  O1077   1.289   .     A
C1053  C332    1.190   1_556 S
C1054  O1080   1.385   .     S
C1055  O1070   1.385   .     S
C1055  C962    1.389   1_655 S
C1056  O1071   1.385   .     S
C1056  C974    1.389   1_655 S
Cu1057 O1076   1.933   .     S
Cu1057 O1069   1.958   .     S
Cu1057 Cu1058  2.683   .     S
Cu1057 O1078   1.933   .     S
Cu1057 O1074   1.958   .     S
Cu1057 N1067   2.017   .     S
Cu1058 O1079   1.933   .     S
Cu1058 O1075   1.958   .     S
Cu1058 N1068   2.017   .     S
Cu1058 O1077   1.933   .     S
Cu1058 O1073   1.958   .     S
H1063  O1080   0.988   .     S
H1064  O1070   0.988   .     S
H1065  O1071   0.988   .     S
H1066  O1072   0.988   .     S
