data_str_m2_o10_o18_pcu_sym.33
_audit_creation_date              2020-01-03
_audit_creation_method            'Materials Studio'
_symmetry_space_group_name_H-M    'P1'
_symmetry_Int_Tables_number       1
_symmetry_cell_setting            triclinic
loop_
_symmetry_equiv_pos_as_xyz
  x,y,z
_cell_length_a                    22.3033
_cell_length_b                    26.0809
_cell_length_c                    31.6260
_cell_angle_alpha                 94.2685
_cell_angle_beta                  75.0602
_cell_angle_gamma                 103.1419
loop_
_atom_site_label
_atom_site_type_symbol
_atom_site_fract_x
_atom_site_fract_y
_atom_site_fract_z
_atom_site_U_iso_or_equiv
_atom_site_adp_type
_atom_site_occupancy
C1     C     0.18170   0.26672   0.25129   0.00000  Uiso   1.00
C2     C     0.20536   0.17082   0.16688   0.00000  Uiso   1.00
C3     C     0.10445   0.15879   0.38098   0.00000  Uiso   1.00
C4     C     0.22887   0.17896   0.11954   0.00000  Uiso   1.00
C5     C     0.02170   0.12795   0.44530   0.00000  Uiso   1.00
C6     C     0.30657   0.22317   0.05791   0.00000  Uiso   1.00
C7     C     0.04074   0.13748   0.40057   0.00000  Uiso   1.00
C8     C     0.28967   0.20841   0.10152   0.00000  Uiso   1.00
C9     C     0.14800   0.17337   0.40693   0.00000  Uiso   1.00
C10    C     0.18624   0.16245   0.09318   0.00000  Uiso   1.00
C11    C     0.12970   0.16617   0.45250   0.00000  Uiso   1.00
C12    C     0.15164   0.06661   0.24869   0.00000  Uiso   1.00
C13    C     0.20063   0.17893   0.04962   0.00000  Uiso   1.00
C14    C     0.06580   0.14083   0.47139   0.00000  Uiso   1.00
C15    C     0.26255   0.20935   0.03178   0.00000  Uiso   1.00
C16    C     0.17384   0.18149   0.47918   0.00000  Uiso   1.00
C17    C     0.15513   0.16650   0.02373   0.00000  Uiso   1.00
C18    C     0.09110   0.14080   0.04131   0.00000  Uiso   1.00
C19    C     0.23558   0.21247   0.46285   0.00000  Uiso   1.00
C20    C     0.04679   0.12806   0.01575   0.00000  Uiso   1.00
C21    C     0.27966   0.22621   0.48848   0.00000  Uiso   1.00
C22    C     0.19017   0.32268   0.25191   0.00000  Uiso   1.00
C23    C     0.14318   0.01066   0.24806   0.00000  Uiso   1.00
C24    C     0.12800   0.16296   0.33318   0.00000  Uiso   1.00
Cu25   Cu    0.10737   0.16108   0.24516   0.00000  Uiso   1.00
Cu26   Cu    0.22596   0.17225   0.25484   0.00000  Uiso   1.00
H27    H     0.14167   0.13705   0.10812   0.00000  Uiso   1.00
H28    H     0.09788   0.32021   0.24442   0.00000  Uiso   1.00
H29    H     0.00132   0.20505   0.28444   0.00000  Uiso   1.00
H30    H     0.33201   0.12828   0.21556   0.00000  Uiso   1.00
H31    H     0.31209   0.09608   0.06498   0.00000  Uiso   1.00
H32    H     0.01182   0.26379   0.44056   0.00000  Uiso   1.00
H33    H     0.19683   0.18814   0.39029   0.00000  Uiso   1.00
H34    H     0.32334   0.22153   0.12146   0.00000  Uiso   1.00
H35    H     0.00623   0.12613   0.38110   0.00000  Uiso   1.00
H36    H     0.30571   0.10976   0.45924   0.00000  Uiso   1.00
H37    H     0.02066   0.24631   0.04498   0.00000  Uiso   1.00
H38    H     0.07304   0.13122   0.07534   0.00000  Uiso   1.00
H39    H     0.25048   0.22852   0.43051   0.00000  Uiso   1.00
H40    H     0.23547   0.01312   0.25555   0.00000  Uiso   1.00
N41    N     0.31506   0.18068   0.26212   0.00000  Uiso   1.00
N42    N     0.01827   0.15265   0.23788   0.00000  Uiso   1.00
O43    O     0.12815   0.23809   0.24686   0.00000  Uiso   1.00
O44    O     0.00654   0.25631   0.47175   0.00000  Uiso   1.00
O45    O     0.20518   0.09524   0.25314   0.00000  Uiso   1.00
O46    O     0.22829   0.24753   0.25503   0.00000  Uiso   1.00
O47    O     0.10504   0.08580   0.24497   0.00000  Uiso   1.00
O48    O     0.08851   0.15930   0.30854   0.00000  Uiso   1.00
O49    O     0.24482   0.17403   0.19146   0.00000  Uiso   1.00
O50    O     0.18866   0.16874   0.31671   0.00000  Uiso   1.00
O51    O     0.14468   0.16460   0.18329   0.00000  Uiso   1.00
O52    O     0.31800   0.10240   0.03350   0.00000  Uiso   1.00
C53    C     0.51503   0.26672   0.25129   0.00000  Uiso   1.00
C54    C     0.53869   0.17082   0.16688   0.00000  Uiso   1.00
C55    C     0.43778   0.15879   0.38098   0.00000  Uiso   1.00
C56    C     0.56221   0.17896   0.11954   0.00000  Uiso   1.00
C57    C     0.35503   0.12795   0.44530   0.00000  Uiso   1.00
C58    C     0.63991   0.22317   0.05791   0.00000  Uiso   1.00
C59    C     0.37408   0.13748   0.40057   0.00000  Uiso   1.00
C60    C     0.62301   0.20841   0.10152   0.00000  Uiso   1.00
C61    C     0.48133   0.17337   0.40693   0.00000  Uiso   1.00
C62    C     0.51958   0.16245   0.09318   0.00000  Uiso   1.00
C63    C     0.46304   0.16617   0.45250   0.00000  Uiso   1.00
C64    C     0.48498   0.06661   0.24869   0.00000  Uiso   1.00
C65    C     0.53397   0.17893   0.04962   0.00000  Uiso   1.00
C66    C     0.39914   0.14083   0.47139   0.00000  Uiso   1.00
C67    C     0.59588   0.20935   0.03178   0.00000  Uiso   1.00
C68    C     0.50718   0.18149   0.47918   0.00000  Uiso   1.00
C69    C     0.48847   0.16650   0.02373   0.00000  Uiso   1.00
C70    C     0.42443   0.14080   0.04131   0.00000  Uiso   1.00
C71    C     0.56891   0.21247   0.46285   0.00000  Uiso   1.00
C72    C     0.38013   0.12806   0.01575   0.00000  Uiso   1.00
C73    C     0.61299   0.22621   0.48848   0.00000  Uiso   1.00
C74    C     0.52351   0.32268   0.25191   0.00000  Uiso   1.00
C75    C     0.47651   0.01066   0.24806   0.00000  Uiso   1.00
C76    C     0.46134   0.16296   0.33318   0.00000  Uiso   1.00
Cu77   Cu    0.44071   0.16108   0.24516   0.00000  Uiso   1.00
Cu78   Cu    0.55929   0.17225   0.25484   0.00000  Uiso   1.00
H79    H     0.47500   0.13705   0.10812   0.00000  Uiso   1.00
H80    H     0.43121   0.32021   0.24442   0.00000  Uiso   1.00
H81    H     0.33465   0.20505   0.28444   0.00000  Uiso   1.00
H82    H     0.66535   0.12828   0.21556   0.00000  Uiso   1.00
H83    H     0.64542   0.09608   0.06498   0.00000  Uiso   1.00
H84    H     0.34515   0.26379   0.44056   0.00000  Uiso   1.00
H85    H     0.53017   0.18814   0.39029   0.00000  Uiso   1.00
H86    H     0.65667   0.22153   0.12146   0.00000  Uiso   1.00
H87    H     0.33956   0.12613   0.38110   0.00000  Uiso   1.00
H88    H     0.63904   0.10976   0.45924   0.00000  Uiso   1.00
H89    H     0.35399   0.24631   0.04498   0.00000  Uiso   1.00
H90    H     0.40637   0.13122   0.07534   0.00000  Uiso   1.00
H91    H     0.58382   0.22852   0.43051   0.00000  Uiso   1.00
H92    H     0.56881   0.01312   0.25555   0.00000  Uiso   1.00
N93    N     0.64839   0.18068   0.26212   0.00000  Uiso   1.00
N94    N     0.35161   0.15265   0.23788   0.00000  Uiso   1.00
O95    O     0.46148   0.23809   0.24686   0.00000  Uiso   1.00
O96    O     0.33988   0.25631   0.47175   0.00000  Uiso   1.00
O97    O     0.53852   0.09524   0.25314   0.00000  Uiso   1.00
O98    O     0.56163   0.24753   0.25503   0.00000  Uiso   1.00
O99    O     0.43837   0.08580   0.24497   0.00000  Uiso   1.00
O100   O     0.42185   0.15930   0.30854   0.00000  Uiso   1.00
O101   O     0.57815   0.17403   0.19146   0.00000  Uiso   1.00
O102   O     0.52199   0.16874   0.31671   0.00000  Uiso   1.00
O103   O     0.47801   0.16460   0.18329   0.00000  Uiso   1.00
O104   O     0.65133   0.10240   0.03350   0.00000  Uiso   1.00
C105   C     0.84836   0.26672   0.25129   0.00000  Uiso   1.00
C106   C     0.87203   0.17082   0.16688   0.00000  Uiso   1.00
C107   C     0.77111   0.15879   0.38098   0.00000  Uiso   1.00
C108   C     0.89554   0.17896   0.11954   0.00000  Uiso   1.00
C109   C     0.68837   0.12795   0.44530   0.00000  Uiso   1.00
C110   C     0.97324   0.22317   0.05791   0.00000  Uiso   1.00
C111   C     0.70741   0.13748   0.40057   0.00000  Uiso   1.00
C112   C     0.95634   0.20841   0.10152   0.00000  Uiso   1.00
C113   C     0.81466   0.17337   0.40693   0.00000  Uiso   1.00
C114   C     0.85291   0.16245   0.09318   0.00000  Uiso   1.00
C115   C     0.79637   0.16617   0.45250   0.00000  Uiso   1.00
C116   C     0.81831   0.06661   0.24869   0.00000  Uiso   1.00
C117   C     0.86730   0.17893   0.04962   0.00000  Uiso   1.00
C118   C     0.73247   0.14083   0.47139   0.00000  Uiso   1.00
C119   C     0.92922   0.20935   0.03178   0.00000  Uiso   1.00
C120   C     0.84051   0.18149   0.47918   0.00000  Uiso   1.00
C121   C     0.82180   0.16650   0.02373   0.00000  Uiso   1.00
C122   C     0.75777   0.14080   0.04131   0.00000  Uiso   1.00
C123   C     0.90225   0.21247   0.46285   0.00000  Uiso   1.00
C124   C     0.71346   0.12806   0.01575   0.00000  Uiso   1.00
C125   C     0.94633   0.22621   0.48848   0.00000  Uiso   1.00
C126   C     0.85684   0.32268   0.25191   0.00000  Uiso   1.00
C127   C     0.80984   0.01066   0.24806   0.00000  Uiso   1.00
C128   C     0.79467   0.16296   0.33318   0.00000  Uiso   1.00
Cu129  Cu    0.77404   0.16108   0.24516   0.00000  Uiso   1.00
Cu130  Cu    0.89263   0.17225   0.25484   0.00000  Uiso   1.00
H131   H     0.80833   0.13705   0.10812   0.00000  Uiso   1.00
H132   H     0.76454   0.32021   0.24442   0.00000  Uiso   1.00
H133   H     0.66799   0.20505   0.28444   0.00000  Uiso   1.00
H134   H     0.99868   0.12828   0.21556   0.00000  Uiso   1.00
H135   H     0.97875   0.09608   0.06498   0.00000  Uiso   1.00
H136   H     0.67848   0.26379   0.44056   0.00000  Uiso   1.00
H137   H     0.86350   0.18814   0.39029   0.00000  Uiso   1.00
H138   H     0.99000   0.22153   0.12146   0.00000  Uiso   1.00
H139   H     0.67289   0.12613   0.38110   0.00000  Uiso   1.00
H140   H     0.97238   0.10976   0.45924   0.00000  Uiso   1.00
H141   H     0.68732   0.24631   0.04498   0.00000  Uiso   1.00
H142   H     0.73970   0.13122   0.07534   0.00000  Uiso   1.00
H143   H     0.91715   0.22852   0.43051   0.00000  Uiso   1.00
H144   H     0.90214   0.01312   0.25555   0.00000  Uiso   1.00
N145   N     0.98173   0.18068   0.26212   0.00000  Uiso   1.00
N146   N     0.68494   0.15265   0.23788   0.00000  Uiso   1.00
O147   O     0.79482   0.23809   0.24686   0.00000  Uiso   1.00
O148   O     0.67321   0.25631   0.47175   0.00000  Uiso   1.00
O149   O     0.87185   0.09524   0.25314   0.00000  Uiso   1.00
O150   O     0.89496   0.24753   0.25503   0.00000  Uiso   1.00
O151   O     0.77171   0.08580   0.24497   0.00000  Uiso   1.00
O152   O     0.75518   0.15930   0.30854   0.00000  Uiso   1.00
O153   O     0.91149   0.17403   0.19146   0.00000  Uiso   1.00
O154   O     0.85532   0.16874   0.31671   0.00000  Uiso   1.00
O155   O     0.81134   0.16460   0.18329   0.00000  Uiso   1.00
O156   O     0.98466   0.10240   0.03350   0.00000  Uiso   1.00
C157   C     0.18170   0.60005   0.25129   0.00000  Uiso   1.00
C158   C     0.20536   0.50415   0.16688   0.00000  Uiso   1.00
C159   C     0.10445   0.49212   0.38098   0.00000  Uiso   1.00
C160   C     0.22887   0.51230   0.11954   0.00000  Uiso   1.00
C161   C     0.02170   0.46128   0.44530   0.00000  Uiso   1.00
C162   C     0.30657   0.55650   0.05791   0.00000  Uiso   1.00
C163   C     0.04074   0.47082   0.40057   0.00000  Uiso   1.00
C164   C     0.28967   0.54175   0.10152   0.00000  Uiso   1.00
C165   C     0.14800   0.50670   0.40693   0.00000  Uiso   1.00
C166   C     0.18624   0.49579   0.09318   0.00000  Uiso   1.00
C167   C     0.12970   0.49950   0.45250   0.00000  Uiso   1.00
C168   C     0.15164   0.39995   0.24869   0.00000  Uiso   1.00
C169   C     0.20063   0.51226   0.04962   0.00000  Uiso   1.00
C170   C     0.06580   0.47416   0.47139   0.00000  Uiso   1.00
C171   C     0.26255   0.54268   0.03178   0.00000  Uiso   1.00
C172   C     0.17384   0.51482   0.47918   0.00000  Uiso   1.00
C173   C     0.15513   0.49983   0.02373   0.00000  Uiso   1.00
C174   C     0.09110   0.47413   0.04131   0.00000  Uiso   1.00
C175   C     0.23558   0.54580   0.46285   0.00000  Uiso   1.00
C176   C     0.04679   0.46139   0.01575   0.00000  Uiso   1.00
C177   C     0.27966   0.55955   0.48848   0.00000  Uiso   1.00
C178   C     0.19017   0.65601   0.25191   0.00000  Uiso   1.00
C179   C     0.14318   0.34399   0.24806   0.00000  Uiso   1.00
C180   C     0.12800   0.49629   0.33318   0.00000  Uiso   1.00
Cu181  Cu    0.10737   0.49441   0.24516   0.00000  Uiso   1.00
Cu182  Cu    0.22596   0.50559   0.25484   0.00000  Uiso   1.00
H183   H     0.14167   0.47038   0.10812   0.00000  Uiso   1.00
H184   H     0.09788   0.65354   0.24442   0.00000  Uiso   1.00
H185   H     0.00132   0.53838   0.28444   0.00000  Uiso   1.00
H186   H     0.33201   0.46161   0.21556   0.00000  Uiso   1.00
H187   H     0.31209   0.42941   0.06498   0.00000  Uiso   1.00
H188   H     0.01182   0.59712   0.44056   0.00000  Uiso   1.00
H189   H     0.19683   0.52147   0.39029   0.00000  Uiso   1.00
H190   H     0.32334   0.55486   0.12146   0.00000  Uiso   1.00
H191   H     0.00623   0.45947   0.38110   0.00000  Uiso   1.00
H192   H     0.30571   0.44309   0.45924   0.00000  Uiso   1.00
H193   H     0.02066   0.57964   0.04498   0.00000  Uiso   1.00
H194   H     0.07304   0.46455   0.07534   0.00000  Uiso   1.00
H195   H     0.25048   0.56185   0.43051   0.00000  Uiso   1.00
H196   H     0.23547   0.34645   0.25555   0.00000  Uiso   1.00
N197   N     0.31506   0.51401   0.26212   0.00000  Uiso   1.00
N198   N     0.01827   0.48599   0.23788   0.00000  Uiso   1.00
O199   O     0.12815   0.57142   0.24686   0.00000  Uiso   1.00
O200   O     0.00654   0.58964   0.47175   0.00000  Uiso   1.00
O201   O     0.20518   0.42858   0.25314   0.00000  Uiso   1.00
O202   O     0.22829   0.58086   0.25503   0.00000  Uiso   1.00
O203   O     0.10504   0.41914   0.24497   0.00000  Uiso   1.00
O204   O     0.08851   0.49263   0.30854   0.00000  Uiso   1.00
O205   O     0.24482   0.50737   0.19146   0.00000  Uiso   1.00
O206   O     0.18866   0.50207   0.31671   0.00000  Uiso   1.00
O207   O     0.14468   0.49793   0.18329   0.00000  Uiso   1.00
O208   O     0.31800   0.43574   0.03350   0.00000  Uiso   1.00
C209   C     0.51503   0.60005   0.25129   0.00000  Uiso   1.00
C210   C     0.53869   0.50415   0.16688   0.00000  Uiso   1.00
C211   C     0.43778   0.49212   0.38098   0.00000  Uiso   1.00
C212   C     0.56221   0.51230   0.11954   0.00000  Uiso   1.00
C213   C     0.35503   0.46128   0.44530   0.00000  Uiso   1.00
C214   C     0.63991   0.55650   0.05791   0.00000  Uiso   1.00
C215   C     0.37408   0.47082   0.40057   0.00000  Uiso   1.00
C216   C     0.62301   0.54175   0.10152   0.00000  Uiso   1.00
C217   C     0.48133   0.50670   0.40693   0.00000  Uiso   1.00
C218   C     0.51958   0.49579   0.09318   0.00000  Uiso   1.00
C219   C     0.46304   0.49950   0.45250   0.00000  Uiso   1.00
C220   C     0.48498   0.39995   0.24869   0.00000  Uiso   1.00
C221   C     0.53397   0.51226   0.04962   0.00000  Uiso   1.00
C222   C     0.39914   0.47416   0.47139   0.00000  Uiso   1.00
C223   C     0.59588   0.54268   0.03178   0.00000  Uiso   1.00
C224   C     0.50718   0.51482   0.47918   0.00000  Uiso   1.00
C225   C     0.48847   0.49983   0.02373   0.00000  Uiso   1.00
C226   C     0.42443   0.47413   0.04131   0.00000  Uiso   1.00
C227   C     0.56891   0.54580   0.46285   0.00000  Uiso   1.00
C228   C     0.38013   0.46139   0.01575   0.00000  Uiso   1.00
C229   C     0.61299   0.55955   0.48848   0.00000  Uiso   1.00
C230   C     0.52351   0.65601   0.25191   0.00000  Uiso   1.00
C231   C     0.47651   0.34399   0.24806   0.00000  Uiso   1.00
C232   C     0.46134   0.49629   0.33318   0.00000  Uiso   1.00
Cu233  Cu    0.44071   0.49441   0.24516   0.00000  Uiso   1.00
Cu234  Cu    0.55929   0.50559   0.25484   0.00000  Uiso   1.00
H235   H     0.47500   0.47038   0.10812   0.00000  Uiso   1.00
H236   H     0.43121   0.65354   0.24442   0.00000  Uiso   1.00
H237   H     0.33465   0.53838   0.28444   0.00000  Uiso   1.00
H238   H     0.66535   0.46161   0.21556   0.00000  Uiso   1.00
H239   H     0.64542   0.42941   0.06498   0.00000  Uiso   1.00
H240   H     0.34515   0.59712   0.44056   0.00000  Uiso   1.00
H241   H     0.53017   0.52147   0.39029   0.00000  Uiso   1.00
H242   H     0.65667   0.55486   0.12146   0.00000  Uiso   1.00
H243   H     0.33956   0.45947   0.38110   0.00000  Uiso   1.00
H244   H     0.63904   0.44309   0.45924   0.00000  Uiso   1.00
H245   H     0.35399   0.57964   0.04498   0.00000  Uiso   1.00
H246   H     0.40637   0.46455   0.07534   0.00000  Uiso   1.00
H247   H     0.58382   0.56185   0.43051   0.00000  Uiso   1.00
H248   H     0.56881   0.34645   0.25555   0.00000  Uiso   1.00
N249   N     0.64839   0.51401   0.26212   0.00000  Uiso   1.00
N250   N     0.35161   0.48599   0.23788   0.00000  Uiso   1.00
O251   O     0.46148   0.57142   0.24686   0.00000  Uiso   1.00
O252   O     0.33988   0.58964   0.47175   0.00000  Uiso   1.00
O253   O     0.53852   0.42858   0.25314   0.00000  Uiso   1.00
O254   O     0.56163   0.58086   0.25503   0.00000  Uiso   1.00
O255   O     0.43837   0.41914   0.24497   0.00000  Uiso   1.00
O256   O     0.42185   0.49263   0.30854   0.00000  Uiso   1.00
O257   O     0.57815   0.50737   0.19146   0.00000  Uiso   1.00
O258   O     0.52199   0.50207   0.31671   0.00000  Uiso   1.00
O259   O     0.47801   0.49793   0.18329   0.00000  Uiso   1.00
O260   O     0.65133   0.43574   0.03350   0.00000  Uiso   1.00
C261   C     0.84836   0.60005   0.25129   0.00000  Uiso   1.00
C262   C     0.87203   0.50415   0.16688   0.00000  Uiso   1.00
C263   C     0.77111   0.49212   0.38098   0.00000  Uiso   1.00
C264   C     0.89554   0.51230   0.11954   0.00000  Uiso   1.00
C265   C     0.68837   0.46128   0.44530   0.00000  Uiso   1.00
C266   C     0.97324   0.55650   0.05791   0.00000  Uiso   1.00
C267   C     0.70741   0.47082   0.40057   0.00000  Uiso   1.00
C268   C     0.95634   0.54175   0.10152   0.00000  Uiso   1.00
C269   C     0.81466   0.50670   0.40693   0.00000  Uiso   1.00
C270   C     0.85291   0.49579   0.09318   0.00000  Uiso   1.00
C271   C     0.79637   0.49950   0.45250   0.00000  Uiso   1.00
C272   C     0.81831   0.39995   0.24869   0.00000  Uiso   1.00
C273   C     0.86730   0.51226   0.04962   0.00000  Uiso   1.00
C274   C     0.73247   0.47416   0.47139   0.00000  Uiso   1.00
C275   C     0.92922   0.54268   0.03178   0.00000  Uiso   1.00
C276   C     0.84051   0.51482   0.47918   0.00000  Uiso   1.00
C277   C     0.82180   0.49983   0.02373   0.00000  Uiso   1.00
C278   C     0.75777   0.47413   0.04131   0.00000  Uiso   1.00
C279   C     0.90225   0.54580   0.46285   0.00000  Uiso   1.00
C280   C     0.71346   0.46139   0.01575   0.00000  Uiso   1.00
C281   C     0.94633   0.55955   0.48848   0.00000  Uiso   1.00
C282   C     0.85684   0.65601   0.25191   0.00000  Uiso   1.00
C283   C     0.80984   0.34399   0.24806   0.00000  Uiso   1.00
C284   C     0.79467   0.49629   0.33318   0.00000  Uiso   1.00
Cu285  Cu    0.77404   0.49441   0.24516   0.00000  Uiso   1.00
Cu286  Cu    0.89263   0.50559   0.25484   0.00000  Uiso   1.00
H287   H     0.80833   0.47038   0.10812   0.00000  Uiso   1.00
H288   H     0.76454   0.65354   0.24442   0.00000  Uiso   1.00
H289   H     0.66799   0.53838   0.28444   0.00000  Uiso   1.00
H290   H     0.99868   0.46161   0.21556   0.00000  Uiso   1.00
H291   H     0.97875   0.42941   0.06498   0.00000  Uiso   1.00
H292   H     0.67848   0.59712   0.44056   0.00000  Uiso   1.00
H293   H     0.86350   0.52147   0.39029   0.00000  Uiso   1.00
H294   H     0.99000   0.55486   0.12146   0.00000  Uiso   1.00
H295   H     0.67289   0.45947   0.38110   0.00000  Uiso   1.00
H296   H     0.97238   0.44309   0.45924   0.00000  Uiso   1.00
H297   H     0.68732   0.57964   0.04498   0.00000  Uiso   1.00
H298   H     0.73970   0.46455   0.07534   0.00000  Uiso   1.00
H299   H     0.91715   0.56185   0.43051   0.00000  Uiso   1.00
H300   H     0.90214   0.34645   0.25555   0.00000  Uiso   1.00
N301   N     0.98173   0.51401   0.26212   0.00000  Uiso   1.00
N302   N     0.68494   0.48599   0.23788   0.00000  Uiso   1.00
O303   O     0.79482   0.57142   0.24686   0.00000  Uiso   1.00
O304   O     0.67321   0.58964   0.47175   0.00000  Uiso   1.00
O305   O     0.87185   0.42858   0.25314   0.00000  Uiso   1.00
O306   O     0.89496   0.58086   0.25503   0.00000  Uiso   1.00
O307   O     0.77171   0.41914   0.24497   0.00000  Uiso   1.00
O308   O     0.75518   0.49263   0.30854   0.00000  Uiso   1.00
O309   O     0.91149   0.50737   0.19146   0.00000  Uiso   1.00
O310   O     0.85532   0.50207   0.31671   0.00000  Uiso   1.00
O311   O     0.81134   0.49793   0.18329   0.00000  Uiso   1.00
O312   O     0.98466   0.43574   0.03350   0.00000  Uiso   1.00
C313   C     0.18170   0.93339   0.25129   0.00000  Uiso   1.00
C314   C     0.20536   0.83749   0.16688   0.00000  Uiso   1.00
C315   C     0.10445   0.82546   0.38098   0.00000  Uiso   1.00
C316   C     0.22887   0.84563   0.11954   0.00000  Uiso   1.00
C317   C     0.02170   0.79462   0.44530   0.00000  Uiso   1.00
C318   C     0.30657   0.88983   0.05791   0.00000  Uiso   1.00
C319   C     0.04074   0.80415   0.40057   0.00000  Uiso   1.00
C320   C     0.28967   0.87508   0.10152   0.00000  Uiso   1.00
C321   C     0.14800   0.84004   0.40693   0.00000  Uiso   1.00
C322   C     0.18624   0.82912   0.09318   0.00000  Uiso   1.00
C323   C     0.12970   0.83283   0.45250   0.00000  Uiso   1.00
C324   C     0.15164   0.73328   0.24869   0.00000  Uiso   1.00
C325   C     0.20063   0.84559   0.04962   0.00000  Uiso   1.00
C326   C     0.06580   0.80749   0.47139   0.00000  Uiso   1.00
C327   C     0.26255   0.87601   0.03178   0.00000  Uiso   1.00
C328   C     0.17384   0.84816   0.47918   0.00000  Uiso   1.00
C329   C     0.15513   0.83317   0.02373   0.00000  Uiso   1.00
C330   C     0.09110   0.80746   0.04131   0.00000  Uiso   1.00
C331   C     0.23558   0.87914   0.46285   0.00000  Uiso   1.00
C332   C     0.04679   0.79473   0.01575   0.00000  Uiso   1.00
C333   C     0.27966   0.89288   0.48848   0.00000  Uiso   1.00
C334   C     0.19017   0.98934   0.25191   0.00000  Uiso   1.00
C335   C     0.14318   0.67732   0.24806   0.00000  Uiso   1.00
C336   C     0.12800   0.82962   0.33318   0.00000  Uiso   1.00
Cu337  Cu    0.10737   0.82775   0.24516   0.00000  Uiso   1.00
Cu338  Cu    0.22596   0.83892   0.25484   0.00000  Uiso   1.00
H339   H     0.14167   0.80372   0.10812   0.00000  Uiso   1.00
H340   H     0.09788   0.98688   0.24442   0.00000  Uiso   1.00
H341   H     0.00132   0.87172   0.28444   0.00000  Uiso   1.00
H342   H     0.33201   0.79495   0.21556   0.00000  Uiso   1.00
H343   H     0.31209   0.76274   0.06498   0.00000  Uiso   1.00
H344   H     0.01182   0.93046   0.44056   0.00000  Uiso   1.00
H345   H     0.19683   0.85480   0.39029   0.00000  Uiso   1.00
H346   H     0.32334   0.88819   0.12146   0.00000  Uiso   1.00
H347   H     0.00623   0.79280   0.38110   0.00000  Uiso   1.00
H348   H     0.30571   0.77643   0.45924   0.00000  Uiso   1.00
H349   H     0.02066   0.91297   0.04498   0.00000  Uiso   1.00
H350   H     0.07304   0.79789   0.07534   0.00000  Uiso   1.00
H351   H     0.25048   0.89519   0.43051   0.00000  Uiso   1.00
H352   H     0.23547   0.67979   0.25555   0.00000  Uiso   1.00
N353   N     0.31506   0.84735   0.26212   0.00000  Uiso   1.00
N354   N     0.01827   0.81932   0.23788   0.00000  Uiso   1.00
O355   O     0.12815   0.90476   0.24686   0.00000  Uiso   1.00
O356   O     0.00654   0.92297   0.47175   0.00000  Uiso   1.00
O357   O     0.20518   0.76191   0.25314   0.00000  Uiso   1.00
O358   O     0.22829   0.91420   0.25503   0.00000  Uiso   1.00
O359   O     0.10504   0.75247   0.24497   0.00000  Uiso   1.00
O360   O     0.08851   0.82597   0.30854   0.00000  Uiso   1.00
O361   O     0.24482   0.84070   0.19146   0.00000  Uiso   1.00
O362   O     0.18866   0.83540   0.31671   0.00000  Uiso   1.00
O363   O     0.14468   0.83126   0.18329   0.00000  Uiso   1.00
O364   O     0.31800   0.76907   0.03350   0.00000  Uiso   1.00
C365   C     0.51503   0.93339   0.25129   0.00000  Uiso   1.00
C366   C     0.53869   0.83749   0.16688   0.00000  Uiso   1.00
C367   C     0.43778   0.82546   0.38098   0.00000  Uiso   1.00
C368   C     0.56221   0.84563   0.11954   0.00000  Uiso   1.00
C369   C     0.35503   0.79462   0.44530   0.00000  Uiso   1.00
C370   C     0.63991   0.88983   0.05791   0.00000  Uiso   1.00
C371   C     0.37408   0.80415   0.40057   0.00000  Uiso   1.00
C372   C     0.62301   0.87508   0.10152   0.00000  Uiso   1.00
C373   C     0.48133   0.84004   0.40693   0.00000  Uiso   1.00
C374   C     0.51958   0.82912   0.09318   0.00000  Uiso   1.00
C375   C     0.46304   0.83283   0.45250   0.00000  Uiso   1.00
C376   C     0.48498   0.73328   0.24869   0.00000  Uiso   1.00
C377   C     0.53397   0.84559   0.04962   0.00000  Uiso   1.00
C378   C     0.39914   0.80749   0.47139   0.00000  Uiso   1.00
C379   C     0.59588   0.87601   0.03178   0.00000  Uiso   1.00
C380   C     0.50718   0.84816   0.47918   0.00000  Uiso   1.00
C381   C     0.48847   0.83317   0.02373   0.00000  Uiso   1.00
C382   C     0.42443   0.80746   0.04131   0.00000  Uiso   1.00
C383   C     0.56891   0.87914   0.46285   0.00000  Uiso   1.00
C384   C     0.38013   0.79473   0.01575   0.00000  Uiso   1.00
C385   C     0.61299   0.89288   0.48848   0.00000  Uiso   1.00
C386   C     0.52351   0.98934   0.25191   0.00000  Uiso   1.00
C387   C     0.47651   0.67732   0.24806   0.00000  Uiso   1.00
C388   C     0.46134   0.82962   0.33318   0.00000  Uiso   1.00
Cu389  Cu    0.44071   0.82775   0.24516   0.00000  Uiso   1.00
Cu390  Cu    0.55929   0.83892   0.25484   0.00000  Uiso   1.00
H391   H     0.47500   0.80372   0.10812   0.00000  Uiso   1.00
H392   H     0.43121   0.98688   0.24442   0.00000  Uiso   1.00
H393   H     0.33465   0.87172   0.28444   0.00000  Uiso   1.00
H394   H     0.66535   0.79495   0.21556   0.00000  Uiso   1.00
H395   H     0.64542   0.76274   0.06498   0.00000  Uiso   1.00
H396   H     0.34515   0.93046   0.44056   0.00000  Uiso   1.00
H397   H     0.53017   0.85480   0.39029   0.00000  Uiso   1.00
H398   H     0.65667   0.88819   0.12146   0.00000  Uiso   1.00
H399   H     0.33956   0.79280   0.38110   0.00000  Uiso   1.00
H400   H     0.63904   0.77643   0.45924   0.00000  Uiso   1.00
H401   H     0.35399   0.91297   0.04498   0.00000  Uiso   1.00
H402   H     0.40637   0.79789   0.07534   0.00000  Uiso   1.00
H403   H     0.58382   0.89519   0.43051   0.00000  Uiso   1.00
H404   H     0.56881   0.67979   0.25555   0.00000  Uiso   1.00
N405   N     0.64839   0.84735   0.26212   0.00000  Uiso   1.00
N406   N     0.35161   0.81932   0.23788   0.00000  Uiso   1.00
O407   O     0.46148   0.90476   0.24686   0.00000  Uiso   1.00
O408   O     0.33988   0.92297   0.47175   0.00000  Uiso   1.00
O409   O     0.53852   0.76191   0.25314   0.00000  Uiso   1.00
O410   O     0.56163   0.91420   0.25503   0.00000  Uiso   1.00
O411   O     0.43837   0.75247   0.24497   0.00000  Uiso   1.00
O412   O     0.42185   0.82597   0.30854   0.00000  Uiso   1.00
O413   O     0.57815   0.84070   0.19146   0.00000  Uiso   1.00
O414   O     0.52199   0.83540   0.31671   0.00000  Uiso   1.00
O415   O     0.47801   0.83126   0.18329   0.00000  Uiso   1.00
O416   O     0.65133   0.76907   0.03350   0.00000  Uiso   1.00
C417   C     0.84836   0.93339   0.25129   0.00000  Uiso   1.00
C418   C     0.87203   0.83749   0.16688   0.00000  Uiso   1.00
C419   C     0.77111   0.82546   0.38098   0.00000  Uiso   1.00
C420   C     0.89554   0.84563   0.11954   0.00000  Uiso   1.00
C421   C     0.68837   0.79462   0.44530   0.00000  Uiso   1.00
C422   C     0.97324   0.88983   0.05791   0.00000  Uiso   1.00
C423   C     0.70741   0.80415   0.40057   0.00000  Uiso   1.00
C424   C     0.95634   0.87508   0.10152   0.00000  Uiso   1.00
C425   C     0.81466   0.84004   0.40693   0.00000  Uiso   1.00
C426   C     0.85291   0.82912   0.09318   0.00000  Uiso   1.00
C427   C     0.79637   0.83283   0.45250   0.00000  Uiso   1.00
C428   C     0.81831   0.73328   0.24869   0.00000  Uiso   1.00
C429   C     0.86730   0.84559   0.04962   0.00000  Uiso   1.00
C430   C     0.73247   0.80749   0.47139   0.00000  Uiso   1.00
C431   C     0.92922   0.87601   0.03178   0.00000  Uiso   1.00
C432   C     0.84051   0.84816   0.47918   0.00000  Uiso   1.00
C433   C     0.82180   0.83317   0.02373   0.00000  Uiso   1.00
C434   C     0.75777   0.80746   0.04131   0.00000  Uiso   1.00
C435   C     0.90225   0.87914   0.46285   0.00000  Uiso   1.00
C436   C     0.71346   0.79473   0.01575   0.00000  Uiso   1.00
C437   C     0.94633   0.89288   0.48848   0.00000  Uiso   1.00
C438   C     0.85684   0.98934   0.25191   0.00000  Uiso   1.00
C439   C     0.80984   0.67732   0.24806   0.00000  Uiso   1.00
C440   C     0.79467   0.82962   0.33318   0.00000  Uiso   1.00
Cu441  Cu    0.77404   0.82775   0.24516   0.00000  Uiso   1.00
Cu442  Cu    0.89263   0.83892   0.25484   0.00000  Uiso   1.00
H443   H     0.80833   0.80372   0.10812   0.00000  Uiso   1.00
H444   H     0.76454   0.98688   0.24442   0.00000  Uiso   1.00
H445   H     0.66799   0.87172   0.28444   0.00000  Uiso   1.00
H446   H     0.99868   0.79495   0.21556   0.00000  Uiso   1.00
H447   H     0.97875   0.76274   0.06498   0.00000  Uiso   1.00
H448   H     0.67848   0.93046   0.44056   0.00000  Uiso   1.00
H449   H     0.86350   0.85480   0.39029   0.00000  Uiso   1.00
H450   H     0.99000   0.88819   0.12146   0.00000  Uiso   1.00
H451   H     0.67289   0.79280   0.38110   0.00000  Uiso   1.00
H452   H     0.97238   0.77643   0.45924   0.00000  Uiso   1.00
H453   H     0.68732   0.91297   0.04498   0.00000  Uiso   1.00
H454   H     0.73970   0.79789   0.07534   0.00000  Uiso   1.00
H455   H     0.91715   0.89519   0.43051   0.00000  Uiso   1.00
H456   H     0.90214   0.67979   0.25555   0.00000  Uiso   1.00
N457   N     0.98173   0.84735   0.26212   0.00000  Uiso   1.00
N458   N     0.68494   0.81932   0.23788   0.00000  Uiso   1.00
O459   O     0.79482   0.90476   0.24686   0.00000  Uiso   1.00
O460   O     0.67321   0.92297   0.47175   0.00000  Uiso   1.00
O461   O     0.87185   0.76191   0.25314   0.00000  Uiso   1.00
O462   O     0.89496   0.91420   0.25503   0.00000  Uiso   1.00
O463   O     0.77171   0.75247   0.24497   0.00000  Uiso   1.00
O464   O     0.75518   0.82597   0.30854   0.00000  Uiso   1.00
O465   O     0.91149   0.84070   0.19146   0.00000  Uiso   1.00
O466   O     0.85532   0.83540   0.31671   0.00000  Uiso   1.00
O467   O     0.81134   0.83126   0.18329   0.00000  Uiso   1.00
O468   O     0.98466   0.76907   0.03350   0.00000  Uiso   1.00
C469   C     0.18170   0.26672   0.75129   0.00000  Uiso   1.00
C470   C     0.20536   0.17082   0.66688   0.00000  Uiso   1.00
C471   C     0.10445   0.15879   0.88098   0.00000  Uiso   1.00
C472   C     0.22887   0.17896   0.61954   0.00000  Uiso   1.00
C473   C     0.02170   0.12795   0.94530   0.00000  Uiso   1.00
C474   C     0.30657   0.22317   0.55791   0.00000  Uiso   1.00
C475   C     0.04074   0.13748   0.90057   0.00000  Uiso   1.00
C476   C     0.28967   0.20841   0.60152   0.00000  Uiso   1.00
C477   C     0.14800   0.17337   0.90693   0.00000  Uiso   1.00
C478   C     0.18624   0.16245   0.59318   0.00000  Uiso   1.00
C479   C     0.12970   0.16617   0.95250   0.00000  Uiso   1.00
C480   C     0.15164   0.06661   0.74869   0.00000  Uiso   1.00
C481   C     0.20063   0.17893   0.54962   0.00000  Uiso   1.00
C482   C     0.06580   0.14083   0.97139   0.00000  Uiso   1.00
C483   C     0.26255   0.20935   0.53178   0.00000  Uiso   1.00
C484   C     0.17384   0.18149   0.97918   0.00000  Uiso   1.00
C485   C     0.15513   0.16650   0.52373   0.00000  Uiso   1.00
C486   C     0.09110   0.14080   0.54131   0.00000  Uiso   1.00
C487   C     0.23558   0.21247   0.96285   0.00000  Uiso   1.00
C488   C     0.04679   0.12806   0.51575   0.00000  Uiso   1.00
C489   C     0.27966   0.22621   0.98848   0.00000  Uiso   1.00
C490   C     0.19017   0.32268   0.75191   0.00000  Uiso   1.00
C491   C     0.14318   0.01066   0.74806   0.00000  Uiso   1.00
C492   C     0.12800   0.16296   0.83318   0.00000  Uiso   1.00
Cu493  Cu    0.10737   0.16108   0.74516   0.00000  Uiso   1.00
Cu494  Cu    0.22596   0.17225   0.75484   0.00000  Uiso   1.00
H495   H     0.14167   0.13705   0.60812   0.00000  Uiso   1.00
H496   H     0.09788   0.32021   0.74442   0.00000  Uiso   1.00
H497   H     0.00132   0.20505   0.78444   0.00000  Uiso   1.00
H498   H     0.33201   0.12828   0.71556   0.00000  Uiso   1.00
H499   H     0.31209   0.09608   0.56498   0.00000  Uiso   1.00
H500   H     0.01182   0.26379   0.94056   0.00000  Uiso   1.00
H501   H     0.19683   0.18814   0.89029   0.00000  Uiso   1.00
H502   H     0.32334   0.22153   0.62146   0.00000  Uiso   1.00
H503   H     0.00623   0.12613   0.88110   0.00000  Uiso   1.00
H504   H     0.30571   0.10976   0.95924   0.00000  Uiso   1.00
H505   H     0.02066   0.24631   0.54498   0.00000  Uiso   1.00
H506   H     0.07304   0.13122   0.57534   0.00000  Uiso   1.00
H507   H     0.25048   0.22852   0.93051   0.00000  Uiso   1.00
H508   H     0.23547   0.01312   0.75555   0.00000  Uiso   1.00
N509   N     0.31506   0.18068   0.76212   0.00000  Uiso   1.00
N510   N     0.01827   0.15265   0.73788   0.00000  Uiso   1.00
O511   O     0.12815   0.23809   0.74686   0.00000  Uiso   1.00
O512   O     0.00654   0.25631   0.97175   0.00000  Uiso   1.00
O513   O     0.20518   0.09524   0.75314   0.00000  Uiso   1.00
O514   O     0.22829   0.24753   0.75503   0.00000  Uiso   1.00
O515   O     0.10504   0.08580   0.74497   0.00000  Uiso   1.00
O516   O     0.08851   0.15930   0.80854   0.00000  Uiso   1.00
O517   O     0.24482   0.17403   0.69146   0.00000  Uiso   1.00
O518   O     0.18866   0.16874   0.81671   0.00000  Uiso   1.00
O519   O     0.14468   0.16460   0.68329   0.00000  Uiso   1.00
O520   O     0.31800   0.10240   0.53350   0.00000  Uiso   1.00
C521   C     0.51503   0.26672   0.75129   0.00000  Uiso   1.00
C522   C     0.53869   0.17082   0.66688   0.00000  Uiso   1.00
C523   C     0.43778   0.15879   0.88098   0.00000  Uiso   1.00
C524   C     0.56221   0.17896   0.61954   0.00000  Uiso   1.00
C525   C     0.35503   0.12795   0.94530   0.00000  Uiso   1.00
C526   C     0.63991   0.22317   0.55791   0.00000  Uiso   1.00
C527   C     0.37408   0.13748   0.90057   0.00000  Uiso   1.00
C528   C     0.62301   0.20841   0.60152   0.00000  Uiso   1.00
C529   C     0.48133   0.17337   0.90693   0.00000  Uiso   1.00
C530   C     0.51958   0.16245   0.59318   0.00000  Uiso   1.00
C531   C     0.46304   0.16617   0.95250   0.00000  Uiso   1.00
C532   C     0.48498   0.06661   0.74869   0.00000  Uiso   1.00
C533   C     0.53397   0.17893   0.54962   0.00000  Uiso   1.00
C534   C     0.39914   0.14083   0.97139   0.00000  Uiso   1.00
C535   C     0.59588   0.20935   0.53178   0.00000  Uiso   1.00
C536   C     0.50718   0.18149   0.97918   0.00000  Uiso   1.00
C537   C     0.48847   0.16650   0.52373   0.00000  Uiso   1.00
C538   C     0.42443   0.14080   0.54131   0.00000  Uiso   1.00
C539   C     0.56891   0.21247   0.96285   0.00000  Uiso   1.00
C540   C     0.38013   0.12806   0.51575   0.00000  Uiso   1.00
C541   C     0.61299   0.22621   0.98848   0.00000  Uiso   1.00
C542   C     0.52351   0.32268   0.75191   0.00000  Uiso   1.00
C543   C     0.47651   0.01066   0.74806   0.00000  Uiso   1.00
C544   C     0.46134   0.16296   0.83318   0.00000  Uiso   1.00
Cu545  Cu    0.44071   0.16108   0.74516   0.00000  Uiso   1.00
Cu546  Cu    0.55929   0.17225   0.75484   0.00000  Uiso   1.00
H547   H     0.47500   0.13705   0.60812   0.00000  Uiso   1.00
H548   H     0.43121   0.32021   0.74442   0.00000  Uiso   1.00
H549   H     0.33465   0.20505   0.78444   0.00000  Uiso   1.00
H550   H     0.66535   0.12828   0.71556   0.00000  Uiso   1.00
H551   H     0.64542   0.09608   0.56498   0.00000  Uiso   1.00
H552   H     0.34515   0.26379   0.94056   0.00000  Uiso   1.00
H553   H     0.53017   0.18814   0.89029   0.00000  Uiso   1.00
H554   H     0.65667   0.22153   0.62146   0.00000  Uiso   1.00
H555   H     0.33956   0.12613   0.88110   0.00000  Uiso   1.00
H556   H     0.63904   0.10976   0.95924   0.00000  Uiso   1.00
H557   H     0.35399   0.24631   0.54498   0.00000  Uiso   1.00
H558   H     0.40637   0.13122   0.57534   0.00000  Uiso   1.00
H559   H     0.58382   0.22852   0.93051   0.00000  Uiso   1.00
H560   H     0.56881   0.01312   0.75555   0.00000  Uiso   1.00
N561   N     0.64839   0.18068   0.76212   0.00000  Uiso   1.00
N562   N     0.35161   0.15265   0.73788   0.00000  Uiso   1.00
O563   O     0.46148   0.23809   0.74686   0.00000  Uiso   1.00
O564   O     0.33988   0.25631   0.97175   0.00000  Uiso   1.00
O565   O     0.53852   0.09524   0.75314   0.00000  Uiso   1.00
O566   O     0.56163   0.24753   0.75503   0.00000  Uiso   1.00
O567   O     0.43837   0.08580   0.74497   0.00000  Uiso   1.00
O568   O     0.42185   0.15930   0.80854   0.00000  Uiso   1.00
O569   O     0.57815   0.17403   0.69146   0.00000  Uiso   1.00
O570   O     0.52199   0.16874   0.81671   0.00000  Uiso   1.00
O571   O     0.47801   0.16460   0.68329   0.00000  Uiso   1.00
O572   O     0.65133   0.10240   0.53350   0.00000  Uiso   1.00
C573   C     0.84836   0.26672   0.75129   0.00000  Uiso   1.00
C574   C     0.87203   0.17082   0.66688   0.00000  Uiso   1.00
C575   C     0.77111   0.15879   0.88098   0.00000  Uiso   1.00
C576   C     0.89554   0.17896   0.61954   0.00000  Uiso   1.00
C577   C     0.68837   0.12795   0.94530   0.00000  Uiso   1.00
C578   C     0.97324   0.22317   0.55791   0.00000  Uiso   1.00
C579   C     0.70741   0.13748   0.90057   0.00000  Uiso   1.00
C580   C     0.95634   0.20841   0.60152   0.00000  Uiso   1.00
C581   C     0.81466   0.17337   0.90693   0.00000  Uiso   1.00
C582   C     0.85291   0.16245   0.59318   0.00000  Uiso   1.00
C583   C     0.79637   0.16617   0.95250   0.00000  Uiso   1.00
C584   C     0.81831   0.06661   0.74869   0.00000  Uiso   1.00
C585   C     0.86730   0.17893   0.54962   0.00000  Uiso   1.00
C586   C     0.73247   0.14083   0.97139   0.00000  Uiso   1.00
C587   C     0.92922   0.20935   0.53178   0.00000  Uiso   1.00
C588   C     0.84051   0.18149   0.97918   0.00000  Uiso   1.00
C589   C     0.82180   0.16650   0.52373   0.00000  Uiso   1.00
C590   C     0.75777   0.14080   0.54131   0.00000  Uiso   1.00
C591   C     0.90225   0.21247   0.96285   0.00000  Uiso   1.00
C592   C     0.71346   0.12806   0.51575   0.00000  Uiso   1.00
C593   C     0.94633   0.22621   0.98848   0.00000  Uiso   1.00
C594   C     0.85684   0.32268   0.75191   0.00000  Uiso   1.00
C595   C     0.80984   0.01066   0.74806   0.00000  Uiso   1.00
C596   C     0.79467   0.16296   0.83318   0.00000  Uiso   1.00
Cu597  Cu    0.77404   0.16108   0.74516   0.00000  Uiso   1.00
Cu598  Cu    0.89263   0.17225   0.75484   0.00000  Uiso   1.00
H599   H     0.80833   0.13705   0.60812   0.00000  Uiso   1.00
H600   H     0.76454   0.32021   0.74442   0.00000  Uiso   1.00
H601   H     0.66799   0.20505   0.78444   0.00000  Uiso   1.00
H602   H     0.99868   0.12828   0.71556   0.00000  Uiso   1.00
H603   H     0.97875   0.09608   0.56498   0.00000  Uiso   1.00
H604   H     0.67848   0.26379   0.94056   0.00000  Uiso   1.00
H605   H     0.86350   0.18814   0.89029   0.00000  Uiso   1.00
H606   H     0.99000   0.22153   0.62146   0.00000  Uiso   1.00
H607   H     0.67289   0.12613   0.88110   0.00000  Uiso   1.00
H608   H     0.97238   0.10976   0.95924   0.00000  Uiso   1.00
H609   H     0.68732   0.24631   0.54498   0.00000  Uiso   1.00
H610   H     0.73970   0.13122   0.57534   0.00000  Uiso   1.00
H611   H     0.91715   0.22852   0.93051   0.00000  Uiso   1.00
H612   H     0.90214   0.01312   0.75555   0.00000  Uiso   1.00
N613   N     0.98173   0.18068   0.76212   0.00000  Uiso   1.00
N614   N     0.68494   0.15265   0.73788   0.00000  Uiso   1.00
O615   O     0.79482   0.23809   0.74686   0.00000  Uiso   1.00
O616   O     0.67321   0.25631   0.97175   0.00000  Uiso   1.00
O617   O     0.87185   0.09524   0.75314   0.00000  Uiso   1.00
O618   O     0.89496   0.24753   0.75503   0.00000  Uiso   1.00
O619   O     0.77171   0.08580   0.74497   0.00000  Uiso   1.00
O620   O     0.75518   0.15930   0.80854   0.00000  Uiso   1.00
O621   O     0.91149   0.17403   0.69146   0.00000  Uiso   1.00
O622   O     0.85532   0.16874   0.81671   0.00000  Uiso   1.00
O623   O     0.81134   0.16460   0.68329   0.00000  Uiso   1.00
O624   O     0.98466   0.10240   0.53350   0.00000  Uiso   1.00
C625   C     0.18170   0.60005   0.75129   0.00000  Uiso   1.00
C626   C     0.20536   0.50415   0.66688   0.00000  Uiso   1.00
C627   C     0.10445   0.49212   0.88098   0.00000  Uiso   1.00
C628   C     0.22887   0.51230   0.61954   0.00000  Uiso   1.00
C629   C     0.02170   0.46128   0.94530   0.00000  Uiso   1.00
C630   C     0.30657   0.55650   0.55791   0.00000  Uiso   1.00
C631   C     0.04074   0.47082   0.90057   0.00000  Uiso   1.00
C632   C     0.28967   0.54175   0.60152   0.00000  Uiso   1.00
C633   C     0.14800   0.50670   0.90693   0.00000  Uiso   1.00
C634   C     0.18624   0.49579   0.59318   0.00000  Uiso   1.00
C635   C     0.12970   0.49950   0.95250   0.00000  Uiso   1.00
C636   C     0.15164   0.39995   0.74869   0.00000  Uiso   1.00
C637   C     0.20063   0.51226   0.54962   0.00000  Uiso   1.00
C638   C     0.06580   0.47416   0.97139   0.00000  Uiso   1.00
C639   C     0.26255   0.54268   0.53178   0.00000  Uiso   1.00
C640   C     0.17384   0.51482   0.97918   0.00000  Uiso   1.00
C641   C     0.15513   0.49983   0.52373   0.00000  Uiso   1.00
C642   C     0.09110   0.47413   0.54131   0.00000  Uiso   1.00
C643   C     0.23558   0.54580   0.96285   0.00000  Uiso   1.00
C644   C     0.04679   0.46139   0.51575   0.00000  Uiso   1.00
C645   C     0.27966   0.55955   0.98848   0.00000  Uiso   1.00
C646   C     0.19017   0.65601   0.75191   0.00000  Uiso   1.00
C647   C     0.14318   0.34399   0.74806   0.00000  Uiso   1.00
C648   C     0.12800   0.49629   0.83318   0.00000  Uiso   1.00
Cu649  Cu    0.10737   0.49441   0.74516   0.00000  Uiso   1.00
Cu650  Cu    0.22596   0.50559   0.75484   0.00000  Uiso   1.00
H651   H     0.14167   0.47038   0.60812   0.00000  Uiso   1.00
H652   H     0.09788   0.65354   0.74442   0.00000  Uiso   1.00
H653   H     0.00132   0.53838   0.78444   0.00000  Uiso   1.00
H654   H     0.33201   0.46161   0.71556   0.00000  Uiso   1.00
H655   H     0.31209   0.42941   0.56498   0.00000  Uiso   1.00
H656   H     0.01182   0.59712   0.94056   0.00000  Uiso   1.00
H657   H     0.19683   0.52147   0.89029   0.00000  Uiso   1.00
H658   H     0.32334   0.55486   0.62146   0.00000  Uiso   1.00
H659   H     0.00623   0.45947   0.88110   0.00000  Uiso   1.00
H660   H     0.30571   0.44309   0.95924   0.00000  Uiso   1.00
H661   H     0.02066   0.57964   0.54498   0.00000  Uiso   1.00
H662   H     0.07304   0.46455   0.57534   0.00000  Uiso   1.00
H663   H     0.25048   0.56185   0.93051   0.00000  Uiso   1.00
H664   H     0.23547   0.34645   0.75555   0.00000  Uiso   1.00
N665   N     0.31506   0.51401   0.76212   0.00000  Uiso   1.00
N666   N     0.01827   0.48599   0.73788   0.00000  Uiso   1.00
O667   O     0.12815   0.57142   0.74686   0.00000  Uiso   1.00
O668   O     0.00654   0.58964   0.97175   0.00000  Uiso   1.00
O669   O     0.20518   0.42858   0.75314   0.00000  Uiso   1.00
O670   O     0.22829   0.58086   0.75503   0.00000  Uiso   1.00
O671   O     0.10504   0.41914   0.74497   0.00000  Uiso   1.00
O672   O     0.08851   0.49263   0.80854   0.00000  Uiso   1.00
O673   O     0.24482   0.50737   0.69146   0.00000  Uiso   1.00
O674   O     0.18866   0.50207   0.81671   0.00000  Uiso   1.00
O675   O     0.14468   0.49793   0.68329   0.00000  Uiso   1.00
O676   O     0.31800   0.43574   0.53350   0.00000  Uiso   1.00
C677   C     0.51503   0.60005   0.75129   0.00000  Uiso   1.00
C678   C     0.53869   0.50415   0.66688   0.00000  Uiso   1.00
C679   C     0.43778   0.49212   0.88098   0.00000  Uiso   1.00
C680   C     0.56221   0.51230   0.61954   0.00000  Uiso   1.00
C681   C     0.35503   0.46128   0.94530   0.00000  Uiso   1.00
C682   C     0.63991   0.55650   0.55791   0.00000  Uiso   1.00
C683   C     0.37408   0.47082   0.90057   0.00000  Uiso   1.00
C684   C     0.62301   0.54175   0.60152   0.00000  Uiso   1.00
C685   C     0.48133   0.50670   0.90693   0.00000  Uiso   1.00
C686   C     0.51958   0.49579   0.59318   0.00000  Uiso   1.00
C687   C     0.46304   0.49950   0.95250   0.00000  Uiso   1.00
C688   C     0.48498   0.39995   0.74869   0.00000  Uiso   1.00
C689   C     0.53397   0.51226   0.54962   0.00000  Uiso   1.00
C690   C     0.39914   0.47416   0.97139   0.00000  Uiso   1.00
C691   C     0.59588   0.54268   0.53178   0.00000  Uiso   1.00
C692   C     0.50718   0.51482   0.97918   0.00000  Uiso   1.00
C693   C     0.48847   0.49983   0.52373   0.00000  Uiso   1.00
C694   C     0.42443   0.47413   0.54131   0.00000  Uiso   1.00
C695   C     0.56891   0.54580   0.96285   0.00000  Uiso   1.00
C696   C     0.38013   0.46139   0.51575   0.00000  Uiso   1.00
C697   C     0.61299   0.55955   0.98848   0.00000  Uiso   1.00
C698   C     0.52351   0.65601   0.75191   0.00000  Uiso   1.00
C699   C     0.47651   0.34399   0.74806   0.00000  Uiso   1.00
C700   C     0.46134   0.49629   0.83318   0.00000  Uiso   1.00
Cu701  Cu    0.44071   0.49441   0.74516   0.00000  Uiso   1.00
Cu702  Cu    0.55929   0.50559   0.75484   0.00000  Uiso   1.00
H703   H     0.47500   0.47038   0.60812   0.00000  Uiso   1.00
H704   H     0.43121   0.65354   0.74442   0.00000  Uiso   1.00
H705   H     0.33465   0.53838   0.78444   0.00000  Uiso   1.00
H706   H     0.66535   0.46161   0.71556   0.00000  Uiso   1.00
H707   H     0.64542   0.42941   0.56498   0.00000  Uiso   1.00
H708   H     0.34515   0.59712   0.94056   0.00000  Uiso   1.00
H709   H     0.53017   0.52147   0.89029   0.00000  Uiso   1.00
H710   H     0.65667   0.55486   0.62146   0.00000  Uiso   1.00
H711   H     0.33956   0.45947   0.88110   0.00000  Uiso   1.00
H712   H     0.63904   0.44309   0.95924   0.00000  Uiso   1.00
H713   H     0.35399   0.57964   0.54498   0.00000  Uiso   1.00
H714   H     0.40637   0.46455   0.57534   0.00000  Uiso   1.00
H715   H     0.58382   0.56185   0.93051   0.00000  Uiso   1.00
H716   H     0.56881   0.34645   0.75555   0.00000  Uiso   1.00
N717   N     0.64839   0.51401   0.76212   0.00000  Uiso   1.00
N718   N     0.35161   0.48599   0.73788   0.00000  Uiso   1.00
O719   O     0.46148   0.57142   0.74686   0.00000  Uiso   1.00
O720   O     0.33988   0.58964   0.97175   0.00000  Uiso   1.00
O721   O     0.53852   0.42858   0.75314   0.00000  Uiso   1.00
O722   O     0.56163   0.58086   0.75503   0.00000  Uiso   1.00
O723   O     0.43837   0.41914   0.74497   0.00000  Uiso   1.00
O724   O     0.42185   0.49263   0.80854   0.00000  Uiso   1.00
O725   O     0.57815   0.50737   0.69146   0.00000  Uiso   1.00
O726   O     0.52199   0.50207   0.81671   0.00000  Uiso   1.00
O727   O     0.47801   0.49793   0.68329   0.00000  Uiso   1.00
O728   O     0.65133   0.43574   0.53350   0.00000  Uiso   1.00
C729   C     0.84836   0.60005   0.75129   0.00000  Uiso   1.00
C730   C     0.87203   0.50415   0.66688   0.00000  Uiso   1.00
C731   C     0.77111   0.49212   0.88098   0.00000  Uiso   1.00
C732   C     0.89554   0.51230   0.61954   0.00000  Uiso   1.00
C733   C     0.68837   0.46128   0.94530   0.00000  Uiso   1.00
C734   C     0.97324   0.55650   0.55791   0.00000  Uiso   1.00
C735   C     0.70741   0.47082   0.90057   0.00000  Uiso   1.00
C736   C     0.95634   0.54175   0.60152   0.00000  Uiso   1.00
C737   C     0.81466   0.50670   0.90693   0.00000  Uiso   1.00
C738   C     0.85291   0.49579   0.59318   0.00000  Uiso   1.00
C739   C     0.79637   0.49950   0.95250   0.00000  Uiso   1.00
C740   C     0.81831   0.39995   0.74869   0.00000  Uiso   1.00
C741   C     0.86730   0.51226   0.54962   0.00000  Uiso   1.00
C742   C     0.73247   0.47416   0.97139   0.00000  Uiso   1.00
C743   C     0.92922   0.54268   0.53178   0.00000  Uiso   1.00
C744   C     0.84051   0.51482   0.97918   0.00000  Uiso   1.00
C745   C     0.82180   0.49983   0.52373   0.00000  Uiso   1.00
C746   C     0.75777   0.47413   0.54131   0.00000  Uiso   1.00
C747   C     0.90225   0.54580   0.96285   0.00000  Uiso   1.00
C748   C     0.71346   0.46139   0.51575   0.00000  Uiso   1.00
C749   C     0.94633   0.55955   0.98848   0.00000  Uiso   1.00
C750   C     0.85684   0.65601   0.75191   0.00000  Uiso   1.00
C751   C     0.80984   0.34399   0.74806   0.00000  Uiso   1.00
C752   C     0.79467   0.49629   0.83318   0.00000  Uiso   1.00
Cu753  Cu    0.77404   0.49441   0.74516   0.00000  Uiso   1.00
Cu754  Cu    0.89263   0.50559   0.75484   0.00000  Uiso   1.00
H755   H     0.80833   0.47038   0.60812   0.00000  Uiso   1.00
H756   H     0.76454   0.65354   0.74442   0.00000  Uiso   1.00
H757   H     0.66799   0.53838   0.78444   0.00000  Uiso   1.00
H758   H     0.99868   0.46161   0.71556   0.00000  Uiso   1.00
H759   H     0.97875   0.42941   0.56498   0.00000  Uiso   1.00
H760   H     0.67848   0.59712   0.94056   0.00000  Uiso   1.00
H761   H     0.86350   0.52147   0.89029   0.00000  Uiso   1.00
H762   H     0.99000   0.55486   0.62146   0.00000  Uiso   1.00
H763   H     0.67289   0.45947   0.88110   0.00000  Uiso   1.00
H764   H     0.97238   0.44309   0.95924   0.00000  Uiso   1.00
H765   H     0.68732   0.57964   0.54498   0.00000  Uiso   1.00
H766   H     0.73970   0.46455   0.57534   0.00000  Uiso   1.00
H767   H     0.91715   0.56185   0.93051   0.00000  Uiso   1.00
H768   H     0.90214   0.34645   0.75555   0.00000  Uiso   1.00
N769   N     0.98173   0.51401   0.76212   0.00000  Uiso   1.00
N770   N     0.68494   0.48599   0.73788   0.00000  Uiso   1.00
O771   O     0.79482   0.57142   0.74686   0.00000  Uiso   1.00
O772   O     0.67321   0.58964   0.97175   0.00000  Uiso   1.00
O773   O     0.87185   0.42858   0.75314   0.00000  Uiso   1.00
O774   O     0.89496   0.58086   0.75503   0.00000  Uiso   1.00
O775   O     0.77171   0.41914   0.74497   0.00000  Uiso   1.00
O776   O     0.75518   0.49263   0.80854   0.00000  Uiso   1.00
O777   O     0.91149   0.50737   0.69146   0.00000  Uiso   1.00
O778   O     0.85532   0.50207   0.81671   0.00000  Uiso   1.00
O779   O     0.81134   0.49793   0.68329   0.00000  Uiso   1.00
O780   O     0.98466   0.43574   0.53350   0.00000  Uiso   1.00
C781   C     0.18170   0.93339   0.75129   0.00000  Uiso   1.00
C782   C     0.20536   0.83749   0.66688   0.00000  Uiso   1.00
C783   C     0.10445   0.82546   0.88098   0.00000  Uiso   1.00
C784   C     0.22887   0.84563   0.61954   0.00000  Uiso   1.00
C785   C     0.02170   0.79462   0.94530   0.00000  Uiso   1.00
C786   C     0.30657   0.88983   0.55791   0.00000  Uiso   1.00
C787   C     0.04074   0.80415   0.90057   0.00000  Uiso   1.00
C788   C     0.28967   0.87508   0.60152   0.00000  Uiso   1.00
C789   C     0.14800   0.84004   0.90693   0.00000  Uiso   1.00
C790   C     0.18624   0.82912   0.59318   0.00000  Uiso   1.00
C791   C     0.12970   0.83283   0.95250   0.00000  Uiso   1.00
C792   C     0.15164   0.73328   0.74869   0.00000  Uiso   1.00
C793   C     0.20063   0.84559   0.54962   0.00000  Uiso   1.00
C794   C     0.06580   0.80749   0.97139   0.00000  Uiso   1.00
C795   C     0.26255   0.87601   0.53178   0.00000  Uiso   1.00
C796   C     0.17384   0.84816   0.97918   0.00000  Uiso   1.00
C797   C     0.15513   0.83317   0.52373   0.00000  Uiso   1.00
C798   C     0.09110   0.80746   0.54131   0.00000  Uiso   1.00
C799   C     0.23558   0.87914   0.96285   0.00000  Uiso   1.00
C800   C     0.04679   0.79473   0.51575   0.00000  Uiso   1.00
C801   C     0.27966   0.89288   0.98848   0.00000  Uiso   1.00
C802   C     0.19017   0.98934   0.75191   0.00000  Uiso   1.00
C803   C     0.14318   0.67732   0.74806   0.00000  Uiso   1.00
C804   C     0.12800   0.82962   0.83318   0.00000  Uiso   1.00
Cu805  Cu    0.10737   0.82775   0.74516   0.00000  Uiso   1.00
Cu806  Cu    0.22596   0.83892   0.75484   0.00000  Uiso   1.00
H807   H     0.14167   0.80372   0.60812   0.00000  Uiso   1.00
H808   H     0.09788   0.98688   0.74442   0.00000  Uiso   1.00
H809   H     0.00132   0.87172   0.78444   0.00000  Uiso   1.00
H810   H     0.33201   0.79495   0.71556   0.00000  Uiso   1.00
H811   H     0.31209   0.76274   0.56498   0.00000  Uiso   1.00
H812   H     0.01182   0.93046   0.94056   0.00000  Uiso   1.00
H813   H     0.19683   0.85480   0.89029   0.00000  Uiso   1.00
H814   H     0.32334   0.88819   0.62146   0.00000  Uiso   1.00
H815   H     0.00623   0.79280   0.88110   0.00000  Uiso   1.00
H816   H     0.30571   0.77643   0.95924   0.00000  Uiso   1.00
H817   H     0.02066   0.91297   0.54498   0.00000  Uiso   1.00
H818   H     0.07304   0.79789   0.57534   0.00000  Uiso   1.00
H819   H     0.25048   0.89519   0.93051   0.00000  Uiso   1.00
H820   H     0.23547   0.67979   0.75555   0.00000  Uiso   1.00
N821   N     0.31506   0.84735   0.76212   0.00000  Uiso   1.00
N822   N     0.01827   0.81932   0.73788   0.00000  Uiso   1.00
O823   O     0.12815   0.90476   0.74686   0.00000  Uiso   1.00
O824   O     0.00654   0.92297   0.97175   0.00000  Uiso   1.00
O825   O     0.20518   0.76191   0.75314   0.00000  Uiso   1.00
O826   O     0.22829   0.91420   0.75503   0.00000  Uiso   1.00
O827   O     0.10504   0.75247   0.74497   0.00000  Uiso   1.00
O828   O     0.08851   0.82597   0.80854   0.00000  Uiso   1.00
O829   O     0.24482   0.84070   0.69146   0.00000  Uiso   1.00
O830   O     0.18866   0.83540   0.81671   0.00000  Uiso   1.00
O831   O     0.14468   0.83126   0.68329   0.00000  Uiso   1.00
O832   O     0.31800   0.76907   0.53350   0.00000  Uiso   1.00
C833   C     0.51503   0.93339   0.75129   0.00000  Uiso   1.00
C834   C     0.53869   0.83749   0.66688   0.00000  Uiso   1.00
C835   C     0.43778   0.82546   0.88098   0.00000  Uiso   1.00
C836   C     0.56221   0.84563   0.61954   0.00000  Uiso   1.00
C837   C     0.35503   0.79462   0.94530   0.00000  Uiso   1.00
C838   C     0.63991   0.88983   0.55791   0.00000  Uiso   1.00
C839   C     0.37408   0.80415   0.90057   0.00000  Uiso   1.00
C840   C     0.62301   0.87508   0.60152   0.00000  Uiso   1.00
C841   C     0.48133   0.84004   0.90693   0.00000  Uiso   1.00
C842   C     0.51958   0.82912   0.59318   0.00000  Uiso   1.00
C843   C     0.46304   0.83283   0.95250   0.00000  Uiso   1.00
C844   C     0.48498   0.73328   0.74869   0.00000  Uiso   1.00
C845   C     0.53397   0.84559   0.54962   0.00000  Uiso   1.00
C846   C     0.39914   0.80749   0.97139   0.00000  Uiso   1.00
C847   C     0.59588   0.87601   0.53178   0.00000  Uiso   1.00
C848   C     0.50718   0.84816   0.97918   0.00000  Uiso   1.00
C849   C     0.48847   0.83317   0.52373   0.00000  Uiso   1.00
C850   C     0.42443   0.80746   0.54131   0.00000  Uiso   1.00
C851   C     0.56891   0.87914   0.96285   0.00000  Uiso   1.00
C852   C     0.38013   0.79473   0.51575   0.00000  Uiso   1.00
C853   C     0.61299   0.89288   0.98848   0.00000  Uiso   1.00
C854   C     0.52351   0.98934   0.75191   0.00000  Uiso   1.00
C855   C     0.47651   0.67732   0.74806   0.00000  Uiso   1.00
C856   C     0.46134   0.82962   0.83318   0.00000  Uiso   1.00
Cu857  Cu    0.44071   0.82775   0.74516   0.00000  Uiso   1.00
Cu858  Cu    0.55929   0.83892   0.75484   0.00000  Uiso   1.00
H859   H     0.47500   0.80372   0.60812   0.00000  Uiso   1.00
H860   H     0.43121   0.98688   0.74442   0.00000  Uiso   1.00
H861   H     0.33465   0.87172   0.78444   0.00000  Uiso   1.00
H862   H     0.66535   0.79495   0.71556   0.00000  Uiso   1.00
H863   H     0.64542   0.76274   0.56498   0.00000  Uiso   1.00
H864   H     0.34515   0.93046   0.94056   0.00000  Uiso   1.00
H865   H     0.53017   0.85480   0.89029   0.00000  Uiso   1.00
H866   H     0.65667   0.88819   0.62146   0.00000  Uiso   1.00
H867   H     0.33956   0.79280   0.88110   0.00000  Uiso   1.00
H868   H     0.63904   0.77643   0.95924   0.00000  Uiso   1.00
H869   H     0.35399   0.91297   0.54498   0.00000  Uiso   1.00
H870   H     0.40637   0.79789   0.57534   0.00000  Uiso   1.00
H871   H     0.58382   0.89519   0.93051   0.00000  Uiso   1.00
H872   H     0.56881   0.67979   0.75555   0.00000  Uiso   1.00
N873   N     0.64839   0.84735   0.76212   0.00000  Uiso   1.00
N874   N     0.35161   0.81932   0.73788   0.00000  Uiso   1.00
O875   O     0.46148   0.90476   0.74686   0.00000  Uiso   1.00
O876   O     0.33988   0.92297   0.97175   0.00000  Uiso   1.00
O877   O     0.53852   0.76191   0.75314   0.00000  Uiso   1.00
O878   O     0.56163   0.91420   0.75503   0.00000  Uiso   1.00
O879   O     0.43837   0.75247   0.74497   0.00000  Uiso   1.00
O880   O     0.42185   0.82597   0.80854   0.00000  Uiso   1.00
O881   O     0.57815   0.84070   0.69146   0.00000  Uiso   1.00
O882   O     0.52199   0.83540   0.81671   0.00000  Uiso   1.00
O883   O     0.47801   0.83126   0.68329   0.00000  Uiso   1.00
O884   O     0.65133   0.76907   0.53350   0.00000  Uiso   1.00
C885   C     0.84836   0.93339   0.75129   0.00000  Uiso   1.00
C886   C     0.87203   0.83749   0.66688   0.00000  Uiso   1.00
C887   C     0.77111   0.82546   0.88098   0.00000  Uiso   1.00
C888   C     0.89554   0.84563   0.61954   0.00000  Uiso   1.00
C889   C     0.68837   0.79462   0.94530   0.00000  Uiso   1.00
C890   C     0.97324   0.88983   0.55791   0.00000  Uiso   1.00
C891   C     0.70741   0.80415   0.90057   0.00000  Uiso   1.00
C892   C     0.95634   0.87508   0.60152   0.00000  Uiso   1.00
C893   C     0.81466   0.84004   0.90693   0.00000  Uiso   1.00
C894   C     0.85291   0.82912   0.59318   0.00000  Uiso   1.00
C895   C     0.79637   0.83283   0.95250   0.00000  Uiso   1.00
C896   C     0.81831   0.73328   0.74869   0.00000  Uiso   1.00
C897   C     0.86730   0.84559   0.54962   0.00000  Uiso   1.00
C898   C     0.73247   0.80749   0.97139   0.00000  Uiso   1.00
C899   C     0.92922   0.87601   0.53178   0.00000  Uiso   1.00
C900   C     0.84051   0.84816   0.97918   0.00000  Uiso   1.00
C901   C     0.82180   0.83317   0.52373   0.00000  Uiso   1.00
C902   C     0.75777   0.80746   0.54131   0.00000  Uiso   1.00
C903   C     0.90225   0.87914   0.96285   0.00000  Uiso   1.00
C904   C     0.71346   0.79473   0.51575   0.00000  Uiso   1.00
C905   C     0.94633   0.89288   0.98848   0.00000  Uiso   1.00
C906   C     0.85684   0.98934   0.75191   0.00000  Uiso   1.00
C907   C     0.80984   0.67732   0.74806   0.00000  Uiso   1.00
C908   C     0.79467   0.82962   0.83318   0.00000  Uiso   1.00
Cu909  Cu    0.77404   0.82775   0.74516   0.00000  Uiso   1.00
Cu910  Cu    0.89263   0.83892   0.75484   0.00000  Uiso   1.00
H911   H     0.80833   0.80372   0.60812   0.00000  Uiso   1.00
H912   H     0.76454   0.98688   0.74442   0.00000  Uiso   1.00
H913   H     0.66799   0.87172   0.78444   0.00000  Uiso   1.00
H914   H     0.99868   0.79495   0.71556   0.00000  Uiso   1.00
H915   H     0.97875   0.76274   0.56498   0.00000  Uiso   1.00
H916   H     0.67848   0.93046   0.94056   0.00000  Uiso   1.00
H917   H     0.86350   0.85480   0.89029   0.00000  Uiso   1.00
H918   H     0.99000   0.88819   0.62146   0.00000  Uiso   1.00
H919   H     0.67289   0.79280   0.88110   0.00000  Uiso   1.00
H920   H     0.97238   0.77643   0.95924   0.00000  Uiso   1.00
H921   H     0.68732   0.91297   0.54498   0.00000  Uiso   1.00
H922   H     0.73970   0.79789   0.57534   0.00000  Uiso   1.00
H923   H     0.91715   0.89519   0.93051   0.00000  Uiso   1.00
H924   H     0.90214   0.67979   0.75555   0.00000  Uiso   1.00
N925   N     0.98173   0.84735   0.76212   0.00000  Uiso   1.00
N926   N     0.68494   0.81932   0.73788   0.00000  Uiso   1.00
O927   O     0.79482   0.90476   0.74686   0.00000  Uiso   1.00
O928   O     0.67321   0.92297   0.97175   0.00000  Uiso   1.00
O929   O     0.87185   0.76191   0.75314   0.00000  Uiso   1.00
O930   O     0.89496   0.91420   0.75503   0.00000  Uiso   1.00
O931   O     0.77171   0.75247   0.74497   0.00000  Uiso   1.00
O932   O     0.75518   0.82597   0.80854   0.00000  Uiso   1.00
O933   O     0.91149   0.84070   0.69146   0.00000  Uiso   1.00
O934   O     0.85532   0.83540   0.81671   0.00000  Uiso   1.00
O935   O     0.81134   0.83126   0.68329   0.00000  Uiso   1.00
O936   O     0.98466   0.76907   0.53350   0.00000  Uiso   1.00
loop_
_geom_bond_atom_site_label_1
_geom_bond_atom_site_label_2
_geom_bond_distance
_geom_bond_site_symmetry_2
_ccdc_geom_bond_type
C1     C22     1.428   .     S
C1     O46     1.286   .     A
C1     O43     1.292   .     A
C2     C4      1.467   .     S
C2     O49     1.302   .     A
C2     O51     1.295   .     A
C3     C9      1.399   .     A
C3     C24     1.470   .     S
C3     C7      1.396   .     A
C4     C8      1.395   .     A
C4     C10     1.398   .     A
C5     C14     1.410   .     A
C5     C7      1.392   .     A
C5     H140    1.083   1_455 S
C6     C8      1.392   .     A
C6     C15     1.411   .     A
C6     H89     1.083   .     S
C7     H35     1.083   .     S
C8     H34     1.083   .     S
C9     H33     1.075   .     S
C9     C11     1.407   .     A
C10    H27     1.075   .     S
C10    C13     1.408   .     A
C11    C14     1.420   .     A
C11    C16     1.428   .     A
C12    C23     1.428   .     S
C12    O47     1.286   .     A
C12    O45     1.292   .     A
C13    C17     1.430   .     A
C13    C15     1.422   .     A
C14    C488    1.399   .     S
C15    C489    1.399   1_554 S
C16    C19     1.416   .     A
C16    C485    1.420   .     S
C17    C18     1.417   .     A
C17    C484    1.420   1_554 S
C18    C20     1.401   .     A
C18    H38     1.074   .     S
C19    H39     1.075   .     S
C19    C21     1.400   .     A
C20    C482    1.399   1_554 S
C20    O156    1.384   1_455 S
C21    C483    1.399   .     S
C21    O96     1.384   .     S
C22    C179    1.328   .     S
C22    H196    1.088   .     S
C23    C334    1.328   1_545 S
C23    H340    1.088   1_545 S
C24    O50     1.296   .     A
C24    O48     1.303   .     A
Cu25   N42     2.020   .     S
Cu25   O51     1.919   .     S
Cu25   O47     1.952   .     S
Cu25   O48     1.941   .     S
Cu25   O43     1.956   .     S
Cu25   Cu26    2.688   .     S
Cu26   O50     1.919   .     S
Cu26   O46     1.952   .     S
Cu26   O49     1.941   .     S
Cu26   O45     1.956   .     S
Cu26   N41     2.020   .     S
H28    C179    1.088   .     S
H29    N145    1.029   1_455 S
H30    N94     1.029   .     S
H31    O52     0.991   .     S
H32    O44     0.991   .     S
H36    C57     1.083   .     S
H37    C110    1.083   1_455 S
H40    C334    1.088   1_545 S
N41    H81     1.029   .     S
N41    N94     1.285   .     S
N42    H134    1.029   1_455 S
N42    N145    1.285   1_455 S
O44    C125    1.384   1_455 S
O52    C72     1.384   .     S
C53    C74     1.428   .     S
C53    O98     1.286   .     A
C53    O95     1.292   .     A
C54    C56     1.467   .     S
C54    O101    1.302   .     A
C54    O103    1.295   .     A
C55    C61     1.399   .     A
C55    C76     1.470   .     S
C55    C59     1.396   .     A
C56    C60     1.395   .     A
C56    C62     1.398   .     A
C57    C66     1.410   .     A
C57    C59     1.392   .     A
C58    C60     1.392   .     A
C58    C67     1.411   .     A
C58    H141    1.083   .     S
C59    H87     1.083   .     S
C60    H86     1.083   .     S
C61    H85     1.075   .     S
C61    C63     1.407   .     A
C62    H79     1.075   .     S
C62    C65     1.408   .     A
C63    C66     1.420   .     A
C63    C68     1.428   .     A
C64    C75     1.428   .     S
C64    O99     1.286   .     A
C64    O97     1.292   .     A
C65    C69     1.430   .     A
C65    C67     1.422   .     A
C66    C540    1.399   .     S
C67    C541    1.399   1_554 S
C68    C71     1.416   .     A
C68    C537    1.420   .     S
C69    C70     1.417   .     A
C69    C536    1.420   1_554 S
C70    C72     1.401   .     A
C70    H90     1.074   .     S
C71    H91     1.075   .     S
C71    C73     1.400   .     A
C72    C534    1.399   1_554 S
C73    C535    1.399   .     S
C73    O148    1.384   .     S
C74    C231    1.328   .     S
C74    H248    1.088   .     S
C75    C386    1.328   1_545 S
C75    H392    1.088   1_545 S
C76    O102    1.296   .     A
C76    O100    1.303   .     A
Cu77   N94     2.020   .     S
Cu77   O103    1.919   .     S
Cu77   O99     1.952   .     S
Cu77   O100    1.941   .     S
Cu77   O95     1.956   .     S
Cu77   Cu78    2.688   .     S
Cu78   O102    1.919   .     S
Cu78   O98     1.952   .     S
Cu78   O101    1.941   .     S
Cu78   O97     1.956   .     S
Cu78   N93     2.020   .     S
H80    C231    1.088   .     S
H82    N146    1.029   .     S
H83    O104    0.991   .     S
H84    O96     0.991   .     S
H88    C109    1.083   .     S
H92    C386    1.088   1_545 S
N93    H133    1.029   .     S
N93    N146    1.285   .     S
O104   C124    1.384   .     S
C105   C126    1.428   .     S
C105   O150    1.286   .     A
C105   O147    1.292   .     A
C106   C108    1.467   .     S
C106   O153    1.302   .     A
C106   O155    1.295   .     A
C107   C113    1.399   .     A
C107   C128    1.470   .     S
C107   C111    1.396   .     A
C108   C112    1.395   .     A
C108   C114    1.398   .     A
C109   C118    1.410   .     A
C109   C111    1.392   .     A
C110   C112    1.392   .     A
C110   C119    1.411   .     A
C110   H37     1.083   1_655 S
C111   H139    1.083   .     S
C112   H138    1.083   .     S
C113   H137    1.075   .     S
C113   C115    1.407   .     A
C114   H131    1.075   .     S
C114   C117    1.408   .     A
C115   C118    1.420   .     A
C115   C120    1.428   .     A
C116   C127    1.428   .     S
C116   O151    1.286   .     A
C116   O149    1.292   .     A
C117   C121    1.430   .     A
C117   C119    1.422   .     A
C118   C592    1.399   .     S
C119   C593    1.399   1_554 S
C120   C123    1.416   .     A
C120   C589    1.420   .     S
C121   C122    1.417   .     A
C121   C588    1.420   1_554 S
C122   C124    1.401   .     A
C122   H142    1.074   .     S
C123   H143    1.075   .     S
C123   C125    1.400   .     A
C124   C586    1.399   1_554 S
C125   C587    1.399   .     S
C125   O44     1.384   1_655 S
C126   C283    1.328   .     S
C126   H300    1.088   .     S
C127   C438    1.328   1_545 S
C127   H444    1.088   1_545 S
C128   O154    1.296   .     A
C128   O152    1.303   .     A
Cu129  N146    2.020   .     S
Cu129  O155    1.919   .     S
Cu129  O151    1.952   .     S
Cu129  O152    1.941   .     S
Cu129  O147    1.956   .     S
Cu129  Cu130   2.688   .     S
Cu130  O154    1.919   .     S
Cu130  O150    1.952   .     S
Cu130  O153    1.941   .     S
Cu130  O149    1.956   .     S
Cu130  N145    2.020   .     S
H132   C283    1.088   .     S
H134   N42     1.029   1_655 S
H135   O156    0.991   .     S
H136   O148    0.991   .     S
H140   C5      1.083   1_655 S
H144   C438    1.088   1_545 S
N145   H29     1.029   1_655 S
N145   N42     1.285   1_655 S
O156   C20     1.384   1_655 S
C157   C178    1.428   .     S
C157   O202    1.286   .     A
C157   O199    1.292   .     A
C158   C160    1.467   .     S
C158   O205    1.302   .     A
C158   O207    1.295   .     A
C159   C165    1.399   .     A
C159   C180    1.470   .     S
C159   C163    1.396   .     A
C160   C164    1.395   .     A
C160   C166    1.398   .     A
C161   C170    1.410   .     A
C161   C163    1.392   .     A
C161   H296    1.083   1_455 S
C162   C164    1.392   .     A
C162   C171    1.411   .     A
C162   H245    1.083   .     S
C163   H191    1.083   .     S
C164   H190    1.083   .     S
C165   H189    1.075   .     S
C165   C167    1.407   .     A
C166   H183    1.075   .     S
C166   C169    1.408   .     A
C167   C170    1.420   .     A
C167   C172    1.428   .     A
C168   C179    1.428   .     S
C168   O203    1.286   .     A
C168   O201    1.292   .     A
C169   C173    1.430   .     A
C169   C171    1.422   .     A
C170   C644    1.399   .     S
C171   C645    1.399   1_554 S
C172   C175    1.416   .     A
C172   C641    1.420   .     S
C173   C174    1.417   .     A
C173   C640    1.420   1_554 S
C174   C176    1.401   .     A
C174   H194    1.074   .     S
C175   H195    1.075   .     S
C175   C177    1.400   .     A
C176   C638    1.399   1_554 S
C176   O312    1.384   1_455 S
C177   C639    1.399   .     S
C177   O252    1.384   .     S
C178   C335    1.328   .     S
C178   H352    1.088   .     S
C180   O206    1.296   .     A
C180   O204    1.303   .     A
Cu181  N198    2.020   .     S
Cu181  O207    1.919   .     S
Cu181  O203    1.952   .     S
Cu181  O204    1.941   .     S
Cu181  O199    1.956   .     S
Cu181  Cu182   2.688   .     S
Cu182  O206    1.919   .     S
Cu182  O202    1.952   .     S
Cu182  O205    1.941   .     S
Cu182  O201    1.956   .     S
Cu182  N197    2.020   .     S
H184   C335    1.088   .     S
H185   N301    1.029   1_455 S
H186   N250    1.029   .     S
H187   O208    0.991   .     S
H188   O200    0.991   .     S
H192   C213    1.083   .     S
H193   C266    1.083   1_455 S
N197   H237    1.029   .     S
N197   N250    1.285   .     S
N198   H290    1.029   1_455 S
N198   N301    1.285   1_455 S
O200   C281    1.384   1_455 S
O208   C228    1.384   .     S
C209   C230    1.428   .     S
C209   O254    1.286   .     A
C209   O251    1.292   .     A
C210   C212    1.467   .     S
C210   O257    1.302   .     A
C210   O259    1.295   .     A
C211   C217    1.399   .     A
C211   C232    1.470   .     S
C211   C215    1.396   .     A
C212   C216    1.395   .     A
C212   C218    1.398   .     A
C213   C222    1.410   .     A
C213   C215    1.392   .     A
C214   C216    1.392   .     A
C214   C223    1.411   .     A
C214   H297    1.083   .     S
C215   H243    1.083   .     S
C216   H242    1.083   .     S
C217   H241    1.075   .     S
C217   C219    1.407   .     A
C218   H235    1.075   .     S
C218   C221    1.408   .     A
C219   C222    1.420   .     A
C219   C224    1.428   .     A
C220   C231    1.428   .     S
C220   O255    1.286   .     A
C220   O253    1.292   .     A
C221   C225    1.430   .     A
C221   C223    1.422   .     A
C222   C696    1.399   .     S
C223   C697    1.399   1_554 S
C224   C227    1.416   .     A
C224   C693    1.420   .     S
C225   C226    1.417   .     A
C225   C692    1.420   1_554 S
C226   C228    1.401   .     A
C226   H246    1.074   .     S
C227   H247    1.075   .     S
C227   C229    1.400   .     A
C228   C690    1.399   1_554 S
C229   C691    1.399   .     S
C229   O304    1.384   .     S
C230   C387    1.328   .     S
C230   H404    1.088   .     S
C232   O258    1.296   .     A
C232   O256    1.303   .     A
Cu233  N250    2.020   .     S
Cu233  O259    1.919   .     S
Cu233  O255    1.952   .     S
Cu233  O256    1.941   .     S
Cu233  O251    1.956   .     S
Cu233  Cu234   2.688   .     S
Cu234  O258    1.919   .     S
Cu234  O254    1.952   .     S
Cu234  O257    1.941   .     S
Cu234  O253    1.956   .     S
Cu234  N249    2.020   .     S
H236   C387    1.088   .     S
H238   N302    1.029   .     S
H239   O260    0.991   .     S
H240   O252    0.991   .     S
H244   C265    1.083   .     S
N249   H289    1.029   .     S
N249   N302    1.285   .     S
O260   C280    1.384   .     S
C261   C282    1.428   .     S
C261   O306    1.286   .     A
C261   O303    1.292   .     A
C262   C264    1.467   .     S
C262   O309    1.302   .     A
C262   O311    1.295   .     A
C263   C269    1.399   .     A
C263   C284    1.470   .     S
C263   C267    1.396   .     A
C264   C268    1.395   .     A
C264   C270    1.398   .     A
C265   C274    1.410   .     A
C265   C267    1.392   .     A
C266   C268    1.392   .     A
C266   C275    1.411   .     A
C266   H193    1.083   1_655 S
C267   H295    1.083   .     S
C268   H294    1.083   .     S
C269   H293    1.075   .     S
C269   C271    1.407   .     A
C270   H287    1.075   .     S
C270   C273    1.408   .     A
C271   C274    1.420   .     A
C271   C276    1.428   .     A
C272   C283    1.428   .     S
C272   O307    1.286   .     A
C272   O305    1.292   .     A
C273   C277    1.430   .     A
C273   C275    1.422   .     A
C274   C748    1.399   .     S
C275   C749    1.399   1_554 S
C276   C279    1.416   .     A
C276   C745    1.420   .     S
C277   C278    1.417   .     A
C277   C744    1.420   1_554 S
C278   C280    1.401   .     A
C278   H298    1.074   .     S
C279   H299    1.075   .     S
C279   C281    1.400   .     A
C280   C742    1.399   1_554 S
C281   C743    1.399   .     S
C281   O200    1.384   1_655 S
C282   C439    1.328   .     S
C282   H456    1.088   .     S
C284   O310    1.296   .     A
C284   O308    1.303   .     A
Cu285  N302    2.020   .     S
Cu285  O311    1.919   .     S
Cu285  O307    1.952   .     S
Cu285  O308    1.941   .     S
Cu285  O303    1.956   .     S
Cu285  Cu286   2.688   .     S
Cu286  O310    1.919   .     S
Cu286  O306    1.952   .     S
Cu286  O309    1.941   .     S
Cu286  O305    1.956   .     S
Cu286  N301    2.020   .     S
H288   C439    1.088   .     S
H290   N198    1.029   1_655 S
H291   O312    0.991   .     S
H292   O304    0.991   .     S
H296   C161    1.083   1_655 S
N301   H185    1.029   1_655 S
N301   N198    1.285   1_655 S
O312   C176    1.384   1_655 S
C313   C334    1.428   .     S
C313   O358    1.286   .     A
C313   O355    1.292   .     A
C314   C316    1.467   .     S
C314   O361    1.302   .     A
C314   O363    1.295   .     A
C315   C321    1.399   .     A
C315   C336    1.470   .     S
C315   C319    1.396   .     A
C316   C320    1.395   .     A
C316   C322    1.398   .     A
C317   C326    1.410   .     A
C317   C319    1.392   .     A
C317   H452    1.083   1_455 S
C318   C320    1.392   .     A
C318   C327    1.411   .     A
C318   H401    1.083   .     S
C319   H347    1.083   .     S
C320   H346    1.083   .     S
C321   H345    1.075   .     S
C321   C323    1.407   .     A
C322   H339    1.075   .     S
C322   C325    1.408   .     A
C323   C326    1.420   .     A
C323   C328    1.428   .     A
C324   C335    1.428   .     S
C324   O359    1.286   .     A
C324   O357    1.292   .     A
C325   C329    1.430   .     A
C325   C327    1.422   .     A
C326   C800    1.399   .     S
C327   C801    1.399   1_554 S
C328   C331    1.416   .     A
C328   C797    1.420   .     S
C329   C330    1.417   .     A
C329   C796    1.420   1_554 S
C330   C332    1.401   .     A
C330   H350    1.074   .     S
C331   H351    1.075   .     S
C331   C333    1.400   .     A
C332   C794    1.399   1_554 S
C332   O468    1.384   1_455 S
C333   C795    1.399   .     S
C333   O408    1.384   .     S
C334   C23     1.328   1_565 S
C334   H40     1.088   1_565 S
C336   O362    1.296   .     A
C336   O360    1.303   .     A
Cu337  N354    2.020   .     S
Cu337  O363    1.919   .     S
Cu337  O359    1.952   .     S
Cu337  O360    1.941   .     S
Cu337  O355    1.956   .     S
Cu337  Cu338   2.688   .     S
Cu338  O362    1.919   .     S
Cu338  O358    1.952   .     S
Cu338  O361    1.941   .     S
Cu338  O357    1.956   .     S
Cu338  N353    2.020   .     S
H340   C23     1.088   1_565 S
H341   N457    1.029   1_455 S
H342   N406    1.029   .     S
H343   O364    0.991   .     S
H344   O356    0.991   .     S
H348   C369    1.083   .     S
H349   C422    1.083   1_455 S
N353   H393    1.029   .     S
N353   N406    1.285   .     S
N354   H446    1.029   1_455 S
N354   N457    1.285   1_455 S
O356   C437    1.384   1_455 S
O364   C384    1.384   .     S
C365   C386    1.428   .     S
C365   O410    1.286   .     A
C365   O407    1.292   .     A
C366   C368    1.467   .     S
C366   O413    1.302   .     A
C366   O415    1.295   .     A
C367   C373    1.399   .     A
C367   C388    1.470   .     S
C367   C371    1.396   .     A
C368   C372    1.395   .     A
C368   C374    1.398   .     A
C369   C378    1.410   .     A
C369   C371    1.392   .     A
C370   C372    1.392   .     A
C370   C379    1.411   .     A
C370   H453    1.083   .     S
C371   H399    1.083   .     S
C372   H398    1.083   .     S
C373   H397    1.075   .     S
C373   C375    1.407   .     A
C374   H391    1.075   .     S
C374   C377    1.408   .     A
C375   C378    1.420   .     A
C375   C380    1.428   .     A
C376   C387    1.428   .     S
C376   O411    1.286   .     A
C376   O409    1.292   .     A
C377   C381    1.430   .     A
C377   C379    1.422   .     A
C378   C852    1.399   .     S
C379   C853    1.399   1_554 S
C380   C383    1.416   .     A
C380   C849    1.420   .     S
C381   C382    1.417   .     A
C381   C848    1.420   1_554 S
C382   C384    1.401   .     A
C382   H402    1.074   .     S
C383   H403    1.075   .     S
C383   C385    1.400   .     A
C384   C846    1.399   1_554 S
C385   C847    1.399   .     S
C385   O460    1.384   .     S
C386   C75     1.328   1_565 S
C386   H92     1.088   1_565 S
C388   O414    1.296   .     A
C388   O412    1.303   .     A
Cu389  N406    2.020   .     S
Cu389  O415    1.919   .     S
Cu389  O411    1.952   .     S
Cu389  O412    1.941   .     S
Cu389  O407    1.956   .     S
Cu389  Cu390   2.688   .     S
Cu390  O414    1.919   .     S
Cu390  O410    1.952   .     S
Cu390  O413    1.941   .     S
Cu390  O409    1.956   .     S
Cu390  N405    2.020   .     S
H392   C75     1.088   1_565 S
H394   N458    1.029   .     S
H395   O416    0.991   .     S
H396   O408    0.991   .     S
H400   C421    1.083   .     S
N405   H445    1.029   .     S
N405   N458    1.285   .     S
O416   C436    1.384   .     S
C417   C438    1.428   .     S
C417   O462    1.286   .     A
C417   O459    1.292   .     A
C418   C420    1.467   .     S
C418   O465    1.302   .     A
C418   O467    1.295   .     A
C419   C425    1.399   .     A
C419   C440    1.470   .     S
C419   C423    1.396   .     A
C420   C424    1.395   .     A
C420   C426    1.398   .     A
C421   C430    1.410   .     A
C421   C423    1.392   .     A
C422   C424    1.392   .     A
C422   C431    1.411   .     A
C422   H349    1.083   1_655 S
C423   H451    1.083   .     S
C424   H450    1.083   .     S
C425   H449    1.075   .     S
C425   C427    1.407   .     A
C426   H443    1.075   .     S
C426   C429    1.408   .     A
C427   C430    1.420   .     A
C427   C432    1.428   .     A
C428   C439    1.428   .     S
C428   O463    1.286   .     A
C428   O461    1.292   .     A
C429   C433    1.430   .     A
C429   C431    1.422   .     A
C430   C904    1.399   .     S
C431   C905    1.399   1_554 S
C432   C435    1.416   .     A
C432   C901    1.420   .     S
C433   C434    1.417   .     A
C433   C900    1.420   1_554 S
C434   C436    1.401   .     A
C434   H454    1.074   .     S
C435   H455    1.075   .     S
C435   C437    1.400   .     A
C436   C898    1.399   1_554 S
C437   C899    1.399   .     S
C437   O356    1.384   1_655 S
C438   C127    1.328   1_565 S
C438   H144    1.088   1_565 S
C440   O466    1.296   .     A
C440   O464    1.303   .     A
Cu441  N458    2.020   .     S
Cu441  O467    1.919   .     S
Cu441  O463    1.952   .     S
Cu441  O464    1.941   .     S
Cu441  O459    1.956   .     S
Cu441  Cu442   2.688   .     S
Cu442  O466    1.919   .     S
Cu442  O462    1.952   .     S
Cu442  O465    1.941   .     S
Cu442  O461    1.956   .     S
Cu442  N457    2.020   .     S
H444   C127    1.088   1_565 S
H446   N354    1.029   1_655 S
H447   O468    0.991   .     S
H448   O460    0.991   .     S
H452   C317    1.083   1_655 S
N457   H341    1.029   1_655 S
N457   N354    1.285   1_655 S
O468   C332    1.384   1_655 S
C469   C490    1.428   .     S
C469   O514    1.286   .     A
C469   O511    1.292   .     A
C470   C472    1.467   .     S
C470   O517    1.302   .     A
C470   O519    1.295   .     A
C471   C477    1.399   .     A
C471   C492    1.470   .     S
C471   C475    1.396   .     A
C472   C476    1.395   .     A
C472   C478    1.398   .     A
C473   C482    1.410   .     A
C473   C475    1.392   .     A
C473   H608    1.083   1_455 S
C474   C476    1.392   .     A
C474   C483    1.411   .     A
C474   H557    1.083   .     S
C475   H503    1.083   .     S
C476   H502    1.083   .     S
C477   H501    1.075   .     S
C477   C479    1.407   .     A
C478   H495    1.075   .     S
C478   C481    1.408   .     A
C479   C482    1.420   .     A
C479   C484    1.428   .     A
C480   C491    1.428   .     S
C480   O515    1.286   .     A
C480   O513    1.292   .     A
C481   C485    1.430   .     A
C481   C483    1.422   .     A
C482   C20     1.399   1_556 S
C484   C487    1.416   .     A
C484   C17     1.420   1_556 S
C485   C486    1.417   .     A
C486   C488    1.401   .     A
C486   H506    1.074   .     S
C487   H507    1.075   .     S
C487   C489    1.400   .     A
C488   O624    1.384   1_455 S
C489   C15     1.399   1_556 S
C489   O564    1.384   .     S
C490   C647    1.328   .     S
C490   H664    1.088   .     S
C491   C802    1.328   1_545 S
C491   H808    1.088   1_545 S
C492   O518    1.296   .     A
C492   O516    1.303   .     A
Cu493  N510    2.020   .     S
Cu493  O519    1.919   .     S
Cu493  O515    1.952   .     S
Cu493  O516    1.941   .     S
Cu493  O511    1.956   .     S
Cu493  Cu494   2.688   .     S
Cu494  O518    1.919   .     S
Cu494  O514    1.952   .     S
Cu494  O517    1.941   .     S
Cu494  O513    1.956   .     S
Cu494  N509    2.020   .     S
H496   C647    1.088   .     S
H497   N613    1.029   1_455 S
H498   N562    1.029   .     S
H499   O520    0.991   .     S
H500   O512    0.991   .     S
H504   C525    1.083   .     S
H505   C578    1.083   1_455 S
H508   C802    1.088   1_545 S
N509   H549    1.029   .     S
N509   N562    1.285   .     S
N510   H602    1.029   1_455 S
N510   N613    1.285   1_455 S
O512   C593    1.384   1_455 S
O520   C540    1.384   .     S
C521   C542    1.428   .     S
C521   O566    1.286   .     A
C521   O563    1.292   .     A
C522   C524    1.467   .     S
C522   O569    1.302   .     A
C522   O571    1.295   .     A
C523   C529    1.399   .     A
C523   C544    1.470   .     S
C523   C527    1.396   .     A
C524   C528    1.395   .     A
C524   C530    1.398   .     A
C525   C534    1.410   .     A
C525   C527    1.392   .     A
C526   C528    1.392   .     A
C526   C535    1.411   .     A
C526   H609    1.083   .     S
C527   H555    1.083   .     S
C528   H554    1.083   .     S
C529   H553    1.075   .     S
C529   C531    1.407   .     A
C530   H547    1.075   .     S
C530   C533    1.408   .     A
C531   C534    1.420   .     A
C531   C536    1.428   .     A
C532   C543    1.428   .     S
C532   O567    1.286   .     A
C532   O565    1.292   .     A
C533   C537    1.430   .     A
C533   C535    1.422   .     A
C534   C72     1.399   1_556 S
C536   C539    1.416   .     A
C536   C69     1.420   1_556 S
C537   C538    1.417   .     A
C538   C540    1.401   .     A
C538   H558    1.074   .     S
C539   H559    1.075   .     S
C539   C541    1.400   .     A
C541   C67     1.399   1_556 S
C541   O616    1.384   .     S
C542   C699    1.328   .     S
C542   H716    1.088   .     S
C543   C854    1.328   1_545 S
C543   H860    1.088   1_545 S
C544   O570    1.296   .     A
C544   O568    1.303   .     A
Cu545  N562    2.020   .     S
Cu545  O571    1.919   .     S
Cu545  O567    1.952   .     S
Cu545  O568    1.941   .     S
Cu545  O563    1.956   .     S
Cu545  Cu546   2.688   .     S
Cu546  O570    1.919   .     S
Cu546  O566    1.952   .     S
Cu546  O569    1.941   .     S
Cu546  O565    1.956   .     S
Cu546  N561    2.020   .     S
H548   C699    1.088   .     S
H550   N614    1.029   .     S
H551   O572    0.991   .     S
H552   O564    0.991   .     S
H556   C577    1.083   .     S
H560   C854    1.088   1_545 S
N561   H601    1.029   .     S
N561   N614    1.285   .     S
O572   C592    1.384   .     S
C573   C594    1.428   .     S
C573   O618    1.286   .     A
C573   O615    1.292   .     A
C574   C576    1.467   .     S
C574   O621    1.302   .     A
C574   O623    1.295   .     A
C575   C581    1.399   .     A
C575   C596    1.470   .     S
C575   C579    1.396   .     A
C576   C580    1.395   .     A
C576   C582    1.398   .     A
C577   C586    1.410   .     A
C577   C579    1.392   .     A
C578   C580    1.392   .     A
C578   C587    1.411   .     A
C578   H505    1.083   1_655 S
C579   H607    1.083   .     S
C580   H606    1.083   .     S
C581   H605    1.075   .     S
C581   C583    1.407   .     A
C582   H599    1.075   .     S
C582   C585    1.408   .     A
C583   C586    1.420   .     A
C583   C588    1.428   .     A
C584   C595    1.428   .     S
C584   O619    1.286   .     A
C584   O617    1.292   .     A
C585   C589    1.430   .     A
C585   C587    1.422   .     A
C586   C124    1.399   1_556 S
C588   C591    1.416   .     A
C588   C121    1.420   1_556 S
C589   C590    1.417   .     A
C590   C592    1.401   .     A
C590   H610    1.074   .     S
C591   H611    1.075   .     S
C591   C593    1.400   .     A
C593   C119    1.399   1_556 S
C593   O512    1.384   1_655 S
C594   C751    1.328   .     S
C594   H768    1.088   .     S
C595   C906    1.328   1_545 S
C595   H912    1.088   1_545 S
C596   O622    1.296   .     A
C596   O620    1.303   .     A
Cu597  N614    2.020   .     S
Cu597  O623    1.919   .     S
Cu597  O619    1.952   .     S
Cu597  O620    1.941   .     S
Cu597  O615    1.956   .     S
Cu597  Cu598   2.688   .     S
Cu598  O622    1.919   .     S
Cu598  O618    1.952   .     S
Cu598  O621    1.941   .     S
Cu598  O617    1.956   .     S
Cu598  N613    2.020   .     S
H600   C751    1.088   .     S
H602   N510    1.029   1_655 S
H603   O624    0.991   .     S
H604   O616    0.991   .     S
H608   C473    1.083   1_655 S
H612   C906    1.088   1_545 S
N613   H497    1.029   1_655 S
N613   N510    1.285   1_655 S
O624   C488    1.384   1_655 S
C625   C646    1.428   .     S
C625   O670    1.286   .     A
C625   O667    1.292   .     A
C626   C628    1.467   .     S
C626   O673    1.302   .     A
C626   O675    1.295   .     A
C627   C633    1.399   .     A
C627   C648    1.470   .     S
C627   C631    1.396   .     A
C628   C632    1.395   .     A
C628   C634    1.398   .     A
C629   C638    1.410   .     A
C629   C631    1.392   .     A
C629   H764    1.083   1_455 S
C630   C632    1.392   .     A
C630   C639    1.411   .     A
C630   H713    1.083   .     S
C631   H659    1.083   .     S
C632   H658    1.083   .     S
C633   H657    1.075   .     S
C633   C635    1.407   .     A
C634   H651    1.075   .     S
C634   C637    1.408   .     A
C635   C638    1.420   .     A
C635   C640    1.428   .     A
C636   C647    1.428   .     S
C636   O671    1.286   .     A
C636   O669    1.292   .     A
C637   C641    1.430   .     A
C637   C639    1.422   .     A
C638   C176    1.399   1_556 S
C640   C643    1.416   .     A
C640   C173    1.420   1_556 S
C641   C642    1.417   .     A
C642   C644    1.401   .     A
C642   H662    1.074   .     S
C643   H663    1.075   .     S
C643   C645    1.400   .     A
C644   O780    1.384   1_455 S
C645   C171    1.399   1_556 S
C645   O720    1.384   .     S
C646   C803    1.328   .     S
C646   H820    1.088   .     S
C648   O674    1.296   .     A
C648   O672    1.303   .     A
Cu649  N666    2.020   .     S
Cu649  O675    1.919   .     S
Cu649  O671    1.952   .     S
Cu649  O672    1.941   .     S
Cu649  O667    1.956   .     S
Cu649  Cu650   2.688   .     S
Cu650  O674    1.919   .     S
Cu650  O670    1.952   .     S
Cu650  O673    1.941   .     S
Cu650  O669    1.956   .     S
Cu650  N665    2.020   .     S
H652   C803    1.088   .     S
H653   N769    1.029   1_455 S
H654   N718    1.029   .     S
H655   O676    0.991   .     S
H656   O668    0.991   .     S
H660   C681    1.083   .     S
H661   C734    1.083   1_455 S
N665   H705    1.029   .     S
N665   N718    1.285   .     S
N666   H758    1.029   1_455 S
N666   N769    1.285   1_455 S
O668   C749    1.384   1_455 S
O676   C696    1.384   .     S
C677   C698    1.428   .     S
C677   O722    1.286   .     A
C677   O719    1.292   .     A
C678   C680    1.467   .     S
C678   O725    1.302   .     A
C678   O727    1.295   .     A
C679   C685    1.399   .     A
C679   C700    1.470   .     S
C679   C683    1.396   .     A
C680   C684    1.395   .     A
C680   C686    1.398   .     A
C681   C690    1.410   .     A
C681   C683    1.392   .     A
C682   C684    1.392   .     A
C682   C691    1.411   .     A
C682   H765    1.083   .     S
C683   H711    1.083   .     S
C684   H710    1.083   .     S
C685   H709    1.075   .     S
C685   C687    1.407   .     A
C686   H703    1.075   .     S
C686   C689    1.408   .     A
C687   C690    1.420   .     A
C687   C692    1.428   .     A
C688   C699    1.428   .     S
C688   O723    1.286   .     A
C688   O721    1.292   .     A
C689   C693    1.430   .     A
C689   C691    1.422   .     A
C690   C228    1.399   1_556 S
C692   C695    1.416   .     A
C692   C225    1.420   1_556 S
C693   C694    1.417   .     A
C694   C696    1.401   .     A
C694   H714    1.074   .     S
C695   H715    1.075   .     S
C695   C697    1.400   .     A
C697   C223    1.399   1_556 S
C697   O772    1.384   .     S
C698   C855    1.328   .     S
C698   H872    1.088   .     S
C700   O726    1.296   .     A
C700   O724    1.303   .     A
Cu701  N718    2.020   .     S
Cu701  O727    1.919   .     S
Cu701  O723    1.952   .     S
Cu701  O724    1.941   .     S
Cu701  O719    1.956   .     S
Cu701  Cu702   2.688   .     S
Cu702  O726    1.919   .     S
Cu702  O722    1.952   .     S
Cu702  O725    1.941   .     S
Cu702  O721    1.956   .     S
Cu702  N717    2.020   .     S
H704   C855    1.088   .     S
H706   N770    1.029   .     S
H707   O728    0.991   .     S
H708   O720    0.991   .     S
H712   C733    1.083   .     S
N717   H757    1.029   .     S
N717   N770    1.285   .     S
O728   C748    1.384   .     S
C729   C750    1.428   .     S
C729   O774    1.286   .     A
C729   O771    1.292   .     A
C730   C732    1.467   .     S
C730   O777    1.302   .     A
C730   O779    1.295   .     A
C731   C737    1.399   .     A
C731   C752    1.470   .     S
C731   C735    1.396   .     A
C732   C736    1.395   .     A
C732   C738    1.398   .     A
C733   C742    1.410   .     A
C733   C735    1.392   .     A
C734   C736    1.392   .     A
C734   C743    1.411   .     A
C734   H661    1.083   1_655 S
C735   H763    1.083   .     S
C736   H762    1.083   .     S
C737   H761    1.075   .     S
C737   C739    1.407   .     A
C738   H755    1.075   .     S
C738   C741    1.408   .     A
C739   C742    1.420   .     A
C739   C744    1.428   .     A
C740   C751    1.428   .     S
C740   O775    1.286   .     A
C740   O773    1.292   .     A
C741   C745    1.430   .     A
C741   C743    1.422   .     A
C742   C280    1.399   1_556 S
C744   C747    1.416   .     A
C744   C277    1.420   1_556 S
C745   C746    1.417   .     A
C746   C748    1.401   .     A
C746   H766    1.074   .     S
C747   H767    1.075   .     S
C747   C749    1.400   .     A
C749   C275    1.399   1_556 S
C749   O668    1.384   1_655 S
C750   C907    1.328   .     S
C750   H924    1.088   .     S
C752   O778    1.296   .     A
C752   O776    1.303   .     A
Cu753  N770    2.020   .     S
Cu753  O779    1.919   .     S
Cu753  O775    1.952   .     S
Cu753  O776    1.941   .     S
Cu753  O771    1.956   .     S
Cu753  Cu754   2.688   .     S
Cu754  O778    1.919   .     S
Cu754  O774    1.952   .     S
Cu754  O777    1.941   .     S
Cu754  O773    1.956   .     S
Cu754  N769    2.020   .     S
H756   C907    1.088   .     S
H758   N666    1.029   1_655 S
H759   O780    0.991   .     S
H760   O772    0.991   .     S
H764   C629    1.083   1_655 S
N769   H653    1.029   1_655 S
N769   N666    1.285   1_655 S
O780   C644    1.384   1_655 S
C781   C802    1.428   .     S
C781   O826    1.286   .     A
C781   O823    1.292   .     A
C782   C784    1.467   .     S
C782   O829    1.302   .     A
C782   O831    1.295   .     A
C783   C789    1.399   .     A
C783   C804    1.470   .     S
C783   C787    1.396   .     A
C784   C788    1.395   .     A
C784   C790    1.398   .     A
C785   C794    1.410   .     A
C785   C787    1.392   .     A
C785   H920    1.083   1_455 S
C786   C788    1.392   .     A
C786   C795    1.411   .     A
C786   H869    1.083   .     S
C787   H815    1.083   .     S
C788   H814    1.083   .     S
C789   H813    1.075   .     S
C789   C791    1.407   .     A
C790   H807    1.075   .     S
C790   C793    1.408   .     A
C791   C794    1.420   .     A
C791   C796    1.428   .     A
C792   C803    1.428   .     S
C792   O827    1.286   .     A
C792   O825    1.292   .     A
C793   C797    1.430   .     A
C793   C795    1.422   .     A
C794   C332    1.399   1_556 S
C796   C799    1.416   .     A
C796   C329    1.420   1_556 S
C797   C798    1.417   .     A
C798   C800    1.401   .     A
C798   H818    1.074   .     S
C799   H819    1.075   .     S
C799   C801    1.400   .     A
C800   O936    1.384   1_455 S
C801   C327    1.399   1_556 S
C801   O876    1.384   .     S
C802   C491    1.328   1_565 S
C802   H508    1.088   1_565 S
C804   O830    1.296   .     A
C804   O828    1.303   .     A
Cu805  N822    2.020   .     S
Cu805  O831    1.919   .     S
Cu805  O827    1.952   .     S
Cu805  O828    1.941   .     S
Cu805  O823    1.956   .     S
Cu805  Cu806   2.688   .     S
Cu806  O830    1.919   .     S
Cu806  O826    1.952   .     S
Cu806  O829    1.941   .     S
Cu806  O825    1.956   .     S
Cu806  N821    2.020   .     S
H808   C491    1.088   1_565 S
H809   N925    1.029   1_455 S
H810   N874    1.029   .     S
H811   O832    0.991   .     S
H812   O824    0.991   .     S
H816   C837    1.083   .     S
H817   C890    1.083   1_455 S
N821   H861    1.029   .     S
N821   N874    1.285   .     S
N822   H914    1.029   1_455 S
N822   N925    1.285   1_455 S
O824   C905    1.384   1_455 S
O832   C852    1.384   .     S
C833   C854    1.428   .     S
C833   O878    1.286   .     A
C833   O875    1.292   .     A
C834   C836    1.467   .     S
C834   O881    1.302   .     A
C834   O883    1.295   .     A
C835   C841    1.399   .     A
C835   C856    1.470   .     S
C835   C839    1.396   .     A
C836   C840    1.395   .     A
C836   C842    1.398   .     A
C837   C846    1.410   .     A
C837   C839    1.392   .     A
C838   C840    1.392   .     A
C838   C847    1.411   .     A
C838   H921    1.083   .     S
C839   H867    1.083   .     S
C840   H866    1.083   .     S
C841   H865    1.075   .     S
C841   C843    1.407   .     A
C842   H859    1.075   .     S
C842   C845    1.408   .     A
C843   C846    1.420   .     A
C843   C848    1.428   .     A
C844   C855    1.428   .     S
C844   O879    1.286   .     A
C844   O877    1.292   .     A
C845   C849    1.430   .     A
C845   C847    1.422   .     A
C846   C384    1.399   1_556 S
C848   C851    1.416   .     A
C848   C381    1.420   1_556 S
C849   C850    1.417   .     A
C850   C852    1.401   .     A
C850   H870    1.074   .     S
C851   H871    1.075   .     S
C851   C853    1.400   .     A
C853   C379    1.399   1_556 S
C853   O928    1.384   .     S
C854   C543    1.328   1_565 S
C854   H560    1.088   1_565 S
C856   O882    1.296   .     A
C856   O880    1.303   .     A
Cu857  N874    2.020   .     S
Cu857  O883    1.919   .     S
Cu857  O879    1.952   .     S
Cu857  O880    1.941   .     S
Cu857  O875    1.956   .     S
Cu857  Cu858   2.688   .     S
Cu858  O882    1.919   .     S
Cu858  O878    1.952   .     S
Cu858  O881    1.941   .     S
Cu858  O877    1.956   .     S
Cu858  N873    2.020   .     S
H860   C543    1.088   1_565 S
H862   N926    1.029   .     S
H863   O884    0.991   .     S
H864   O876    0.991   .     S
H868   C889    1.083   .     S
N873   H913    1.029   .     S
N873   N926    1.285   .     S
O884   C904    1.384   .     S
C885   C906    1.428   .     S
C885   O930    1.286   .     A
C885   O927    1.292   .     A
C886   C888    1.467   .     S
C886   O933    1.302   .     A
C886   O935    1.295   .     A
C887   C893    1.399   .     A
C887   C908    1.470   .     S
C887   C891    1.396   .     A
C888   C892    1.395   .     A
C888   C894    1.398   .     A
C889   C898    1.410   .     A
C889   C891    1.392   .     A
C890   C892    1.392   .     A
C890   C899    1.411   .     A
C890   H817    1.083   1_655 S
C891   H919    1.083   .     S
C892   H918    1.083   .     S
C893   H917    1.075   .     S
C893   C895    1.407   .     A
C894   H911    1.075   .     S
C894   C897    1.408   .     A
C895   C898    1.420   .     A
C895   C900    1.428   .     A
C896   C907    1.428   .     S
C896   O931    1.286   .     A
C896   O929    1.292   .     A
C897   C901    1.430   .     A
C897   C899    1.422   .     A
C898   C436    1.399   1_556 S
C900   C903    1.416   .     A
C900   C433    1.420   1_556 S
C901   C902    1.417   .     A
C902   C904    1.401   .     A
C902   H922    1.074   .     S
C903   H923    1.075   .     S
C903   C905    1.400   .     A
C905   C431    1.399   1_556 S
C905   O824    1.384   1_655 S
C906   C595    1.328   1_565 S
C906   H612    1.088   1_565 S
C908   O934    1.296   .     A
C908   O932    1.303   .     A
Cu909  N926    2.020   .     S
Cu909  O935    1.919   .     S
Cu909  O931    1.952   .     S
Cu909  O932    1.941   .     S
Cu909  O927    1.956   .     S
Cu909  Cu910   2.688   .     S
Cu910  O934    1.919   .     S
Cu910  O930    1.952   .     S
Cu910  O933    1.941   .     S
Cu910  O929    1.956   .     S
Cu910  N925    2.020   .     S
H912   C595    1.088   1_565 S
H914   N822    1.029   1_655 S
H915   O936    0.991   .     S
H916   O928    0.991   .     S
H920   C785    1.083   1_655 S
N925   H809    1.029   1_655 S
N925   N822    1.285   1_655 S
O936   C800    1.384   1_655 S
