data_str_m3_o2_o10_pcu_sym.180
_audit_creation_date              2020-01-03
_audit_creation_method            'Materials Studio'
_symmetry_space_group_name_H-M    'P1'
_symmetry_Int_Tables_number       1
_symmetry_cell_setting            triclinic
loop_
_symmetry_equiv_pos_as_xyz
  x,y,z
_cell_length_a                    25.8463
_cell_length_b                    29.9056
_cell_length_c                    28.6197
_cell_angle_alpha                 89.8754
_cell_angle_beta                  97.3669
_cell_angle_gamma                 91.5394
loop_
_atom_site_label
_atom_site_type_symbol
_atom_site_fract_x
_atom_site_fract_y
_atom_site_fract_z
_atom_site_U_iso_or_equiv
_atom_site_adp_type
_atom_site_occupancy
C1     C     0.16706   0.16399   0.25014   0.00000  Uiso   1.00
C2     C     0.16686   0.33580   0.25002   0.00000  Uiso   1.00
C3     C     0.12314   0.23403   0.04728   0.00000  Uiso   1.00
C4     C     0.18480   0.28735   0.44960   0.00000  Uiso   1.00
C5     C     0.12550   0.23136   0.09691   0.00000  Uiso   1.00
C6     C     0.18817   0.28533   0.40071   0.00000  Uiso   1.00
C7     C     0.20826   0.26801   0.10646   0.00000  Uiso   1.00
C8     C     0.14680   0.21369   0.39581   0.00000  Uiso   1.00
C9     C     0.21226   0.26301   0.05813   0.00000  Uiso   1.00
C10    C     0.15214   0.21052   0.44534   0.00000  Uiso   1.00
C11    C     0.16805   0.24833   0.02674   0.00000  Uiso   1.00
C12    C     0.16845   0.24870   0.47347   0.00000  Uiso   1.00
C13    C     0.06752   0.25114   0.23825   0.00000  Uiso   1.00
C14    C     0.26589   0.24880   0.26189   0.00000  Uiso   1.00
C15    C     0.01373   0.25946   0.23420   0.00000  Uiso   1.00
C16    C     0.31997   0.24110   0.26662   0.00000  Uiso   1.00
C17    C     0.13494   0.04508   0.21893   0.00000  Uiso   1.00
C18    C     0.20623   0.45500   0.23772   0.00000  Uiso   1.00
C19    C     0.13547   0.09143   0.21655   0.00000  Uiso   1.00
C20    C     0.20826   0.40904   0.23625   0.00000  Uiso   1.00
C21    C     0.16801   0.11584   0.25094   0.00000  Uiso   1.00
C22    C     0.16623   0.38360   0.25042   0.00000  Uiso   1.00
C23    C     0.20033   0.09461   0.28727   0.00000  Uiso   1.00
C24    C     0.12322   0.40376   0.26646   0.00000  Uiso   1.00
C25    C     0.19882   0.04780   0.29003   0.00000  Uiso   1.00
C26    C     0.12232   0.45050   0.26914   0.00000  Uiso   1.00
C27    C     0.16581   0.02366   0.25522   0.00000  Uiso   1.00
C28    C     0.16442   0.47554   0.25440   0.00000  Uiso   1.00
H29    H     0.11025   0.02547   0.19262   0.00000  Uiso   1.00
H30    H     0.23811   0.47503   0.22668   0.00000  Uiso   1.00
N31    N     0.16667   0.24999   0.12623   0.00000  Uiso   1.00
N32    N     0.16667   0.25001   0.37376   0.00000  Uiso   1.00
O33    O     0.16667   0.18454   0.28974   0.00000  Uiso   1.00
O34    O     0.16666   0.31546   0.21026   0.00000  Uiso   1.00
O35    O     0.16667   0.18453   0.21026   0.00000  Uiso   1.00
O36    O     0.16666   0.31547   0.28974   0.00000  Uiso   1.00
O37    O     0.09058   0.25000   0.28044   0.00000  Uiso   1.00
O38    O     0.24275   0.25000   0.21955   0.00000  Uiso   1.00
O39    O     0.09058   0.24999   0.20096   0.00000  Uiso   1.00
O40    O     0.24275   0.25001   0.29903   0.00000  Uiso   1.00
Zn41   Zn    0.16667   0.25000   0.30307   0.00000  Uiso   1.00
Zn42   Zn    0.16667   0.24999   0.19693   0.00000  Uiso   1.00
O43    O     0.32563   0.29091   0.20233   0.00000  Uiso   1.00
H44    H     0.01968   0.30334   0.18431   0.00000  Uiso   1.00
O45    O     0.00885   0.21136   0.30026   0.00000  Uiso   1.00
H46    H     0.31482   0.19881   0.31822   0.00000  Uiso   1.00
O47    O     0.10378   0.11353   0.18188   0.00000  Uiso   1.00
H48    H     0.08339   0.09128   0.16087   0.00000  Uiso   1.00
O49    O     0.25221   0.39083   0.22179   0.00000  Uiso   1.00
H50    H     0.25358   0.35864   0.22963   0.00000  Uiso   1.00
O51    O     0.23304   0.12070   0.31903   0.00000  Uiso   1.00
H52    H     0.25405   0.10157   0.34204   0.00000  Uiso   1.00
O53    O     0.08301   0.37659   0.27912   0.00000  Uiso   1.00
H54    H     0.05488   0.39501   0.28864   0.00000  Uiso   1.00
O55    O     0.22958   0.02722   0.32664   0.00000  Uiso   1.00
H56    H     0.22041   0.49497   0.32774   0.00000  Uiso   1.00
O57    O     0.08057   0.47009   0.28628   0.00000  Uiso   1.00
H58    H     0.08702   0.00264   0.29049   0.00000  Uiso   1.00
O59    O     0.07651   0.22202   0.02040   0.00000  Uiso   1.00
H60    H     0.07463   0.23721   0.48951   0.00000  Uiso   1.00
O61    O     0.19841   0.32740   0.47259   0.00000  Uiso   1.00
H62    H     0.18042   0.32896   0.00102   0.00000  Uiso   1.00
C63    C     0.08292   0.20873   0.11582   0.00000  Uiso   1.00
N64    N     0.04829   0.19027   0.13013   0.00000  Uiso   1.00
C65    C     0.21588   0.32106   0.37993   0.00000  Uiso   1.00
N66    N     0.23868   0.34990   0.36395   0.00000  Uiso   1.00
O67    O     0.24736   0.29189   0.13294   0.00000  Uiso   1.00
H68    H     0.23180   0.30579   0.15885   0.00000  Uiso   1.00
O69    O     0.12182   0.17874   0.37042   0.00000  Uiso   1.00
H70    H     0.10356   0.19160   0.34130   0.00000  Uiso   1.00
O71    O     0.25948   0.27471   0.04308   0.00000  Uiso   1.00
H72    H     0.26202   0.25943   0.01285   0.00000  Uiso   1.00
O73    O     0.13923   0.16989   0.46444   0.00000  Uiso   1.00
H74    H     0.15663   0.16813   0.49724   0.00000  Uiso   1.00
C75    C     0.50039   0.16399   0.25014   0.00000  Uiso   1.00
C76    C     0.50019   0.33580   0.25002   0.00000  Uiso   1.00
C77    C     0.45648   0.23403   0.04728   0.00000  Uiso   1.00
C78    C     0.51813   0.28735   0.44960   0.00000  Uiso   1.00
C79    C     0.45883   0.23136   0.09691   0.00000  Uiso   1.00
C80    C     0.52150   0.28533   0.40071   0.00000  Uiso   1.00
C81    C     0.54159   0.26801   0.10646   0.00000  Uiso   1.00
C82    C     0.48013   0.21369   0.39581   0.00000  Uiso   1.00
C83    C     0.54559   0.26301   0.05813   0.00000  Uiso   1.00
C84    C     0.48548   0.21052   0.44534   0.00000  Uiso   1.00
C85    C     0.50139   0.24833   0.02674   0.00000  Uiso   1.00
C86    C     0.50179   0.24870   0.47347   0.00000  Uiso   1.00
C87    C     0.40085   0.25114   0.23825   0.00000  Uiso   1.00
C88    C     0.59922   0.24880   0.26189   0.00000  Uiso   1.00
C89    C     0.34707   0.25946   0.23420   0.00000  Uiso   1.00
C90    C     0.65330   0.24110   0.26662   0.00000  Uiso   1.00
C91    C     0.46827   0.04508   0.21893   0.00000  Uiso   1.00
C92    C     0.53956   0.45500   0.23772   0.00000  Uiso   1.00
C93    C     0.46880   0.09143   0.21655   0.00000  Uiso   1.00
C94    C     0.54159   0.40904   0.23625   0.00000  Uiso   1.00
C95    C     0.50135   0.11584   0.25094   0.00000  Uiso   1.00
C96    C     0.49956   0.38360   0.25042   0.00000  Uiso   1.00
C97    C     0.53367   0.09461   0.28727   0.00000  Uiso   1.00
C98    C     0.45655   0.40376   0.26646   0.00000  Uiso   1.00
C99    C     0.53215   0.04780   0.29003   0.00000  Uiso   1.00
C100   C     0.45565   0.45050   0.26914   0.00000  Uiso   1.00
C101   C     0.49915   0.02366   0.25522   0.00000  Uiso   1.00
C102   C     0.49775   0.47554   0.25440   0.00000  Uiso   1.00
H103   H     0.44358   0.02547   0.19262   0.00000  Uiso   1.00
H104   H     0.57145   0.47503   0.22668   0.00000  Uiso   1.00
N105   N     0.50000   0.24999   0.12623   0.00000  Uiso   1.00
N106   N     0.50000   0.25001   0.37376   0.00000  Uiso   1.00
O107   O     0.50000   0.18454   0.28974   0.00000  Uiso   1.00
O108   O     0.50000   0.31546   0.21026   0.00000  Uiso   1.00
O109   O     0.50000   0.18453   0.21026   0.00000  Uiso   1.00
O110   O     0.50000   0.31547   0.28974   0.00000  Uiso   1.00
O111   O     0.42392   0.25000   0.28044   0.00000  Uiso   1.00
O112   O     0.57608   0.25000   0.21955   0.00000  Uiso   1.00
O113   O     0.42392   0.24999   0.20096   0.00000  Uiso   1.00
O114   O     0.57608   0.25001   0.29903   0.00000  Uiso   1.00
Zn115  Zn    0.50000   0.25000   0.30307   0.00000  Uiso   1.00
Zn116  Zn    0.50000   0.24999   0.19693   0.00000  Uiso   1.00
O117   O     0.65897   0.29091   0.20233   0.00000  Uiso   1.00
H118   H     0.35302   0.30334   0.18431   0.00000  Uiso   1.00
O119   O     0.34218   0.21136   0.30026   0.00000  Uiso   1.00
H120   H     0.64816   0.19881   0.31822   0.00000  Uiso   1.00
O121   O     0.43711   0.11353   0.18188   0.00000  Uiso   1.00
H122   H     0.41672   0.09128   0.16087   0.00000  Uiso   1.00
O123   O     0.58554   0.39083   0.22179   0.00000  Uiso   1.00
H124   H     0.58692   0.35864   0.22963   0.00000  Uiso   1.00
O125   O     0.56638   0.12070   0.31903   0.00000  Uiso   1.00
H126   H     0.58739   0.10157   0.34204   0.00000  Uiso   1.00
O127   O     0.41634   0.37659   0.27912   0.00000  Uiso   1.00
H128   H     0.38821   0.39501   0.28864   0.00000  Uiso   1.00
O129   O     0.56292   0.02722   0.32664   0.00000  Uiso   1.00
H130   H     0.55375   0.49497   0.32774   0.00000  Uiso   1.00
O131   O     0.41390   0.47009   0.28628   0.00000  Uiso   1.00
H132   H     0.42036   0.00264   0.29049   0.00000  Uiso   1.00
O133   O     0.40985   0.22202   0.02040   0.00000  Uiso   1.00
H134   H     0.40796   0.23721   0.48951   0.00000  Uiso   1.00
O135   O     0.53175   0.32740   0.47259   0.00000  Uiso   1.00
H136   H     0.51375   0.32896   0.00102   0.00000  Uiso   1.00
C137   C     0.41626   0.20873   0.11582   0.00000  Uiso   1.00
N138   N     0.38162   0.19027   0.13013   0.00000  Uiso   1.00
C139   C     0.54922   0.32106   0.37993   0.00000  Uiso   1.00
N140   N     0.57202   0.34990   0.36395   0.00000  Uiso   1.00
O141   O     0.58069   0.29189   0.13294   0.00000  Uiso   1.00
H142   H     0.56513   0.30579   0.15885   0.00000  Uiso   1.00
O143   O     0.45515   0.17874   0.37042   0.00000  Uiso   1.00
H144   H     0.43689   0.19160   0.34130   0.00000  Uiso   1.00
O145   O     0.59281   0.27471   0.04308   0.00000  Uiso   1.00
H146   H     0.59535   0.25943   0.01285   0.00000  Uiso   1.00
O147   O     0.47256   0.16989   0.46444   0.00000  Uiso   1.00
H148   H     0.48997   0.16813   0.49724   0.00000  Uiso   1.00
C149   C     0.83372   0.16399   0.25014   0.00000  Uiso   1.00
C150   C     0.83352   0.33580   0.25002   0.00000  Uiso   1.00
C151   C     0.78981   0.23403   0.04728   0.00000  Uiso   1.00
C152   C     0.85147   0.28735   0.44960   0.00000  Uiso   1.00
C153   C     0.79217   0.23136   0.09691   0.00000  Uiso   1.00
C154   C     0.85484   0.28533   0.40071   0.00000  Uiso   1.00
C155   C     0.87492   0.26801   0.10646   0.00000  Uiso   1.00
C156   C     0.81346   0.21369   0.39581   0.00000  Uiso   1.00
C157   C     0.87893   0.26301   0.05813   0.00000  Uiso   1.00
C158   C     0.81881   0.21052   0.44534   0.00000  Uiso   1.00
C159   C     0.83472   0.24833   0.02674   0.00000  Uiso   1.00
C160   C     0.83512   0.24870   0.47347   0.00000  Uiso   1.00
C161   C     0.73418   0.25114   0.23825   0.00000  Uiso   1.00
C162   C     0.93256   0.24880   0.26189   0.00000  Uiso   1.00
C163   C     0.68040   0.25946   0.23420   0.00000  Uiso   1.00
C164   C     0.98664   0.24110   0.26662   0.00000  Uiso   1.00
C165   C     0.80161   0.04508   0.21893   0.00000  Uiso   1.00
C166   C     0.87289   0.45500   0.23772   0.00000  Uiso   1.00
C167   C     0.80214   0.09143   0.21655   0.00000  Uiso   1.00
C168   C     0.87493   0.40904   0.23625   0.00000  Uiso   1.00
C169   C     0.83468   0.11584   0.25094   0.00000  Uiso   1.00
C170   C     0.83289   0.38360   0.25042   0.00000  Uiso   1.00
C171   C     0.86700   0.09461   0.28727   0.00000  Uiso   1.00
C172   C     0.78989   0.40376   0.26646   0.00000  Uiso   1.00
C173   C     0.86549   0.04780   0.29003   0.00000  Uiso   1.00
C174   C     0.78898   0.45050   0.26914   0.00000  Uiso   1.00
C175   C     0.83248   0.02366   0.25522   0.00000  Uiso   1.00
C176   C     0.83109   0.47554   0.25440   0.00000  Uiso   1.00
H177   H     0.77692   0.02547   0.19262   0.00000  Uiso   1.00
H178   H     0.90478   0.47503   0.22668   0.00000  Uiso   1.00
N179   N     0.83333   0.24999   0.12623   0.00000  Uiso   1.00
N180   N     0.83333   0.25001   0.37376   0.00000  Uiso   1.00
O181   O     0.83334   0.18454   0.28974   0.00000  Uiso   1.00
O182   O     0.83333   0.31546   0.21026   0.00000  Uiso   1.00
O183   O     0.83334   0.18453   0.21026   0.00000  Uiso   1.00
O184   O     0.83333   0.31547   0.28974   0.00000  Uiso   1.00
O185   O     0.75725   0.25000   0.28044   0.00000  Uiso   1.00
O186   O     0.90942   0.25000   0.21955   0.00000  Uiso   1.00
O187   O     0.75725   0.24999   0.20096   0.00000  Uiso   1.00
O188   O     0.90942   0.25001   0.29903   0.00000  Uiso   1.00
Zn189  Zn    0.83333   0.25000   0.30307   0.00000  Uiso   1.00
Zn190  Zn    0.83333   0.24999   0.19693   0.00000  Uiso   1.00
O191   O     0.99230   0.29091   0.20233   0.00000  Uiso   1.00
H192   H     0.68635   0.30334   0.18431   0.00000  Uiso   1.00
O193   O     0.67551   0.21136   0.30026   0.00000  Uiso   1.00
H194   H     0.98149   0.19881   0.31822   0.00000  Uiso   1.00
O195   O     0.77044   0.11353   0.18188   0.00000  Uiso   1.00
H196   H     0.75005   0.09128   0.16087   0.00000  Uiso   1.00
O197   O     0.91888   0.39083   0.22179   0.00000  Uiso   1.00
H198   H     0.92025   0.35864   0.22963   0.00000  Uiso   1.00
O199   O     0.89971   0.12070   0.31903   0.00000  Uiso   1.00
H200   H     0.92072   0.10157   0.34204   0.00000  Uiso   1.00
O201   O     0.74968   0.37659   0.27912   0.00000  Uiso   1.00
H202   H     0.72155   0.39501   0.28864   0.00000  Uiso   1.00
O203   O     0.89625   0.02722   0.32664   0.00000  Uiso   1.00
H204   H     0.88708   0.49497   0.32774   0.00000  Uiso   1.00
O205   O     0.74724   0.47009   0.28628   0.00000  Uiso   1.00
H206   H     0.75369   0.00264   0.29049   0.00000  Uiso   1.00
O207   O     0.74318   0.22202   0.02040   0.00000  Uiso   1.00
H208   H     0.74129   0.23721   0.48951   0.00000  Uiso   1.00
O209   O     0.86508   0.32740   0.47259   0.00000  Uiso   1.00
H210   H     0.84708   0.32896   0.00102   0.00000  Uiso   1.00
C211   C     0.74959   0.20873   0.11582   0.00000  Uiso   1.00
N212   N     0.71495   0.19027   0.13013   0.00000  Uiso   1.00
C213   C     0.88255   0.32106   0.37993   0.00000  Uiso   1.00
N214   N     0.90535   0.34990   0.36395   0.00000  Uiso   1.00
O215   O     0.91403   0.29189   0.13294   0.00000  Uiso   1.00
H216   H     0.89846   0.30579   0.15885   0.00000  Uiso   1.00
O217   O     0.78848   0.17874   0.37042   0.00000  Uiso   1.00
H218   H     0.77023   0.19160   0.34130   0.00000  Uiso   1.00
O219   O     0.92615   0.27471   0.04308   0.00000  Uiso   1.00
H220   H     0.92869   0.25943   0.01285   0.00000  Uiso   1.00
O221   O     0.80589   0.16989   0.46444   0.00000  Uiso   1.00
H222   H     0.82330   0.16813   0.49724   0.00000  Uiso   1.00
C223   C     0.16706   0.66399   0.25014   0.00000  Uiso   1.00
C224   C     0.16686   0.83580   0.25002   0.00000  Uiso   1.00
C225   C     0.12314   0.73403   0.04728   0.00000  Uiso   1.00
C226   C     0.18480   0.78735   0.44960   0.00000  Uiso   1.00
C227   C     0.12550   0.73136   0.09691   0.00000  Uiso   1.00
C228   C     0.18817   0.78533   0.40071   0.00000  Uiso   1.00
C229   C     0.20826   0.76801   0.10646   0.00000  Uiso   1.00
C230   C     0.14680   0.71369   0.39581   0.00000  Uiso   1.00
C231   C     0.21226   0.76301   0.05813   0.00000  Uiso   1.00
C232   C     0.15214   0.71052   0.44534   0.00000  Uiso   1.00
C233   C     0.16805   0.74833   0.02674   0.00000  Uiso   1.00
C234   C     0.16845   0.74870   0.47347   0.00000  Uiso   1.00
C235   C     0.06752   0.75114   0.23825   0.00000  Uiso   1.00
C236   C     0.26589   0.74880   0.26189   0.00000  Uiso   1.00
C237   C     0.01373   0.75946   0.23420   0.00000  Uiso   1.00
C238   C     0.31997   0.74110   0.26662   0.00000  Uiso   1.00
C239   C     0.13494   0.54508   0.21893   0.00000  Uiso   1.00
C240   C     0.20623   0.95500   0.23772   0.00000  Uiso   1.00
C241   C     0.13547   0.59143   0.21655   0.00000  Uiso   1.00
C242   C     0.20826   0.90904   0.23625   0.00000  Uiso   1.00
C243   C     0.16801   0.61584   0.25094   0.00000  Uiso   1.00
C244   C     0.16623   0.88360   0.25042   0.00000  Uiso   1.00
C245   C     0.20033   0.59461   0.28727   0.00000  Uiso   1.00
C246   C     0.12322   0.90376   0.26646   0.00000  Uiso   1.00
C247   C     0.19882   0.54780   0.29003   0.00000  Uiso   1.00
C248   C     0.12232   0.95050   0.26914   0.00000  Uiso   1.00
C249   C     0.16581   0.52366   0.25522   0.00000  Uiso   1.00
C250   C     0.16442   0.97554   0.25440   0.00000  Uiso   1.00
H251   H     0.11025   0.52547   0.19262   0.00000  Uiso   1.00
H252   H     0.23811   0.97503   0.22668   0.00000  Uiso   1.00
N253   N     0.16667   0.74999   0.12623   0.00000  Uiso   1.00
N254   N     0.16667   0.75001   0.37376   0.00000  Uiso   1.00
O255   O     0.16667   0.68454   0.28974   0.00000  Uiso   1.00
O256   O     0.16666   0.81546   0.21026   0.00000  Uiso   1.00
O257   O     0.16667   0.68453   0.21026   0.00000  Uiso   1.00
O258   O     0.16666   0.81547   0.28974   0.00000  Uiso   1.00
O259   O     0.09058   0.75000   0.28044   0.00000  Uiso   1.00
O260   O     0.24275   0.75000   0.21955   0.00000  Uiso   1.00
O261   O     0.09058   0.74999   0.20096   0.00000  Uiso   1.00
O262   O     0.24275   0.75001   0.29903   0.00000  Uiso   1.00
Zn263  Zn    0.16667   0.75000   0.30307   0.00000  Uiso   1.00
Zn264  Zn    0.16667   0.74999   0.19693   0.00000  Uiso   1.00
O265   O     0.32563   0.79091   0.20233   0.00000  Uiso   1.00
H266   H     0.01968   0.80334   0.18431   0.00000  Uiso   1.00
O267   O     0.00885   0.71136   0.30026   0.00000  Uiso   1.00
H268   H     0.31482   0.69881   0.31822   0.00000  Uiso   1.00
O269   O     0.10378   0.61353   0.18188   0.00000  Uiso   1.00
H270   H     0.08339   0.59128   0.16087   0.00000  Uiso   1.00
O271   O     0.25221   0.89083   0.22179   0.00000  Uiso   1.00
H272   H     0.25358   0.85864   0.22963   0.00000  Uiso   1.00
O273   O     0.23304   0.62070   0.31903   0.00000  Uiso   1.00
H274   H     0.25405   0.60157   0.34204   0.00000  Uiso   1.00
O275   O     0.08301   0.87659   0.27912   0.00000  Uiso   1.00
H276   H     0.05488   0.89501   0.28864   0.00000  Uiso   1.00
O277   O     0.22958   0.52722   0.32664   0.00000  Uiso   1.00
H278   H     0.22041   0.99497   0.32774   0.00000  Uiso   1.00
O279   O     0.08057   0.97009   0.28628   0.00000  Uiso   1.00
H280   H     0.08702   0.50264   0.29049   0.00000  Uiso   1.00
O281   O     0.07651   0.72202   0.02040   0.00000  Uiso   1.00
H282   H     0.07463   0.73721   0.48951   0.00000  Uiso   1.00
O283   O     0.19841   0.82740   0.47259   0.00000  Uiso   1.00
H284   H     0.18042   0.82896   0.00102   0.00000  Uiso   1.00
C285   C     0.08292   0.70873   0.11582   0.00000  Uiso   1.00
N286   N     0.04829   0.69027   0.13013   0.00000  Uiso   1.00
C287   C     0.21588   0.82106   0.37993   0.00000  Uiso   1.00
N288   N     0.23868   0.84990   0.36395   0.00000  Uiso   1.00
O289   O     0.24736   0.79189   0.13294   0.00000  Uiso   1.00
H290   H     0.23180   0.80579   0.15885   0.00000  Uiso   1.00
O291   O     0.12182   0.67874   0.37042   0.00000  Uiso   1.00
H292   H     0.10356   0.69160   0.34130   0.00000  Uiso   1.00
O293   O     0.25948   0.77471   0.04308   0.00000  Uiso   1.00
H294   H     0.26202   0.75943   0.01285   0.00000  Uiso   1.00
O295   O     0.13923   0.66989   0.46444   0.00000  Uiso   1.00
H296   H     0.15663   0.66813   0.49724   0.00000  Uiso   1.00
C297   C     0.50039   0.66399   0.25014   0.00000  Uiso   1.00
C298   C     0.50019   0.83580   0.25002   0.00000  Uiso   1.00
C299   C     0.45648   0.73403   0.04728   0.00000  Uiso   1.00
C300   C     0.51813   0.78735   0.44960   0.00000  Uiso   1.00
C301   C     0.45883   0.73136   0.09691   0.00000  Uiso   1.00
C302   C     0.52150   0.78533   0.40071   0.00000  Uiso   1.00
C303   C     0.54159   0.76801   0.10646   0.00000  Uiso   1.00
C304   C     0.48013   0.71369   0.39581   0.00000  Uiso   1.00
C305   C     0.54559   0.76301   0.05813   0.00000  Uiso   1.00
C306   C     0.48548   0.71052   0.44534   0.00000  Uiso   1.00
C307   C     0.50139   0.74833   0.02674   0.00000  Uiso   1.00
C308   C     0.50179   0.74870   0.47347   0.00000  Uiso   1.00
C309   C     0.40085   0.75114   0.23825   0.00000  Uiso   1.00
C310   C     0.59922   0.74880   0.26189   0.00000  Uiso   1.00
C311   C     0.34707   0.75946   0.23420   0.00000  Uiso   1.00
C312   C     0.65330   0.74110   0.26662   0.00000  Uiso   1.00
C313   C     0.46827   0.54508   0.21893   0.00000  Uiso   1.00
C314   C     0.53956   0.95500   0.23772   0.00000  Uiso   1.00
C315   C     0.46880   0.59143   0.21655   0.00000  Uiso   1.00
C316   C     0.54159   0.90904   0.23625   0.00000  Uiso   1.00
C317   C     0.50135   0.61584   0.25094   0.00000  Uiso   1.00
C318   C     0.49956   0.88360   0.25042   0.00000  Uiso   1.00
C319   C     0.53367   0.59461   0.28727   0.00000  Uiso   1.00
C320   C     0.45655   0.90376   0.26646   0.00000  Uiso   1.00
C321   C     0.53215   0.54780   0.29003   0.00000  Uiso   1.00
C322   C     0.45565   0.95050   0.26914   0.00000  Uiso   1.00
C323   C     0.49915   0.52366   0.25522   0.00000  Uiso   1.00
C324   C     0.49775   0.97554   0.25440   0.00000  Uiso   1.00
H325   H     0.44358   0.52547   0.19262   0.00000  Uiso   1.00
H326   H     0.57145   0.97503   0.22668   0.00000  Uiso   1.00
N327   N     0.50000   0.74999   0.12623   0.00000  Uiso   1.00
N328   N     0.50000   0.75001   0.37376   0.00000  Uiso   1.00
O329   O     0.50000   0.68454   0.28974   0.00000  Uiso   1.00
O330   O     0.50000   0.81546   0.21026   0.00000  Uiso   1.00
O331   O     0.50000   0.68453   0.21026   0.00000  Uiso   1.00
O332   O     0.50000   0.81547   0.28974   0.00000  Uiso   1.00
O333   O     0.42392   0.75000   0.28044   0.00000  Uiso   1.00
O334   O     0.57608   0.75000   0.21955   0.00000  Uiso   1.00
O335   O     0.42392   0.74999   0.20096   0.00000  Uiso   1.00
O336   O     0.57608   0.75001   0.29903   0.00000  Uiso   1.00
Zn337  Zn    0.50000   0.75000   0.30307   0.00000  Uiso   1.00
Zn338  Zn    0.50000   0.74999   0.19693   0.00000  Uiso   1.00
O339   O     0.65897   0.79091   0.20233   0.00000  Uiso   1.00
H340   H     0.35302   0.80334   0.18431   0.00000  Uiso   1.00
O341   O     0.34218   0.71136   0.30026   0.00000  Uiso   1.00
H342   H     0.64816   0.69881   0.31822   0.00000  Uiso   1.00
O343   O     0.43711   0.61353   0.18188   0.00000  Uiso   1.00
H344   H     0.41672   0.59128   0.16087   0.00000  Uiso   1.00
O345   O     0.58554   0.89083   0.22179   0.00000  Uiso   1.00
H346   H     0.58692   0.85864   0.22963   0.00000  Uiso   1.00
O347   O     0.56638   0.62070   0.31903   0.00000  Uiso   1.00
H348   H     0.58739   0.60157   0.34204   0.00000  Uiso   1.00
O349   O     0.41634   0.87659   0.27912   0.00000  Uiso   1.00
H350   H     0.38821   0.89501   0.28864   0.00000  Uiso   1.00
O351   O     0.56292   0.52722   0.32664   0.00000  Uiso   1.00
H352   H     0.55375   0.99497   0.32774   0.00000  Uiso   1.00
O353   O     0.41390   0.97009   0.28628   0.00000  Uiso   1.00
H354   H     0.42036   0.50264   0.29049   0.00000  Uiso   1.00
O355   O     0.40985   0.72202   0.02040   0.00000  Uiso   1.00
H356   H     0.40796   0.73721   0.48951   0.00000  Uiso   1.00
O357   O     0.53175   0.82740   0.47259   0.00000  Uiso   1.00
H358   H     0.51375   0.82896   0.00102   0.00000  Uiso   1.00
C359   C     0.41626   0.70873   0.11582   0.00000  Uiso   1.00
N360   N     0.38162   0.69027   0.13013   0.00000  Uiso   1.00
C361   C     0.54922   0.82106   0.37993   0.00000  Uiso   1.00
N362   N     0.57202   0.84990   0.36395   0.00000  Uiso   1.00
O363   O     0.58069   0.79189   0.13294   0.00000  Uiso   1.00
H364   H     0.56513   0.80579   0.15885   0.00000  Uiso   1.00
O365   O     0.45515   0.67874   0.37042   0.00000  Uiso   1.00
H366   H     0.43689   0.69160   0.34130   0.00000  Uiso   1.00
O367   O     0.59281   0.77471   0.04308   0.00000  Uiso   1.00
H368   H     0.59535   0.75943   0.01285   0.00000  Uiso   1.00
O369   O     0.47256   0.66989   0.46444   0.00000  Uiso   1.00
H370   H     0.48997   0.66813   0.49724   0.00000  Uiso   1.00
C371   C     0.83372   0.66399   0.25014   0.00000  Uiso   1.00
C372   C     0.83352   0.83580   0.25002   0.00000  Uiso   1.00
C373   C     0.78981   0.73403   0.04728   0.00000  Uiso   1.00
C374   C     0.85147   0.78735   0.44960   0.00000  Uiso   1.00
C375   C     0.79217   0.73136   0.09691   0.00000  Uiso   1.00
C376   C     0.85484   0.78533   0.40071   0.00000  Uiso   1.00
C377   C     0.87492   0.76801   0.10646   0.00000  Uiso   1.00
C378   C     0.81346   0.71369   0.39581   0.00000  Uiso   1.00
C379   C     0.87893   0.76301   0.05813   0.00000  Uiso   1.00
C380   C     0.81881   0.71052   0.44534   0.00000  Uiso   1.00
C381   C     0.83472   0.74833   0.02674   0.00000  Uiso   1.00
C382   C     0.83512   0.74870   0.47347   0.00000  Uiso   1.00
C383   C     0.73418   0.75114   0.23825   0.00000  Uiso   1.00
C384   C     0.93256   0.74880   0.26189   0.00000  Uiso   1.00
C385   C     0.68040   0.75946   0.23420   0.00000  Uiso   1.00
C386   C     0.98664   0.74110   0.26662   0.00000  Uiso   1.00
C387   C     0.80161   0.54508   0.21893   0.00000  Uiso   1.00
C388   C     0.87289   0.95500   0.23772   0.00000  Uiso   1.00
C389   C     0.80214   0.59143   0.21655   0.00000  Uiso   1.00
C390   C     0.87493   0.90904   0.23625   0.00000  Uiso   1.00
C391   C     0.83468   0.61584   0.25094   0.00000  Uiso   1.00
C392   C     0.83289   0.88360   0.25042   0.00000  Uiso   1.00
C393   C     0.86700   0.59461   0.28727   0.00000  Uiso   1.00
C394   C     0.78989   0.90376   0.26646   0.00000  Uiso   1.00
C395   C     0.86549   0.54780   0.29003   0.00000  Uiso   1.00
C396   C     0.78898   0.95050   0.26914   0.00000  Uiso   1.00
C397   C     0.83248   0.52366   0.25522   0.00000  Uiso   1.00
C398   C     0.83109   0.97554   0.25440   0.00000  Uiso   1.00
H399   H     0.77692   0.52547   0.19262   0.00000  Uiso   1.00
H400   H     0.90478   0.97503   0.22668   0.00000  Uiso   1.00
N401   N     0.83333   0.74999   0.12623   0.00000  Uiso   1.00
N402   N     0.83333   0.75001   0.37376   0.00000  Uiso   1.00
O403   O     0.83334   0.68454   0.28974   0.00000  Uiso   1.00
O404   O     0.83333   0.81546   0.21026   0.00000  Uiso   1.00
O405   O     0.83334   0.68453   0.21026   0.00000  Uiso   1.00
O406   O     0.83333   0.81547   0.28974   0.00000  Uiso   1.00
O407   O     0.75725   0.75000   0.28044   0.00000  Uiso   1.00
O408   O     0.90942   0.75000   0.21955   0.00000  Uiso   1.00
O409   O     0.75725   0.74999   0.20096   0.00000  Uiso   1.00
O410   O     0.90942   0.75001   0.29903   0.00000  Uiso   1.00
Zn411  Zn    0.83333   0.75000   0.30307   0.00000  Uiso   1.00
Zn412  Zn    0.83333   0.74999   0.19693   0.00000  Uiso   1.00
O413   O     0.99230   0.79091   0.20233   0.00000  Uiso   1.00
H414   H     0.68635   0.80334   0.18431   0.00000  Uiso   1.00
O415   O     0.67551   0.71136   0.30026   0.00000  Uiso   1.00
H416   H     0.98149   0.69881   0.31822   0.00000  Uiso   1.00
O417   O     0.77044   0.61353   0.18188   0.00000  Uiso   1.00
H418   H     0.75005   0.59128   0.16087   0.00000  Uiso   1.00
O419   O     0.91888   0.89083   0.22179   0.00000  Uiso   1.00
H420   H     0.92025   0.85864   0.22963   0.00000  Uiso   1.00
O421   O     0.89971   0.62070   0.31903   0.00000  Uiso   1.00
H422   H     0.92072   0.60157   0.34204   0.00000  Uiso   1.00
O423   O     0.74968   0.87659   0.27912   0.00000  Uiso   1.00
H424   H     0.72155   0.89501   0.28864   0.00000  Uiso   1.00
O425   O     0.89625   0.52722   0.32664   0.00000  Uiso   1.00
H426   H     0.88708   0.99497   0.32774   0.00000  Uiso   1.00
O427   O     0.74724   0.97009   0.28628   0.00000  Uiso   1.00
H428   H     0.75369   0.50264   0.29049   0.00000  Uiso   1.00
O429   O     0.74318   0.72202   0.02040   0.00000  Uiso   1.00
H430   H     0.74129   0.73721   0.48951   0.00000  Uiso   1.00
O431   O     0.86508   0.82740   0.47259   0.00000  Uiso   1.00
H432   H     0.84708   0.82896   0.00102   0.00000  Uiso   1.00
C433   C     0.74959   0.70873   0.11582   0.00000  Uiso   1.00
N434   N     0.71495   0.69027   0.13013   0.00000  Uiso   1.00
C435   C     0.88255   0.82106   0.37993   0.00000  Uiso   1.00
N436   N     0.90535   0.84990   0.36395   0.00000  Uiso   1.00
O437   O     0.91403   0.79189   0.13294   0.00000  Uiso   1.00
H438   H     0.89846   0.80579   0.15885   0.00000  Uiso   1.00
O439   O     0.78848   0.67874   0.37042   0.00000  Uiso   1.00
H440   H     0.77023   0.69160   0.34130   0.00000  Uiso   1.00
O441   O     0.92615   0.77471   0.04308   0.00000  Uiso   1.00
H442   H     0.92869   0.75943   0.01285   0.00000  Uiso   1.00
O443   O     0.80589   0.66989   0.46444   0.00000  Uiso   1.00
H444   H     0.82330   0.66813   0.49724   0.00000  Uiso   1.00
C445   C     0.16706   0.16399   0.75014   0.00000  Uiso   1.00
C446   C     0.16686   0.33580   0.75002   0.00000  Uiso   1.00
C447   C     0.12314   0.23403   0.54728   0.00000  Uiso   1.00
C448   C     0.18480   0.28735   0.94960   0.00000  Uiso   1.00
C449   C     0.12550   0.23136   0.59691   0.00000  Uiso   1.00
C450   C     0.18817   0.28533   0.90071   0.00000  Uiso   1.00
C451   C     0.20826   0.26801   0.60646   0.00000  Uiso   1.00
C452   C     0.14680   0.21369   0.89581   0.00000  Uiso   1.00
C453   C     0.21226   0.26301   0.55813   0.00000  Uiso   1.00
C454   C     0.15214   0.21052   0.94534   0.00000  Uiso   1.00
C455   C     0.16805   0.24833   0.52674   0.00000  Uiso   1.00
C456   C     0.16845   0.24870   0.97347   0.00000  Uiso   1.00
C457   C     0.06752   0.25114   0.73825   0.00000  Uiso   1.00
C458   C     0.26589   0.24880   0.76189   0.00000  Uiso   1.00
C459   C     0.01373   0.25946   0.73420   0.00000  Uiso   1.00
C460   C     0.31997   0.24110   0.76662   0.00000  Uiso   1.00
C461   C     0.13494   0.04508   0.71893   0.00000  Uiso   1.00
C462   C     0.20623   0.45500   0.73772   0.00000  Uiso   1.00
C463   C     0.13547   0.09143   0.71655   0.00000  Uiso   1.00
C464   C     0.20826   0.40904   0.73625   0.00000  Uiso   1.00
C465   C     0.16801   0.11584   0.75094   0.00000  Uiso   1.00
C466   C     0.16623   0.38360   0.75042   0.00000  Uiso   1.00
C467   C     0.20033   0.09461   0.78727   0.00000  Uiso   1.00
C468   C     0.12322   0.40376   0.76646   0.00000  Uiso   1.00
C469   C     0.19882   0.04780   0.79003   0.00000  Uiso   1.00
C470   C     0.12232   0.45050   0.76914   0.00000  Uiso   1.00
C471   C     0.16581   0.02366   0.75522   0.00000  Uiso   1.00
C472   C     0.16442   0.47554   0.75440   0.00000  Uiso   1.00
H473   H     0.11025   0.02547   0.69262   0.00000  Uiso   1.00
H474   H     0.23811   0.47503   0.72668   0.00000  Uiso   1.00
N475   N     0.16667   0.24999   0.62623   0.00000  Uiso   1.00
N476   N     0.16667   0.25001   0.87376   0.00000  Uiso   1.00
O477   O     0.16667   0.18454   0.78974   0.00000  Uiso   1.00
O478   O     0.16666   0.31546   0.71026   0.00000  Uiso   1.00
O479   O     0.16667   0.18453   0.71026   0.00000  Uiso   1.00
O480   O     0.16666   0.31547   0.78974   0.00000  Uiso   1.00
O481   O     0.09058   0.25000   0.78044   0.00000  Uiso   1.00
O482   O     0.24275   0.25000   0.71955   0.00000  Uiso   1.00
O483   O     0.09058   0.24999   0.70096   0.00000  Uiso   1.00
O484   O     0.24275   0.25001   0.79903   0.00000  Uiso   1.00
Zn485  Zn    0.16667   0.25000   0.80307   0.00000  Uiso   1.00
Zn486  Zn    0.16667   0.24999   0.69693   0.00000  Uiso   1.00
O487   O     0.32563   0.29091   0.70233   0.00000  Uiso   1.00
H488   H     0.01968   0.30334   0.68431   0.00000  Uiso   1.00
O489   O     0.00885   0.21136   0.80026   0.00000  Uiso   1.00
H490   H     0.31482   0.19881   0.81822   0.00000  Uiso   1.00
O491   O     0.10378   0.11353   0.68188   0.00000  Uiso   1.00
H492   H     0.08339   0.09128   0.66087   0.00000  Uiso   1.00
O493   O     0.25221   0.39083   0.72179   0.00000  Uiso   1.00
H494   H     0.25358   0.35864   0.72963   0.00000  Uiso   1.00
O495   O     0.23304   0.12070   0.81903   0.00000  Uiso   1.00
H496   H     0.25405   0.10157   0.84204   0.00000  Uiso   1.00
O497   O     0.08301   0.37659   0.77912   0.00000  Uiso   1.00
H498   H     0.05488   0.39501   0.78864   0.00000  Uiso   1.00
O499   O     0.22958   0.02722   0.82664   0.00000  Uiso   1.00
H500   H     0.22041   0.49497   0.82774   0.00000  Uiso   1.00
O501   O     0.08057   0.47009   0.78628   0.00000  Uiso   1.00
H502   H     0.08702   0.00264   0.79049   0.00000  Uiso   1.00
O503   O     0.07651   0.22202   0.52040   0.00000  Uiso   1.00
H504   H     0.07463   0.23721   0.98951   0.00000  Uiso   1.00
O505   O     0.19841   0.32740   0.97259   0.00000  Uiso   1.00
H506   H     0.18042   0.32896   0.50102   0.00000  Uiso   1.00
C507   C     0.08292   0.20873   0.61582   0.00000  Uiso   1.00
N508   N     0.04829   0.19027   0.63013   0.00000  Uiso   1.00
C509   C     0.21588   0.32106   0.87993   0.00000  Uiso   1.00
N510   N     0.23868   0.34990   0.86395   0.00000  Uiso   1.00
O511   O     0.24736   0.29189   0.63294   0.00000  Uiso   1.00
H512   H     0.23180   0.30579   0.65885   0.00000  Uiso   1.00
O513   O     0.12182   0.17874   0.87042   0.00000  Uiso   1.00
H514   H     0.10356   0.19160   0.84130   0.00000  Uiso   1.00
O515   O     0.25948   0.27471   0.54308   0.00000  Uiso   1.00
H516   H     0.26202   0.25943   0.51285   0.00000  Uiso   1.00
O517   O     0.13923   0.16989   0.96444   0.00000  Uiso   1.00
H518   H     0.15663   0.16813   0.99724   0.00000  Uiso   1.00
C519   C     0.50039   0.16399   0.75014   0.00000  Uiso   1.00
C520   C     0.50019   0.33580   0.75002   0.00000  Uiso   1.00
C521   C     0.45648   0.23403   0.54728   0.00000  Uiso   1.00
C522   C     0.51813   0.28735   0.94960   0.00000  Uiso   1.00
C523   C     0.45883   0.23136   0.59691   0.00000  Uiso   1.00
C524   C     0.52150   0.28533   0.90071   0.00000  Uiso   1.00
C525   C     0.54159   0.26801   0.60646   0.00000  Uiso   1.00
C526   C     0.48013   0.21369   0.89581   0.00000  Uiso   1.00
C527   C     0.54559   0.26301   0.55813   0.00000  Uiso   1.00
C528   C     0.48548   0.21052   0.94534   0.00000  Uiso   1.00
C529   C     0.50139   0.24833   0.52674   0.00000  Uiso   1.00
C530   C     0.50179   0.24870   0.97347   0.00000  Uiso   1.00
C531   C     0.40085   0.25114   0.73825   0.00000  Uiso   1.00
C532   C     0.59922   0.24880   0.76189   0.00000  Uiso   1.00
C533   C     0.34707   0.25946   0.73420   0.00000  Uiso   1.00
C534   C     0.65330   0.24110   0.76662   0.00000  Uiso   1.00
C535   C     0.46827   0.04508   0.71893   0.00000  Uiso   1.00
C536   C     0.53956   0.45500   0.73772   0.00000  Uiso   1.00
C537   C     0.46880   0.09143   0.71655   0.00000  Uiso   1.00
C538   C     0.54159   0.40904   0.73625   0.00000  Uiso   1.00
C539   C     0.50135   0.11584   0.75094   0.00000  Uiso   1.00
C540   C     0.49956   0.38360   0.75042   0.00000  Uiso   1.00
C541   C     0.53367   0.09461   0.78727   0.00000  Uiso   1.00
C542   C     0.45655   0.40376   0.76646   0.00000  Uiso   1.00
C543   C     0.53215   0.04780   0.79003   0.00000  Uiso   1.00
C544   C     0.45565   0.45050   0.76914   0.00000  Uiso   1.00
C545   C     0.49915   0.02366   0.75522   0.00000  Uiso   1.00
C546   C     0.49775   0.47554   0.75440   0.00000  Uiso   1.00
H547   H     0.44358   0.02547   0.69262   0.00000  Uiso   1.00
H548   H     0.57145   0.47503   0.72668   0.00000  Uiso   1.00
N549   N     0.50000   0.24999   0.62623   0.00000  Uiso   1.00
N550   N     0.50000   0.25001   0.87376   0.00000  Uiso   1.00
O551   O     0.50000   0.18454   0.78974   0.00000  Uiso   1.00
O552   O     0.50000   0.31546   0.71026   0.00000  Uiso   1.00
O553   O     0.50000   0.18453   0.71026   0.00000  Uiso   1.00
O554   O     0.50000   0.31547   0.78974   0.00000  Uiso   1.00
O555   O     0.42392   0.25000   0.78044   0.00000  Uiso   1.00
O556   O     0.57608   0.25000   0.71955   0.00000  Uiso   1.00
O557   O     0.42392   0.24999   0.70096   0.00000  Uiso   1.00
O558   O     0.57608   0.25001   0.79903   0.00000  Uiso   1.00
Zn559  Zn    0.50000   0.25000   0.80307   0.00000  Uiso   1.00
Zn560  Zn    0.50000   0.24999   0.69693   0.00000  Uiso   1.00
O561   O     0.65897   0.29091   0.70233   0.00000  Uiso   1.00
H562   H     0.35302   0.30334   0.68431   0.00000  Uiso   1.00
O563   O     0.34218   0.21136   0.80026   0.00000  Uiso   1.00
H564   H     0.64816   0.19881   0.81822   0.00000  Uiso   1.00
O565   O     0.43711   0.11353   0.68188   0.00000  Uiso   1.00
H566   H     0.41672   0.09128   0.66087   0.00000  Uiso   1.00
O567   O     0.58554   0.39083   0.72179   0.00000  Uiso   1.00
H568   H     0.58692   0.35864   0.72963   0.00000  Uiso   1.00
O569   O     0.56638   0.12070   0.81903   0.00000  Uiso   1.00
H570   H     0.58739   0.10157   0.84204   0.00000  Uiso   1.00
O571   O     0.41634   0.37659   0.77912   0.00000  Uiso   1.00
H572   H     0.38821   0.39501   0.78864   0.00000  Uiso   1.00
O573   O     0.56292   0.02722   0.82664   0.00000  Uiso   1.00
H574   H     0.55375   0.49497   0.82774   0.00000  Uiso   1.00
O575   O     0.41390   0.47009   0.78628   0.00000  Uiso   1.00
H576   H     0.42036   0.00264   0.79049   0.00000  Uiso   1.00
O577   O     0.40985   0.22202   0.52040   0.00000  Uiso   1.00
H578   H     0.40796   0.23721   0.98951   0.00000  Uiso   1.00
O579   O     0.53175   0.32740   0.97259   0.00000  Uiso   1.00
H580   H     0.51375   0.32896   0.50102   0.00000  Uiso   1.00
C581   C     0.41626   0.20873   0.61582   0.00000  Uiso   1.00
N582   N     0.38162   0.19027   0.63013   0.00000  Uiso   1.00
C583   C     0.54922   0.32106   0.87993   0.00000  Uiso   1.00
N584   N     0.57202   0.34990   0.86395   0.00000  Uiso   1.00
O585   O     0.58069   0.29189   0.63294   0.00000  Uiso   1.00
H586   H     0.56513   0.30579   0.65885   0.00000  Uiso   1.00
O587   O     0.45515   0.17874   0.87042   0.00000  Uiso   1.00
H588   H     0.43689   0.19160   0.84130   0.00000  Uiso   1.00
O589   O     0.59281   0.27471   0.54308   0.00000  Uiso   1.00
H590   H     0.59535   0.25943   0.51285   0.00000  Uiso   1.00
O591   O     0.47256   0.16989   0.96444   0.00000  Uiso   1.00
H592   H     0.48997   0.16813   0.99724   0.00000  Uiso   1.00
C593   C     0.83372   0.16399   0.75014   0.00000  Uiso   1.00
C594   C     0.83352   0.33580   0.75002   0.00000  Uiso   1.00
C595   C     0.78981   0.23403   0.54728   0.00000  Uiso   1.00
C596   C     0.85147   0.28735   0.94960   0.00000  Uiso   1.00
C597   C     0.79217   0.23136   0.59691   0.00000  Uiso   1.00
C598   C     0.85484   0.28533   0.90071   0.00000  Uiso   1.00
C599   C     0.87492   0.26801   0.60646   0.00000  Uiso   1.00
C600   C     0.81346   0.21369   0.89581   0.00000  Uiso   1.00
C601   C     0.87893   0.26301   0.55813   0.00000  Uiso   1.00
C602   C     0.81881   0.21052   0.94534   0.00000  Uiso   1.00
C603   C     0.83472   0.24833   0.52674   0.00000  Uiso   1.00
C604   C     0.83512   0.24870   0.97347   0.00000  Uiso   1.00
C605   C     0.73418   0.25114   0.73825   0.00000  Uiso   1.00
C606   C     0.93256   0.24880   0.76189   0.00000  Uiso   1.00
C607   C     0.68040   0.25946   0.73420   0.00000  Uiso   1.00
C608   C     0.98664   0.24110   0.76662   0.00000  Uiso   1.00
C609   C     0.80161   0.04508   0.71893   0.00000  Uiso   1.00
C610   C     0.87289   0.45500   0.73772   0.00000  Uiso   1.00
C611   C     0.80214   0.09143   0.71655   0.00000  Uiso   1.00
C612   C     0.87493   0.40904   0.73625   0.00000  Uiso   1.00
C613   C     0.83468   0.11584   0.75094   0.00000  Uiso   1.00
C614   C     0.83289   0.38360   0.75042   0.00000  Uiso   1.00
C615   C     0.86700   0.09461   0.78727   0.00000  Uiso   1.00
C616   C     0.78989   0.40376   0.76646   0.00000  Uiso   1.00
C617   C     0.86549   0.04780   0.79003   0.00000  Uiso   1.00
C618   C     0.78898   0.45050   0.76914   0.00000  Uiso   1.00
C619   C     0.83248   0.02366   0.75522   0.00000  Uiso   1.00
C620   C     0.83109   0.47554   0.75440   0.00000  Uiso   1.00
H621   H     0.77692   0.02547   0.69262   0.00000  Uiso   1.00
H622   H     0.90478   0.47503   0.72668   0.00000  Uiso   1.00
N623   N     0.83333   0.24999   0.62623   0.00000  Uiso   1.00
N624   N     0.83333   0.25001   0.87376   0.00000  Uiso   1.00
O625   O     0.83334   0.18454   0.78974   0.00000  Uiso   1.00
O626   O     0.83333   0.31546   0.71026   0.00000  Uiso   1.00
O627   O     0.83334   0.18453   0.71026   0.00000  Uiso   1.00
O628   O     0.83333   0.31547   0.78974   0.00000  Uiso   1.00
O629   O     0.75725   0.25000   0.78044   0.00000  Uiso   1.00
O630   O     0.90942   0.25000   0.71955   0.00000  Uiso   1.00
O631   O     0.75725   0.24999   0.70096   0.00000  Uiso   1.00
O632   O     0.90942   0.25001   0.79903   0.00000  Uiso   1.00
Zn633  Zn    0.83333   0.25000   0.80307   0.00000  Uiso   1.00
Zn634  Zn    0.83333   0.24999   0.69693   0.00000  Uiso   1.00
O635   O     0.99230   0.29091   0.70233   0.00000  Uiso   1.00
H636   H     0.68635   0.30334   0.68431   0.00000  Uiso   1.00
O637   O     0.67551   0.21136   0.80026   0.00000  Uiso   1.00
H638   H     0.98149   0.19881   0.81822   0.00000  Uiso   1.00
O639   O     0.77044   0.11353   0.68188   0.00000  Uiso   1.00
H640   H     0.75005   0.09128   0.66087   0.00000  Uiso   1.00
O641   O     0.91888   0.39083   0.72179   0.00000  Uiso   1.00
H642   H     0.92025   0.35864   0.72963   0.00000  Uiso   1.00
O643   O     0.89971   0.12070   0.81903   0.00000  Uiso   1.00
H644   H     0.92072   0.10157   0.84204   0.00000  Uiso   1.00
O645   O     0.74968   0.37659   0.77912   0.00000  Uiso   1.00
H646   H     0.72155   0.39501   0.78864   0.00000  Uiso   1.00
O647   O     0.89625   0.02722   0.82664   0.00000  Uiso   1.00
H648   H     0.88708   0.49497   0.82774   0.00000  Uiso   1.00
O649   O     0.74724   0.47009   0.78628   0.00000  Uiso   1.00
H650   H     0.75369   0.00264   0.79049   0.00000  Uiso   1.00
O651   O     0.74318   0.22202   0.52040   0.00000  Uiso   1.00
H652   H     0.74129   0.23721   0.98951   0.00000  Uiso   1.00
O653   O     0.86508   0.32740   0.97259   0.00000  Uiso   1.00
H654   H     0.84708   0.32896   0.50102   0.00000  Uiso   1.00
C655   C     0.74959   0.20873   0.61582   0.00000  Uiso   1.00
N656   N     0.71495   0.19027   0.63013   0.00000  Uiso   1.00
C657   C     0.88255   0.32106   0.87993   0.00000  Uiso   1.00
N658   N     0.90535   0.34990   0.86395   0.00000  Uiso   1.00
O659   O     0.91403   0.29189   0.63294   0.00000  Uiso   1.00
H660   H     0.89846   0.30579   0.65885   0.00000  Uiso   1.00
O661   O     0.78848   0.17874   0.87042   0.00000  Uiso   1.00
H662   H     0.77023   0.19160   0.84130   0.00000  Uiso   1.00
O663   O     0.92615   0.27471   0.54308   0.00000  Uiso   1.00
H664   H     0.92869   0.25943   0.51285   0.00000  Uiso   1.00
O665   O     0.80589   0.16989   0.96444   0.00000  Uiso   1.00
H666   H     0.82330   0.16813   0.99724   0.00000  Uiso   1.00
C667   C     0.16706   0.66399   0.75014   0.00000  Uiso   1.00
C668   C     0.16686   0.83580   0.75002   0.00000  Uiso   1.00
C669   C     0.12314   0.73403   0.54728   0.00000  Uiso   1.00
C670   C     0.18480   0.78735   0.94960   0.00000  Uiso   1.00
C671   C     0.12550   0.73136   0.59691   0.00000  Uiso   1.00
C672   C     0.18817   0.78533   0.90071   0.00000  Uiso   1.00
C673   C     0.20826   0.76801   0.60646   0.00000  Uiso   1.00
C674   C     0.14680   0.71369   0.89581   0.00000  Uiso   1.00
C675   C     0.21226   0.76301   0.55813   0.00000  Uiso   1.00
C676   C     0.15214   0.71052   0.94534   0.00000  Uiso   1.00
C677   C     0.16805   0.74833   0.52674   0.00000  Uiso   1.00
C678   C     0.16845   0.74870   0.97347   0.00000  Uiso   1.00
C679   C     0.06752   0.75114   0.73825   0.00000  Uiso   1.00
C680   C     0.26589   0.74880   0.76189   0.00000  Uiso   1.00
C681   C     0.01373   0.75946   0.73420   0.00000  Uiso   1.00
C682   C     0.31997   0.74110   0.76662   0.00000  Uiso   1.00
C683   C     0.13494   0.54508   0.71893   0.00000  Uiso   1.00
C684   C     0.20623   0.95500   0.73772   0.00000  Uiso   1.00
C685   C     0.13547   0.59143   0.71655   0.00000  Uiso   1.00
C686   C     0.20826   0.90904   0.73625   0.00000  Uiso   1.00
C687   C     0.16801   0.61584   0.75094   0.00000  Uiso   1.00
C688   C     0.16623   0.88360   0.75042   0.00000  Uiso   1.00
C689   C     0.20033   0.59461   0.78727   0.00000  Uiso   1.00
C690   C     0.12322   0.90376   0.76646   0.00000  Uiso   1.00
C691   C     0.19882   0.54780   0.79003   0.00000  Uiso   1.00
C692   C     0.12232   0.95050   0.76914   0.00000  Uiso   1.00
C693   C     0.16581   0.52366   0.75522   0.00000  Uiso   1.00
C694   C     0.16442   0.97554   0.75440   0.00000  Uiso   1.00
H695   H     0.11025   0.52547   0.69262   0.00000  Uiso   1.00
H696   H     0.23811   0.97503   0.72668   0.00000  Uiso   1.00
N697   N     0.16667   0.74999   0.62623   0.00000  Uiso   1.00
N698   N     0.16667   0.75001   0.87376   0.00000  Uiso   1.00
O699   O     0.16667   0.68454   0.78974   0.00000  Uiso   1.00
O700   O     0.16666   0.81546   0.71026   0.00000  Uiso   1.00
O701   O     0.16667   0.68453   0.71026   0.00000  Uiso   1.00
O702   O     0.16666   0.81547   0.78974   0.00000  Uiso   1.00
O703   O     0.09058   0.75000   0.78044   0.00000  Uiso   1.00
O704   O     0.24275   0.75000   0.71955   0.00000  Uiso   1.00
O705   O     0.09058   0.74999   0.70096   0.00000  Uiso   1.00
O706   O     0.24275   0.75001   0.79903   0.00000  Uiso   1.00
Zn707  Zn    0.16667   0.75000   0.80307   0.00000  Uiso   1.00
Zn708  Zn    0.16667   0.74999   0.69693   0.00000  Uiso   1.00
O709   O     0.32563   0.79091   0.70233   0.00000  Uiso   1.00
H710   H     0.01968   0.80334   0.68431   0.00000  Uiso   1.00
O711   O     0.00885   0.71136   0.80026   0.00000  Uiso   1.00
H712   H     0.31482   0.69881   0.81822   0.00000  Uiso   1.00
O713   O     0.10378   0.61353   0.68188   0.00000  Uiso   1.00
H714   H     0.08339   0.59128   0.66087   0.00000  Uiso   1.00
O715   O     0.25221   0.89083   0.72179   0.00000  Uiso   1.00
H716   H     0.25358   0.85864   0.72963   0.00000  Uiso   1.00
O717   O     0.23304   0.62070   0.81903   0.00000  Uiso   1.00
H718   H     0.25405   0.60157   0.84204   0.00000  Uiso   1.00
O719   O     0.08301   0.87659   0.77912   0.00000  Uiso   1.00
H720   H     0.05488   0.89501   0.78864   0.00000  Uiso   1.00
O721   O     0.22958   0.52722   0.82664   0.00000  Uiso   1.00
H722   H     0.22041   0.99497   0.82774   0.00000  Uiso   1.00
O723   O     0.08057   0.97009   0.78628   0.00000  Uiso   1.00
H724   H     0.08702   0.50264   0.79049   0.00000  Uiso   1.00
O725   O     0.07651   0.72202   0.52040   0.00000  Uiso   1.00
H726   H     0.07463   0.73721   0.98951   0.00000  Uiso   1.00
O727   O     0.19841   0.82740   0.97259   0.00000  Uiso   1.00
H728   H     0.18042   0.82896   0.50102   0.00000  Uiso   1.00
C729   C     0.08292   0.70873   0.61582   0.00000  Uiso   1.00
N730   N     0.04829   0.69027   0.63013   0.00000  Uiso   1.00
C731   C     0.21588   0.82106   0.87993   0.00000  Uiso   1.00
N732   N     0.23868   0.84990   0.86395   0.00000  Uiso   1.00
O733   O     0.24736   0.79189   0.63294   0.00000  Uiso   1.00
H734   H     0.23180   0.80579   0.65885   0.00000  Uiso   1.00
O735   O     0.12182   0.67874   0.87042   0.00000  Uiso   1.00
H736   H     0.10356   0.69160   0.84130   0.00000  Uiso   1.00
O737   O     0.25948   0.77471   0.54308   0.00000  Uiso   1.00
H738   H     0.26202   0.75943   0.51285   0.00000  Uiso   1.00
O739   O     0.13923   0.66989   0.96444   0.00000  Uiso   1.00
H740   H     0.15663   0.66813   0.99724   0.00000  Uiso   1.00
C741   C     0.50039   0.66399   0.75014   0.00000  Uiso   1.00
C742   C     0.50019   0.83580   0.75002   0.00000  Uiso   1.00
C743   C     0.45648   0.73403   0.54728   0.00000  Uiso   1.00
C744   C     0.51813   0.78735   0.94960   0.00000  Uiso   1.00
C745   C     0.45883   0.73136   0.59691   0.00000  Uiso   1.00
C746   C     0.52150   0.78533   0.90071   0.00000  Uiso   1.00
C747   C     0.54159   0.76801   0.60646   0.00000  Uiso   1.00
C748   C     0.48013   0.71369   0.89581   0.00000  Uiso   1.00
C749   C     0.54559   0.76301   0.55813   0.00000  Uiso   1.00
C750   C     0.48548   0.71052   0.94534   0.00000  Uiso   1.00
C751   C     0.50139   0.74833   0.52674   0.00000  Uiso   1.00
C752   C     0.50179   0.74870   0.97347   0.00000  Uiso   1.00
C753   C     0.40085   0.75114   0.73825   0.00000  Uiso   1.00
C754   C     0.59922   0.74880   0.76189   0.00000  Uiso   1.00
C755   C     0.34707   0.75946   0.73420   0.00000  Uiso   1.00
C756   C     0.65330   0.74110   0.76662   0.00000  Uiso   1.00
C757   C     0.46827   0.54508   0.71893   0.00000  Uiso   1.00
C758   C     0.53956   0.95500   0.73772   0.00000  Uiso   1.00
C759   C     0.46880   0.59143   0.71655   0.00000  Uiso   1.00
C760   C     0.54159   0.90904   0.73625   0.00000  Uiso   1.00
C761   C     0.50135   0.61584   0.75094   0.00000  Uiso   1.00
C762   C     0.49956   0.88360   0.75042   0.00000  Uiso   1.00
C763   C     0.53367   0.59461   0.78727   0.00000  Uiso   1.00
C764   C     0.45655   0.90376   0.76646   0.00000  Uiso   1.00
C765   C     0.53215   0.54780   0.79003   0.00000  Uiso   1.00
C766   C     0.45565   0.95050   0.76914   0.00000  Uiso   1.00
C767   C     0.49915   0.52366   0.75522   0.00000  Uiso   1.00
C768   C     0.49775   0.97554   0.75440   0.00000  Uiso   1.00
H769   H     0.44358   0.52547   0.69262   0.00000  Uiso   1.00
H770   H     0.57145   0.97503   0.72668   0.00000  Uiso   1.00
N771   N     0.50000   0.74999   0.62623   0.00000  Uiso   1.00
N772   N     0.50000   0.75001   0.87376   0.00000  Uiso   1.00
O773   O     0.50000   0.68454   0.78974   0.00000  Uiso   1.00
O774   O     0.50000   0.81546   0.71026   0.00000  Uiso   1.00
O775   O     0.50000   0.68453   0.71026   0.00000  Uiso   1.00
O776   O     0.50000   0.81547   0.78974   0.00000  Uiso   1.00
O777   O     0.42392   0.75000   0.78044   0.00000  Uiso   1.00
O778   O     0.57608   0.75000   0.71955   0.00000  Uiso   1.00
O779   O     0.42392   0.74999   0.70096   0.00000  Uiso   1.00
O780   O     0.57608   0.75001   0.79903   0.00000  Uiso   1.00
Zn781  Zn    0.50000   0.75000   0.80307   0.00000  Uiso   1.00
Zn782  Zn    0.50000   0.74999   0.69693   0.00000  Uiso   1.00
O783   O     0.65897   0.79091   0.70233   0.00000  Uiso   1.00
H784   H     0.35302   0.80334   0.68431   0.00000  Uiso   1.00
O785   O     0.34218   0.71136   0.80026   0.00000  Uiso   1.00
H786   H     0.64816   0.69881   0.81822   0.00000  Uiso   1.00
O787   O     0.43711   0.61353   0.68188   0.00000  Uiso   1.00
H788   H     0.41672   0.59128   0.66087   0.00000  Uiso   1.00
O789   O     0.58554   0.89083   0.72179   0.00000  Uiso   1.00
H790   H     0.58692   0.85864   0.72963   0.00000  Uiso   1.00
O791   O     0.56638   0.62070   0.81903   0.00000  Uiso   1.00
H792   H     0.58739   0.60157   0.84204   0.00000  Uiso   1.00
O793   O     0.41634   0.87659   0.77912   0.00000  Uiso   1.00
H794   H     0.38821   0.89501   0.78864   0.00000  Uiso   1.00
O795   O     0.56292   0.52722   0.82664   0.00000  Uiso   1.00
H796   H     0.55375   0.99497   0.82774   0.00000  Uiso   1.00
O797   O     0.41390   0.97009   0.78628   0.00000  Uiso   1.00
H798   H     0.42036   0.50264   0.79049   0.00000  Uiso   1.00
O799   O     0.40985   0.72202   0.52040   0.00000  Uiso   1.00
H800   H     0.40796   0.73721   0.98951   0.00000  Uiso   1.00
O801   O     0.53175   0.82740   0.97259   0.00000  Uiso   1.00
H802   H     0.51375   0.82896   0.50102   0.00000  Uiso   1.00
C803   C     0.41626   0.70873   0.61582   0.00000  Uiso   1.00
N804   N     0.38162   0.69027   0.63013   0.00000  Uiso   1.00
C805   C     0.54922   0.82106   0.87993   0.00000  Uiso   1.00
N806   N     0.57202   0.84990   0.86395   0.00000  Uiso   1.00
O807   O     0.58069   0.79189   0.63294   0.00000  Uiso   1.00
H808   H     0.56513   0.80579   0.65885   0.00000  Uiso   1.00
O809   O     0.45515   0.67874   0.87042   0.00000  Uiso   1.00
H810   H     0.43689   0.69160   0.84130   0.00000  Uiso   1.00
O811   O     0.59281   0.77471   0.54308   0.00000  Uiso   1.00
H812   H     0.59535   0.75943   0.51285   0.00000  Uiso   1.00
O813   O     0.47256   0.66989   0.96444   0.00000  Uiso   1.00
H814   H     0.48997   0.66813   0.99724   0.00000  Uiso   1.00
C815   C     0.83372   0.66399   0.75014   0.00000  Uiso   1.00
C816   C     0.83352   0.83580   0.75002   0.00000  Uiso   1.00
C817   C     0.78981   0.73403   0.54728   0.00000  Uiso   1.00
C818   C     0.85147   0.78735   0.94960   0.00000  Uiso   1.00
C819   C     0.79217   0.73136   0.59691   0.00000  Uiso   1.00
C820   C     0.85484   0.78533   0.90071   0.00000  Uiso   1.00
C821   C     0.87492   0.76801   0.60646   0.00000  Uiso   1.00
C822   C     0.81346   0.71369   0.89581   0.00000  Uiso   1.00
C823   C     0.87893   0.76301   0.55813   0.00000  Uiso   1.00
C824   C     0.81881   0.71052   0.94534   0.00000  Uiso   1.00
C825   C     0.83472   0.74833   0.52674   0.00000  Uiso   1.00
C826   C     0.83512   0.74870   0.97347   0.00000  Uiso   1.00
C827   C     0.73418   0.75114   0.73825   0.00000  Uiso   1.00
C828   C     0.93256   0.74880   0.76189   0.00000  Uiso   1.00
C829   C     0.68040   0.75946   0.73420   0.00000  Uiso   1.00
C830   C     0.98664   0.74110   0.76662   0.00000  Uiso   1.00
C831   C     0.80161   0.54508   0.71893   0.00000  Uiso   1.00
C832   C     0.87289   0.95500   0.73772   0.00000  Uiso   1.00
C833   C     0.80214   0.59143   0.71655   0.00000  Uiso   1.00
C834   C     0.87493   0.90904   0.73625   0.00000  Uiso   1.00
C835   C     0.83468   0.61584   0.75094   0.00000  Uiso   1.00
C836   C     0.83289   0.88360   0.75042   0.00000  Uiso   1.00
C837   C     0.86700   0.59461   0.78727   0.00000  Uiso   1.00
C838   C     0.78989   0.90376   0.76646   0.00000  Uiso   1.00
C839   C     0.86549   0.54780   0.79003   0.00000  Uiso   1.00
C840   C     0.78898   0.95050   0.76914   0.00000  Uiso   1.00
C841   C     0.83248   0.52366   0.75522   0.00000  Uiso   1.00
C842   C     0.83109   0.97554   0.75440   0.00000  Uiso   1.00
H843   H     0.77692   0.52547   0.69262   0.00000  Uiso   1.00
H844   H     0.90478   0.97503   0.72668   0.00000  Uiso   1.00
N845   N     0.83333   0.74999   0.62623   0.00000  Uiso   1.00
N846   N     0.83333   0.75001   0.87376   0.00000  Uiso   1.00
O847   O     0.83334   0.68454   0.78974   0.00000  Uiso   1.00
O848   O     0.83333   0.81546   0.71026   0.00000  Uiso   1.00
O849   O     0.83334   0.68453   0.71026   0.00000  Uiso   1.00
O850   O     0.83333   0.81547   0.78974   0.00000  Uiso   1.00
O851   O     0.75725   0.75000   0.78044   0.00000  Uiso   1.00
O852   O     0.90942   0.75000   0.71955   0.00000  Uiso   1.00
O853   O     0.75725   0.74999   0.70096   0.00000  Uiso   1.00
O854   O     0.90942   0.75001   0.79903   0.00000  Uiso   1.00
Zn855  Zn    0.83333   0.75000   0.80307   0.00000  Uiso   1.00
Zn856  Zn    0.83333   0.74999   0.69693   0.00000  Uiso   1.00
O857   O     0.99230   0.79091   0.70233   0.00000  Uiso   1.00
H858   H     0.68635   0.80334   0.68431   0.00000  Uiso   1.00
O859   O     0.67551   0.71136   0.80026   0.00000  Uiso   1.00
H860   H     0.98149   0.69881   0.81822   0.00000  Uiso   1.00
O861   O     0.77044   0.61353   0.68188   0.00000  Uiso   1.00
H862   H     0.75005   0.59128   0.66087   0.00000  Uiso   1.00
O863   O     0.91888   0.89083   0.72179   0.00000  Uiso   1.00
H864   H     0.92025   0.85864   0.72963   0.00000  Uiso   1.00
O865   O     0.89971   0.62070   0.81903   0.00000  Uiso   1.00
H866   H     0.92072   0.60157   0.84204   0.00000  Uiso   1.00
O867   O     0.74968   0.87659   0.77912   0.00000  Uiso   1.00
H868   H     0.72155   0.89501   0.78864   0.00000  Uiso   1.00
O869   O     0.89625   0.52722   0.82664   0.00000  Uiso   1.00
H870   H     0.88708   0.99497   0.82774   0.00000  Uiso   1.00
O871   O     0.74724   0.97009   0.78628   0.00000  Uiso   1.00
H872   H     0.75369   0.50264   0.79049   0.00000  Uiso   1.00
O873   O     0.74318   0.72202   0.52040   0.00000  Uiso   1.00
H874   H     0.74129   0.73721   0.98951   0.00000  Uiso   1.00
O875   O     0.86508   0.82740   0.97259   0.00000  Uiso   1.00
H876   H     0.84708   0.82896   0.50102   0.00000  Uiso   1.00
C877   C     0.74959   0.70873   0.61582   0.00000  Uiso   1.00
N878   N     0.71495   0.69027   0.63013   0.00000  Uiso   1.00
C879   C     0.88255   0.82106   0.87993   0.00000  Uiso   1.00
N880   N     0.90535   0.84990   0.86395   0.00000  Uiso   1.00
O881   O     0.91403   0.79189   0.63294   0.00000  Uiso   1.00
H882   H     0.89846   0.80579   0.65885   0.00000  Uiso   1.00
O883   O     0.78848   0.67874   0.87042   0.00000  Uiso   1.00
H884   H     0.77023   0.69160   0.84130   0.00000  Uiso   1.00
O885   O     0.92615   0.77471   0.54308   0.00000  Uiso   1.00
H886   H     0.92869   0.75943   0.51285   0.00000  Uiso   1.00
O887   O     0.80589   0.66989   0.96444   0.00000  Uiso   1.00
H888   H     0.82330   0.66813   0.99724   0.00000  Uiso   1.00
loop_
_geom_bond_atom_site_label_1
_geom_bond_atom_site_label_2
_geom_bond_distance
_geom_bond_site_symmetry_2
_ccdc_geom_bond_type
C1     C21     1.441   .     S
C1     O33     1.291   .     A
C1     O35     1.294   .     A
C2     C22     1.430   .     S
C2     O34     1.291   .     A
C2     O36     1.288   .     A
C3     C11     1.422   .     A
C3     O59     1.383   .     S
C3     C5      1.416   .     A
C4     C12     1.423   .     A
C4     C6      1.415   .     A
C4     O61     1.383   .     S
C5     C63     1.440   .     S
C5     N31     1.374   .     A
C6     N32     1.372   .     A
C6     C65     1.440   .     S
C7     C9      1.409   .     A
C7     N31     1.375   .     A
C7     O67     1.368   .     S
C8     O69     1.372   .     S
C8     C10     1.410   .     A
C8     N32     1.375   .     A
C9     C11     1.420   .     A
C9     O71     1.381   .     S
C10    C12     1.422   .     A
C10    O73     1.381   .     S
C11    C456    1.526   1_554 S
C12    C455    1.526   .     S
C13    C15     1.409   .     S
C13    O37     1.277   .     A
C13    O39     1.288   .     A
C14    O40     1.286   .     A
C14    O38     1.282   .     A
C14    C16     1.412   .     S
C15    C164    1.340   1_455 S
C15    O191    1.385   1_455 S
C16    C89     1.340   .     S
C16    O119    1.389   .     S
C17    H29     1.085   .     S
C17    C27     1.392   .     A
C17    C19     1.387   .     A
C18    C28     1.394   .     A
C18    H30     1.085   .     S
C18    C20     1.378   .     A
C19    C21     1.403   .     A
C19    O47     1.382   .     S
C20    O49     1.383   .     S
C20    C22     1.411   .     A
C21    C23     1.409   .     A
C22    C24     1.406   .     A
C23    O51     1.386   .     S
C23    C25     1.402   .     A
C24    C26     1.401   .     A
C24    O53     1.386   .     S
C25    O55     1.385   .     S
C25    C27     1.412   .     A
C26    O57     1.385   .     S
C26    C28     1.412   .     A
C27    C250    1.439   1_545 S
C28    C249    1.439   .     S
N31    Zn42    2.023   .     S
N32    Zn41    2.023   .     S
O33    Zn41    1.996   .     S
O34    Zn42    1.996   .     S
O35    Zn42    1.994   .     S
O36    Zn41    1.994   .     S
O37    Zn41    1.990   .     S
O38    Zn42    1.990   .     S
O39    Zn42    1.985   .     S
O40    Zn41    1.985   .     S
O43    C89     1.385   .     S
O43    H118    0.992   .     S
H44    O191    0.992   1_455 S
O45    C164    1.389   1_455 S
O45    H194    0.992   1_455 S
H46    O119    0.992   .     S
O47    H48     0.992   .     S
O49    H50     0.988   .     S
O51    H52     0.989   .     S
O53    H54     0.989   .     S
O55    H278    0.989   1_545 S
H56    O277    0.989   .     S
O57    H280    0.988   .     S
H58    O279    0.988   1_545 S
O59    H504    0.989   1_554 S
H60    O503    0.989   .     S
O61    H506    0.989   .     S
H62    O505    0.989   1_554 S
C63    N64     1.158   .     T
C65    N66     1.158   .     T
O67    H68     0.986   .     S
O69    H70     0.986   .     S
O71    H72     0.990   .     S
O73    H74     0.990   .     S
C75    C95     1.441   .     S
C75    O107    1.291   .     A
C75    O109    1.294   .     A
C76    C96     1.430   .     S
C76    O108    1.291   .     A
C76    O110    1.288   .     A
C77    C85     1.422   .     A
C77    O133    1.383   .     S
C77    C79     1.416   .     A
C78    C86     1.423   .     A
C78    C80     1.415   .     A
C78    O135    1.383   .     S
C79    C137    1.440   .     S
C79    N105    1.374   .     A
C80    N106    1.372   .     A
C80    C139    1.440   .     S
C81    C83     1.409   .     A
C81    N105    1.375   .     A
C81    O141    1.368   .     S
C82    O143    1.372   .     S
C82    C84     1.410   .     A
C82    N106    1.375   .     A
C83    C85     1.420   .     A
C83    O145    1.381   .     S
C84    C86     1.422   .     A
C84    O147    1.381   .     S
C85    C530    1.526   1_554 S
C86    C529    1.526   .     S
C87    C89     1.409   .     S
C87    O111    1.277   .     A
C87    O113    1.288   .     A
C88    O114    1.286   .     A
C88    O112    1.282   .     A
C88    C90     1.412   .     S
C90    C163    1.340   .     S
C90    O193    1.389   .     S
C91    H103    1.085   .     S
C91    C101    1.392   .     A
C91    C93     1.387   .     A
C92    C102    1.394   .     A
C92    H104    1.085   .     S
C92    C94     1.378   .     A
C93    C95     1.403   .     A
C93    O121    1.382   .     S
C94    O123    1.383   .     S
C94    C96     1.411   .     A
C95    C97     1.409   .     A
C96    C98     1.406   .     A
C97    O125    1.386   .     S
C97    C99     1.402   .     A
C98    C100    1.401   .     A
C98    O127    1.386   .     S
C99    O129    1.385   .     S
C99    C101    1.412   .     A
C100   O131    1.385   .     S
C100   C102    1.412   .     A
C101   C324    1.439   1_545 S
C102   C323    1.439   .     S
N105   Zn116   2.023   .     S
N106   Zn115   2.023   .     S
O107   Zn115   1.996   .     S
O108   Zn116   1.996   .     S
O109   Zn116   1.994   .     S
O110   Zn115   1.994   .     S
O111   Zn115   1.990   .     S
O112   Zn116   1.990   .     S
O113   Zn116   1.985   .     S
O114   Zn115   1.985   .     S
O117   C163    1.385   .     S
O117   H192    0.992   .     S
H120   O193    0.992   .     S
O121   H122    0.992   .     S
O123   H124    0.988   .     S
O125   H126    0.989   .     S
O127   H128    0.989   .     S
O129   H352    0.989   1_545 S
H130   O351    0.989   .     S
O131   H354    0.988   .     S
H132   O353    0.988   1_545 S
O133   H578    0.989   1_554 S
H134   O577    0.989   .     S
O135   H580    0.989   .     S
H136   O579    0.989   1_554 S
C137   N138    1.158   .     T
C139   N140    1.158   .     T
O141   H142    0.986   .     S
O143   H144    0.986   .     S
O145   H146    0.990   .     S
O147   H148    0.990   .     S
C149   C169    1.441   .     S
C149   O181    1.291   .     A
C149   O183    1.294   .     A
C150   C170    1.430   .     S
C150   O182    1.291   .     A
C150   O184    1.288   .     A
C151   C159    1.422   .     A
C151   O207    1.383   .     S
C151   C153    1.416   .     A
C152   C160    1.423   .     A
C152   C154    1.415   .     A
C152   O209    1.383   .     S
C153   C211    1.440   .     S
C153   N179    1.374   .     A
C154   N180    1.372   .     A
C154   C213    1.440   .     S
C155   C157    1.409   .     A
C155   N179    1.375   .     A
C155   O215    1.368   .     S
C156   O217    1.372   .     S
C156   C158    1.410   .     A
C156   N180    1.375   .     A
C157   C159    1.420   .     A
C157   O219    1.381   .     S
C158   C160    1.422   .     A
C158   O221    1.381   .     S
C159   C604    1.526   1_554 S
C160   C603    1.526   .     S
C161   C163    1.409   .     S
C161   O185    1.277   .     A
C161   O187    1.288   .     A
C162   O188    1.286   .     A
C162   O186    1.282   .     A
C162   C164    1.412   .     S
C164   C15     1.340   1_655 S
C164   O45     1.389   1_655 S
C165   H177    1.085   .     S
C165   C175    1.392   .     A
C165   C167    1.387   .     A
C166   C176    1.394   .     A
C166   H178    1.085   .     S
C166   C168    1.378   .     A
C167   C169    1.403   .     A
C167   O195    1.382   .     S
C168   O197    1.383   .     S
C168   C170    1.411   .     A
C169   C171    1.409   .     A
C170   C172    1.406   .     A
C171   O199    1.386   .     S
C171   C173    1.402   .     A
C172   C174    1.401   .     A
C172   O201    1.386   .     S
C173   O203    1.385   .     S
C173   C175    1.412   .     A
C174   O205    1.385   .     S
C174   C176    1.412   .     A
C175   C398    1.439   1_545 S
C176   C397    1.439   .     S
N179   Zn190   2.023   .     S
N180   Zn189   2.023   .     S
O181   Zn189   1.996   .     S
O182   Zn190   1.996   .     S
O183   Zn190   1.994   .     S
O184   Zn189   1.994   .     S
O185   Zn189   1.990   .     S
O186   Zn190   1.990   .     S
O187   Zn190   1.985   .     S
O188   Zn189   1.985   .     S
O191   C15     1.385   1_655 S
O191   H44     0.992   1_655 S
H194   O45     0.992   1_655 S
O195   H196    0.992   .     S
O197   H198    0.988   .     S
O199   H200    0.989   .     S
O201   H202    0.989   .     S
O203   H426    0.989   1_545 S
H204   O425    0.989   .     S
O205   H428    0.988   .     S
H206   O427    0.988   1_545 S
O207   H652    0.989   1_554 S
H208   O651    0.989   .     S
O209   H654    0.989   .     S
H210   O653    0.989   1_554 S
C211   N212    1.158   .     T
C213   N214    1.158   .     T
O215   H216    0.986   .     S
O217   H218    0.986   .     S
O219   H220    0.990   .     S
O221   H222    0.990   .     S
C223   C243    1.441   .     S
C223   O255    1.291   .     A
C223   O257    1.294   .     A
C224   C244    1.430   .     S
C224   O256    1.291   .     A
C224   O258    1.288   .     A
C225   C233    1.422   .     A
C225   O281    1.383   .     S
C225   C227    1.416   .     A
C226   C234    1.423   .     A
C226   C228    1.415   .     A
C226   O283    1.383   .     S
C227   C285    1.440   .     S
C227   N253    1.374   .     A
C228   N254    1.372   .     A
C228   C287    1.440   .     S
C229   C231    1.409   .     A
C229   N253    1.375   .     A
C229   O289    1.368   .     S
C230   O291    1.372   .     S
C230   C232    1.410   .     A
C230   N254    1.375   .     A
C231   C233    1.420   .     A
C231   O293    1.381   .     S
C232   C234    1.422   .     A
C232   O295    1.381   .     S
C233   C678    1.526   1_554 S
C234   C677    1.526   .     S
C235   C237    1.409   .     S
C235   O259    1.277   .     A
C235   O261    1.288   .     A
C236   O262    1.286   .     A
C236   O260    1.282   .     A
C236   C238    1.412   .     S
C237   C386    1.340   1_455 S
C237   O413    1.385   1_455 S
C238   C311    1.340   .     S
C238   O341    1.389   .     S
C239   H251    1.085   .     S
C239   C249    1.392   .     A
C239   C241    1.387   .     A
C240   C250    1.394   .     A
C240   H252    1.085   .     S
C240   C242    1.378   .     A
C241   C243    1.403   .     A
C241   O269    1.382   .     S
C242   O271    1.383   .     S
C242   C244    1.411   .     A
C243   C245    1.409   .     A
C244   C246    1.406   .     A
C245   O273    1.386   .     S
C245   C247    1.402   .     A
C246   C248    1.401   .     A
C246   O275    1.386   .     S
C247   O277    1.385   .     S
C247   C249    1.412   .     A
C248   O279    1.385   .     S
C248   C250    1.412   .     A
C250   C27     1.439   1_565 S
N253   Zn264   2.023   .     S
N254   Zn263   2.023   .     S
O255   Zn263   1.996   .     S
O256   Zn264   1.996   .     S
O257   Zn264   1.994   .     S
O258   Zn263   1.994   .     S
O259   Zn263   1.990   .     S
O260   Zn264   1.990   .     S
O261   Zn264   1.985   .     S
O262   Zn263   1.985   .     S
O265   C311    1.385   .     S
O265   H340    0.992   .     S
H266   O413    0.992   1_455 S
O267   C386    1.389   1_455 S
O267   H416    0.992   1_455 S
H268   O341    0.992   .     S
O269   H270    0.992   .     S
O271   H272    0.988   .     S
O273   H274    0.989   .     S
O275   H276    0.989   .     S
H278   O55     0.989   1_565 S
O279   H58     0.988   1_565 S
O281   H726    0.989   1_554 S
H282   O725    0.989   .     S
O283   H728    0.989   .     S
H284   O727    0.989   1_554 S
C285   N286    1.158   .     T
C287   N288    1.158   .     T
O289   H290    0.986   .     S
O291   H292    0.986   .     S
O293   H294    0.990   .     S
O295   H296    0.990   .     S
C297   C317    1.441   .     S
C297   O329    1.291   .     A
C297   O331    1.294   .     A
C298   C318    1.430   .     S
C298   O330    1.291   .     A
C298   O332    1.288   .     A
C299   C307    1.422   .     A
C299   O355    1.383   .     S
C299   C301    1.416   .     A
C300   C308    1.423   .     A
C300   C302    1.415   .     A
C300   O357    1.383   .     S
C301   C359    1.440   .     S
C301   N327    1.374   .     A
C302   N328    1.372   .     A
C302   C361    1.440   .     S
C303   C305    1.409   .     A
C303   N327    1.375   .     A
C303   O363    1.368   .     S
C304   O365    1.372   .     S
C304   C306    1.410   .     A
C304   N328    1.375   .     A
C305   C307    1.420   .     A
C305   O367    1.381   .     S
C306   C308    1.422   .     A
C306   O369    1.381   .     S
C307   C752    1.526   1_554 S
C308   C751    1.526   .     S
C309   C311    1.409   .     S
C309   O333    1.277   .     A
C309   O335    1.288   .     A
C310   O336    1.286   .     A
C310   O334    1.282   .     A
C310   C312    1.412   .     S
C312   C385    1.340   .     S
C312   O415    1.389   .     S
C313   H325    1.085   .     S
C313   C323    1.392   .     A
C313   C315    1.387   .     A
C314   C324    1.394   .     A
C314   H326    1.085   .     S
C314   C316    1.378   .     A
C315   C317    1.403   .     A
C315   O343    1.382   .     S
C316   O345    1.383   .     S
C316   C318    1.411   .     A
C317   C319    1.409   .     A
C318   C320    1.406   .     A
C319   O347    1.386   .     S
C319   C321    1.402   .     A
C320   C322    1.401   .     A
C320   O349    1.386   .     S
C321   O351    1.385   .     S
C321   C323    1.412   .     A
C322   O353    1.385   .     S
C322   C324    1.412   .     A
C324   C101    1.439   1_565 S
N327   Zn338   2.023   .     S
N328   Zn337   2.023   .     S
O329   Zn337   1.996   .     S
O330   Zn338   1.996   .     S
O331   Zn338   1.994   .     S
O332   Zn337   1.994   .     S
O333   Zn337   1.990   .     S
O334   Zn338   1.990   .     S
O335   Zn338   1.985   .     S
O336   Zn337   1.985   .     S
O339   C385    1.385   .     S
O339   H414    0.992   .     S
H342   O415    0.992   .     S
O343   H344    0.992   .     S
O345   H346    0.988   .     S
O347   H348    0.989   .     S
O349   H350    0.989   .     S
H352   O129    0.989   1_565 S
O353   H132    0.988   1_565 S
O355   H800    0.989   1_554 S
H356   O799    0.989   .     S
O357   H802    0.989   .     S
H358   O801    0.989   1_554 S
C359   N360    1.158   .     T
C361   N362    1.158   .     T
O363   H364    0.986   .     S
O365   H366    0.986   .     S
O367   H368    0.990   .     S
O369   H370    0.990   .     S
C371   C391    1.441   .     S
C371   O403    1.291   .     A
C371   O405    1.294   .     A
C372   C392    1.430   .     S
C372   O404    1.291   .     A
C372   O406    1.288   .     A
C373   C381    1.422   .     A
C373   O429    1.383   .     S
C373   C375    1.416   .     A
C374   C382    1.423   .     A
C374   C376    1.415   .     A
C374   O431    1.383   .     S
C375   C433    1.440   .     S
C375   N401    1.374   .     A
C376   N402    1.372   .     A
C376   C435    1.440   .     S
C377   C379    1.409   .     A
C377   N401    1.375   .     A
C377   O437    1.368   .     S
C378   O439    1.372   .     S
C378   C380    1.410   .     A
C378   N402    1.375   .     A
C379   C381    1.420   .     A
C379   O441    1.381   .     S
C380   C382    1.422   .     A
C380   O443    1.381   .     S
C381   C826    1.526   1_554 S
C382   C825    1.526   .     S
C383   C385    1.409   .     S
C383   O407    1.277   .     A
C383   O409    1.288   .     A
C384   O410    1.286   .     A
C384   O408    1.282   .     A
C384   C386    1.412   .     S
C386   C237    1.340   1_655 S
C386   O267    1.389   1_655 S
C387   H399    1.085   .     S
C387   C397    1.392   .     A
C387   C389    1.387   .     A
C388   C398    1.394   .     A
C388   H400    1.085   .     S
C388   C390    1.378   .     A
C389   C391    1.403   .     A
C389   O417    1.382   .     S
C390   O419    1.383   .     S
C390   C392    1.411   .     A
C391   C393    1.409   .     A
C392   C394    1.406   .     A
C393   O421    1.386   .     S
C393   C395    1.402   .     A
C394   C396    1.401   .     A
C394   O423    1.386   .     S
C395   O425    1.385   .     S
C395   C397    1.412   .     A
C396   O427    1.385   .     S
C396   C398    1.412   .     A
C398   C175    1.439   1_565 S
N401   Zn412   2.023   .     S
N402   Zn411   2.023   .     S
O403   Zn411   1.996   .     S
O404   Zn412   1.996   .     S
O405   Zn412   1.994   .     S
O406   Zn411   1.994   .     S
O407   Zn411   1.990   .     S
O408   Zn412   1.990   .     S
O409   Zn412   1.985   .     S
O410   Zn411   1.985   .     S
O413   C237    1.385   1_655 S
O413   H266    0.992   1_655 S
H416   O267    0.992   1_655 S
O417   H418    0.992   .     S
O419   H420    0.988   .     S
O421   H422    0.989   .     S
O423   H424    0.989   .     S
H426   O203    0.989   1_565 S
O427   H206    0.988   1_565 S
O429   H874    0.989   1_554 S
H430   O873    0.989   .     S
O431   H876    0.989   .     S
H432   O875    0.989   1_554 S
C433   N434    1.158   .     T
C435   N436    1.158   .     T
O437   H438    0.986   .     S
O439   H440    0.986   .     S
O441   H442    0.990   .     S
O443   H444    0.990   .     S
C445   C465    1.441   .     S
C445   O477    1.291   .     A
C445   O479    1.294   .     A
C446   C466    1.430   .     S
C446   O478    1.291   .     A
C446   O480    1.288   .     A
C447   C455    1.422   .     A
C447   O503    1.383   .     S
C447   C449    1.416   .     A
C448   C456    1.423   .     A
C448   C450    1.415   .     A
C448   O505    1.383   .     S
C449   C507    1.440   .     S
C449   N475    1.374   .     A
C450   N476    1.372   .     A
C450   C509    1.440   .     S
C451   C453    1.409   .     A
C451   N475    1.375   .     A
C451   O511    1.368   .     S
C452   O513    1.372   .     S
C452   C454    1.410   .     A
C452   N476    1.375   .     A
C453   C455    1.420   .     A
C453   O515    1.381   .     S
C454   C456    1.422   .     A
C454   O517    1.381   .     S
C456   C11     1.526   1_556 S
C457   C459    1.409   .     S
C457   O481    1.277   .     A
C457   O483    1.288   .     A
C458   O484    1.286   .     A
C458   O482    1.282   .     A
C458   C460    1.412   .     S
C459   C608    1.340   1_455 S
C459   O635    1.385   1_455 S
C460   C533    1.340   .     S
C460   O563    1.389   .     S
C461   H473    1.085   .     S
C461   C471    1.392   .     A
C461   C463    1.387   .     A
C462   C472    1.394   .     A
C462   H474    1.085   .     S
C462   C464    1.378   .     A
C463   C465    1.403   .     A
C463   O491    1.382   .     S
C464   O493    1.383   .     S
C464   C466    1.411   .     A
C465   C467    1.409   .     A
C466   C468    1.406   .     A
C467   O495    1.386   .     S
C467   C469    1.402   .     A
C468   C470    1.401   .     A
C468   O497    1.386   .     S
C469   O499    1.385   .     S
C469   C471    1.412   .     A
C470   O501    1.385   .     S
C470   C472    1.412   .     A
C471   C694    1.439   1_545 S
C472   C693    1.439   .     S
N475   Zn486   2.023   .     S
N476   Zn485   2.023   .     S
O477   Zn485   1.996   .     S
O478   Zn486   1.996   .     S
O479   Zn486   1.994   .     S
O480   Zn485   1.994   .     S
O481   Zn485   1.990   .     S
O482   Zn486   1.990   .     S
O483   Zn486   1.985   .     S
O484   Zn485   1.985   .     S
O487   C533    1.385   .     S
O487   H562    0.992   .     S
H488   O635    0.992   1_455 S
O489   C608    1.389   1_455 S
O489   H638    0.992   1_455 S
H490   O563    0.992   .     S
O491   H492    0.992   .     S
O493   H494    0.988   .     S
O495   H496    0.989   .     S
O497   H498    0.989   .     S
O499   H722    0.989   1_545 S
H500   O721    0.989   .     S
O501   H724    0.988   .     S
H502   O723    0.988   1_545 S
H504   O59     0.989   1_556 S
O505   H62     0.989   1_556 S
C507   N508    1.158   .     T
C509   N510    1.158   .     T
O511   H512    0.986   .     S
O513   H514    0.986   .     S
O515   H516    0.990   .     S
O517   H518    0.990   .     S
C519   C539    1.441   .     S
C519   O551    1.291   .     A
C519   O553    1.294   .     A
C520   C540    1.430   .     S
C520   O552    1.291   .     A
C520   O554    1.288   .     A
C521   C529    1.422   .     A
C521   O577    1.383   .     S
C521   C523    1.416   .     A
C522   C530    1.423   .     A
C522   C524    1.415   .     A
C522   O579    1.383   .     S
C523   C581    1.440   .     S
C523   N549    1.374   .     A
C524   N550    1.372   .     A
C524   C583    1.440   .     S
C525   C527    1.409   .     A
C525   N549    1.375   .     A
C525   O585    1.368   .     S
C526   O587    1.372   .     S
C526   C528    1.410   .     A
C526   N550    1.375   .     A
C527   C529    1.420   .     A
C527   O589    1.381   .     S
C528   C530    1.422   .     A
C528   O591    1.381   .     S
C530   C85     1.526   1_556 S
C531   C533    1.409   .     S
C531   O555    1.277   .     A
C531   O557    1.288   .     A
C532   O558    1.286   .     A
C532   O556    1.282   .     A
C532   C534    1.412   .     S
C534   C607    1.340   .     S
C534   O637    1.389   .     S
C535   H547    1.085   .     S
C535   C545    1.392   .     A
C535   C537    1.387   .     A
C536   C546    1.394   .     A
C536   H548    1.085   .     S
C536   C538    1.378   .     A
C537   C539    1.403   .     A
C537   O565    1.382   .     S
C538   O567    1.383   .     S
C538   C540    1.411   .     A
C539   C541    1.409   .     A
C540   C542    1.406   .     A
C541   O569    1.386   .     S
C541   C543    1.402   .     A
C542   C544    1.401   .     A
C542   O571    1.386   .     S
C543   O573    1.385   .     S
C543   C545    1.412   .     A
C544   O575    1.385   .     S
C544   C546    1.412   .     A
C545   C768    1.439   1_545 S
C546   C767    1.439   .     S
N549   Zn560   2.023   .     S
N550   Zn559   2.023   .     S
O551   Zn559   1.996   .     S
O552   Zn560   1.996   .     S
O553   Zn560   1.994   .     S
O554   Zn559   1.994   .     S
O555   Zn559   1.990   .     S
O556   Zn560   1.990   .     S
O557   Zn560   1.985   .     S
O558   Zn559   1.985   .     S
O561   C607    1.385   .     S
O561   H636    0.992   .     S
H564   O637    0.992   .     S
O565   H566    0.992   .     S
O567   H568    0.988   .     S
O569   H570    0.989   .     S
O571   H572    0.989   .     S
O573   H796    0.989   1_545 S
H574   O795    0.989   .     S
O575   H798    0.988   .     S
H576   O797    0.988   1_545 S
H578   O133    0.989   1_556 S
O579   H136    0.989   1_556 S
C581   N582    1.158   .     T
C583   N584    1.158   .     T
O585   H586    0.986   .     S
O587   H588    0.986   .     S
O589   H590    0.990   .     S
O591   H592    0.990   .     S
C593   C613    1.441   .     S
C593   O625    1.291   .     A
C593   O627    1.294   .     A
C594   C614    1.430   .     S
C594   O626    1.291   .     A
C594   O628    1.288   .     A
C595   C603    1.422   .     A
C595   O651    1.383   .     S
C595   C597    1.416   .     A
C596   C604    1.423   .     A
C596   C598    1.415   .     A
C596   O653    1.383   .     S
C597   C655    1.440   .     S
C597   N623    1.374   .     A
C598   N624    1.372   .     A
C598   C657    1.440   .     S
C599   C601    1.409   .     A
C599   N623    1.375   .     A
C599   O659    1.368   .     S
C600   O661    1.372   .     S
C600   C602    1.410   .     A
C600   N624    1.375   .     A
C601   C603    1.420   .     A
C601   O663    1.381   .     S
C602   C604    1.422   .     A
C602   O665    1.381   .     S
C604   C159    1.526   1_556 S
C605   C607    1.409   .     S
C605   O629    1.277   .     A
C605   O631    1.288   .     A
C606   O632    1.286   .     A
C606   O630    1.282   .     A
C606   C608    1.412   .     S
C608   C459    1.340   1_655 S
C608   O489    1.389   1_655 S
C609   H621    1.085   .     S
C609   C619    1.392   .     A
C609   C611    1.387   .     A
C610   C620    1.394   .     A
C610   H622    1.085   .     S
C610   C612    1.378   .     A
C611   C613    1.403   .     A
C611   O639    1.382   .     S
C612   O641    1.383   .     S
C612   C614    1.411   .     A
C613   C615    1.409   .     A
C614   C616    1.406   .     A
C615   O643    1.386   .     S
C615   C617    1.402   .     A
C616   C618    1.401   .     A
C616   O645    1.386   .     S
C617   O647    1.385   .     S
C617   C619    1.412   .     A
C618   O649    1.385   .     S
C618   C620    1.412   .     A
C619   C842    1.439   1_545 S
C620   C841    1.439   .     S
N623   Zn634   2.023   .     S
N624   Zn633   2.023   .     S
O625   Zn633   1.996   .     S
O626   Zn634   1.996   .     S
O627   Zn634   1.994   .     S
O628   Zn633   1.994   .     S
O629   Zn633   1.990   .     S
O630   Zn634   1.990   .     S
O631   Zn634   1.985   .     S
O632   Zn633   1.985   .     S
O635   C459    1.385   1_655 S
O635   H488    0.992   1_655 S
H638   O489    0.992   1_655 S
O639   H640    0.992   .     S
O641   H642    0.988   .     S
O643   H644    0.989   .     S
O645   H646    0.989   .     S
O647   H870    0.989   1_545 S
H648   O869    0.989   .     S
O649   H872    0.988   .     S
H650   O871    0.988   1_545 S
H652   O207    0.989   1_556 S
O653   H210    0.989   1_556 S
C655   N656    1.158   .     T
C657   N658    1.158   .     T
O659   H660    0.986   .     S
O661   H662    0.986   .     S
O663   H664    0.990   .     S
O665   H666    0.990   .     S
C667   C687    1.441   .     S
C667   O699    1.291   .     A
C667   O701    1.294   .     A
C668   C688    1.430   .     S
C668   O700    1.291   .     A
C668   O702    1.288   .     A
C669   C677    1.422   .     A
C669   O725    1.383   .     S
C669   C671    1.416   .     A
C670   C678    1.423   .     A
C670   C672    1.415   .     A
C670   O727    1.383   .     S
C671   C729    1.440   .     S
C671   N697    1.374   .     A
C672   N698    1.372   .     A
C672   C731    1.440   .     S
C673   C675    1.409   .     A
C673   N697    1.375   .     A
C673   O733    1.368   .     S
C674   O735    1.372   .     S
C674   C676    1.410   .     A
C674   N698    1.375   .     A
C675   C677    1.420   .     A
C675   O737    1.381   .     S
C676   C678    1.422   .     A
C676   O739    1.381   .     S
C678   C233    1.526   1_556 S
C679   C681    1.409   .     S
C679   O703    1.277   .     A
C679   O705    1.288   .     A
C680   O706    1.286   .     A
C680   O704    1.282   .     A
C680   C682    1.412   .     S
C681   C830    1.340   1_455 S
C681   O857    1.385   1_455 S
C682   C755    1.340   .     S
C682   O785    1.389   .     S
C683   H695    1.085   .     S
C683   C693    1.392   .     A
C683   C685    1.387   .     A
C684   C694    1.394   .     A
C684   H696    1.085   .     S
C684   C686    1.378   .     A
C685   C687    1.403   .     A
C685   O713    1.382   .     S
C686   O715    1.383   .     S
C686   C688    1.411   .     A
C687   C689    1.409   .     A
C688   C690    1.406   .     A
C689   O717    1.386   .     S
C689   C691    1.402   .     A
C690   C692    1.401   .     A
C690   O719    1.386   .     S
C691   O721    1.385   .     S
C691   C693    1.412   .     A
C692   O723    1.385   .     S
C692   C694    1.412   .     A
C694   C471    1.439   1_565 S
N697   Zn708   2.023   .     S
N698   Zn707   2.023   .     S
O699   Zn707   1.996   .     S
O700   Zn708   1.996   .     S
O701   Zn708   1.994   .     S
O702   Zn707   1.994   .     S
O703   Zn707   1.990   .     S
O704   Zn708   1.990   .     S
O705   Zn708   1.985   .     S
O706   Zn707   1.985   .     S
O709   C755    1.385   .     S
O709   H784    0.992   .     S
H710   O857    0.992   1_455 S
O711   C830    1.389   1_455 S
O711   H860    0.992   1_455 S
H712   O785    0.992   .     S
O713   H714    0.992   .     S
O715   H716    0.988   .     S
O717   H718    0.989   .     S
O719   H720    0.989   .     S
H722   O499    0.989   1_565 S
O723   H502    0.988   1_565 S
H726   O281    0.989   1_556 S
O727   H284    0.989   1_556 S
C729   N730    1.158   .     T
C731   N732    1.158   .     T
O733   H734    0.986   .     S
O735   H736    0.986   .     S
O737   H738    0.990   .     S
O739   H740    0.990   .     S
C741   C761    1.441   .     S
C741   O773    1.291   .     A
C741   O775    1.294   .     A
C742   C762    1.430   .     S
C742   O774    1.291   .     A
C742   O776    1.288   .     A
C743   C751    1.422   .     A
C743   O799    1.383   .     S
C743   C745    1.416   .     A
C744   C752    1.423   .     A
C744   C746    1.415   .     A
C744   O801    1.383   .     S
C745   C803    1.440   .     S
C745   N771    1.374   .     A
C746   N772    1.372   .     A
C746   C805    1.440   .     S
C747   C749    1.409   .     A
C747   N771    1.375   .     A
C747   O807    1.368   .     S
C748   O809    1.372   .     S
C748   C750    1.410   .     A
C748   N772    1.375   .     A
C749   C751    1.420   .     A
C749   O811    1.381   .     S
C750   C752    1.422   .     A
C750   O813    1.381   .     S
C752   C307    1.526   1_556 S
C753   C755    1.409   .     S
C753   O777    1.277   .     A
C753   O779    1.288   .     A
C754   O780    1.286   .     A
C754   O778    1.282   .     A
C754   C756    1.412   .     S
C756   C829    1.340   .     S
C756   O859    1.389   .     S
C757   H769    1.085   .     S
C757   C767    1.392   .     A
C757   C759    1.387   .     A
C758   C768    1.394   .     A
C758   H770    1.085   .     S
C758   C760    1.378   .     A
C759   C761    1.403   .     A
C759   O787    1.382   .     S
C760   O789    1.383   .     S
C760   C762    1.411   .     A
C761   C763    1.409   .     A
C762   C764    1.406   .     A
C763   O791    1.386   .     S
C763   C765    1.402   .     A
C764   C766    1.401   .     A
C764   O793    1.386   .     S
C765   O795    1.385   .     S
C765   C767    1.412   .     A
C766   O797    1.385   .     S
C766   C768    1.412   .     A
C768   C545    1.439   1_565 S
N771   Zn782   2.023   .     S
N772   Zn781   2.023   .     S
O773   Zn781   1.996   .     S
O774   Zn782   1.996   .     S
O775   Zn782   1.994   .     S
O776   Zn781   1.994   .     S
O777   Zn781   1.990   .     S
O778   Zn782   1.990   .     S
O779   Zn782   1.985   .     S
O780   Zn781   1.985   .     S
O783   C829    1.385   .     S
O783   H858    0.992   .     S
H786   O859    0.992   .     S
O787   H788    0.992   .     S
O789   H790    0.988   .     S
O791   H792    0.989   .     S
O793   H794    0.989   .     S
H796   O573    0.989   1_565 S
O797   H576    0.988   1_565 S
H800   O355    0.989   1_556 S
O801   H358    0.989   1_556 S
C803   N804    1.158   .     T
C805   N806    1.158   .     T
O807   H808    0.986   .     S
O809   H810    0.986   .     S
O811   H812    0.990   .     S
O813   H814    0.990   .     S
C815   C835    1.441   .     S
C815   O847    1.291   .     A
C815   O849    1.294   .     A
C816   C836    1.430   .     S
C816   O848    1.291   .     A
C816   O850    1.288   .     A
C817   C825    1.422   .     A
C817   O873    1.383   .     S
C817   C819    1.416   .     A
C818   C826    1.423   .     A
C818   C820    1.415   .     A
C818   O875    1.383   .     S
C819   C877    1.440   .     S
C819   N845    1.374   .     A
C820   N846    1.372   .     A
C820   C879    1.440   .     S
C821   C823    1.409   .     A
C821   N845    1.375   .     A
C821   O881    1.368   .     S
C822   O883    1.372   .     S
C822   C824    1.410   .     A
C822   N846    1.375   .     A
C823   C825    1.420   .     A
C823   O885    1.381   .     S
C824   C826    1.422   .     A
C824   O887    1.381   .     S
C826   C381    1.526   1_556 S
C827   C829    1.409   .     S
C827   O851    1.277   .     A
C827   O853    1.288   .     A
C828   O854    1.286   .     A
C828   O852    1.282   .     A
C828   C830    1.412   .     S
C830   C681    1.340   1_655 S
C830   O711    1.389   1_655 S
C831   H843    1.085   .     S
C831   C841    1.392   .     A
C831   C833    1.387   .     A
C832   C842    1.394   .     A
C832   H844    1.085   .     S
C832   C834    1.378   .     A
C833   C835    1.403   .     A
C833   O861    1.382   .     S
C834   O863    1.383   .     S
C834   C836    1.411   .     A
C835   C837    1.409   .     A
C836   C838    1.406   .     A
C837   O865    1.386   .     S
C837   C839    1.402   .     A
C838   C840    1.401   .     A
C838   O867    1.386   .     S
C839   O869    1.385   .     S
C839   C841    1.412   .     A
C840   O871    1.385   .     S
C840   C842    1.412   .     A
C842   C619    1.439   1_565 S
N845   Zn856   2.023   .     S
N846   Zn855   2.023   .     S
O847   Zn855   1.996   .     S
O848   Zn856   1.996   .     S
O849   Zn856   1.994   .     S
O850   Zn855   1.994   .     S
O851   Zn855   1.990   .     S
O852   Zn856   1.990   .     S
O853   Zn856   1.985   .     S
O854   Zn855   1.985   .     S
O857   C681    1.385   1_655 S
O857   H710    0.992   1_655 S
H860   O711    0.992   1_655 S
O861   H862    0.992   .     S
O863   H864    0.988   .     S
O865   H866    0.989   .     S
O867   H868    0.989   .     S
H870   O647    0.989   1_565 S
O871   H650    0.988   1_565 S
H874   O429    0.989   1_556 S
O875   H432    0.989   1_556 S
C877   N878    1.158   .     T
C879   N880    1.158   .     T
O881   H882    0.986   .     S
O883   H884    0.986   .     S
O885   H886    0.990   .     S
O887   H888    0.990   .     S
