data_str_m3_o1_o18_pcu_sym.112
_audit_creation_date              2020-01-03
_audit_creation_method            'Materials Studio'
_symmetry_space_group_name_H-M    'P1'
_symmetry_Int_Tables_number       1
_symmetry_cell_setting            triclinic
loop_
_symmetry_equiv_pos_as_xyz
  x,y,z
_cell_length_a                    29.8302
_cell_length_b                    31.9059
_cell_length_c                    30.9873
_cell_angle_alpha                 90.8692
_cell_angle_beta                  66.7368
_cell_angle_gamma                 88.4454
loop_
_atom_site_label
_atom_site_type_symbol
_atom_site_fract_x
_atom_site_fract_y
_atom_site_fract_z
_atom_site_U_iso_or_equiv
_atom_site_adp_type
_atom_site_occupancy
C1     C     0.16612   0.24657   0.25033   0.00000  Uiso   1.00
C2     C     0.16722   0.08677   0.24965   0.00000  Uiso   1.00
C3     C     0.10660   0.16719   0.05462   0.00000  Uiso   1.00
C4     C     0.21241   0.20868   0.45536   0.00000  Uiso   1.00
C5     C     0.07268   0.16237   0.03470   0.00000  Uiso   1.00
C6     C     0.24611   0.21375   0.47556   0.00000  Uiso   1.00
C7     C     0.18684   0.31166   0.27735   0.00000  Uiso   1.00
C8     C     0.14654   0.02166   0.22259   0.00000  Uiso   1.00
C9     C     0.18790   0.02129   0.27668   0.00000  Uiso   1.00
C10    C     0.14550   0.31203   0.22325   0.00000  Uiso   1.00
C11    C     0.16788   0.04257   0.24919   0.00000  Uiso   1.00
C12    C     0.16549   0.29076   0.25076   0.00000  Uiso   1.00
C13    C     0.32173   0.13618   0.22519   0.00000  Uiso   1.00
C14    C     0.01162   0.19718   0.27478   0.00000  Uiso   1.00
C15    C     0.03559   0.13664   0.22584   0.00000  Uiso   1.00
C16    C     0.29775   0.19670   0.27415   0.00000  Uiso   1.00
C17    C     0.13586   0.16743   0.33813   0.00000  Uiso   1.00
C18    C     0.19743   0.16678   0.16188   0.00000  Uiso   1.00
C19    C     0.11616   0.17030   0.38940   0.00000  Uiso   1.00
C20    C     0.21608   0.17202   0.11119   0.00000  Uiso   1.00
C21    C     0.05358   0.15798   0.46582   0.00000  Uiso   1.00
C22    C     0.27065   0.20431   0.04072   0.00000  Uiso   1.00
C23    C     0.06846   0.15939   0.41721   0.00000  Uiso   1.00
C24    C     0.26008   0.19142   0.08646   0.00000  Uiso   1.00
C25    C     0.14754   0.18246   0.41047   0.00000  Uiso   1.00
C26    C     0.18414   0.16404   0.08946   0.00000  Uiso   1.00
C27    C     0.13367   0.18120   0.45902   0.00000  Uiso   1.00
C28    C     0.19137   0.18060   0.04593   0.00000  Uiso   1.00
C29    C     0.08627   0.16757   0.48675   0.00000  Uiso   1.00
C30    C     0.23637   0.19943   0.02045   0.00000  Uiso   1.00
C31    C     0.16715   0.18979   0.48001   0.00000  Uiso   1.00
C32    C     0.15501   0.17872   0.02725   0.00000  Uiso   1.00
H33    H     0.03621   0.15296   0.05663   0.00000  Uiso   1.00
H34    H     0.28011   0.22869   0.45577   0.00000  Uiso   1.00
H35    H     0.15274   0.14575   0.10808   0.00000  Uiso   1.00
H36    H     0.18407   0.19030   0.38786   0.00000  Uiso   1.00
H37    H     0.28515   0.19804   0.10297   0.00000  Uiso   1.00
H38    H     0.04356   0.15032   0.40133   0.00000  Uiso   1.00
H39    H     0.01729   0.14765   0.48682   0.00000  Uiso   1.00
H40    H     0.30470   0.21951   0.02188   0.00000  Uiso   1.00
H41    H     0.09341   0.16269   0.09197   0.00000  Uiso   1.00
H42    H     0.22217   0.22133   0.42090   0.00000  Uiso   1.00
H43    H     0.20218   0.29479   0.29874   0.00000  Uiso   1.00
H44    H     0.13119   0.03854   0.20121   0.00000  Uiso   1.00
H45    H     0.20342   0.03788   0.29798   0.00000  Uiso   1.00
H46    H     0.13000   0.29544   0.20193   0.00000  Uiso   1.00
H47    H     0.06303   0.11264   0.20727   0.00000  Uiso   1.00
H48    H     0.27030   0.22070   0.29272   0.00000  Uiso   1.00
N49    N     0.04759   0.16668   0.25001   0.00000  Uiso   1.00
N50    N     0.28574   0.16666   0.24999   0.00000  Uiso   1.00
O51    O     0.12846   0.22775   0.25001   0.00000  Uiso   1.00
O52    O     0.20488   0.10558   0.25000   0.00000  Uiso   1.00
O53    O     0.20490   0.22774   0.25000   0.00000  Uiso   1.00
O54    O     0.12843   0.10559   0.25000   0.00000  Uiso   1.00
O55    O     0.10661   0.16667   0.31613   0.00000  Uiso   1.00
O56    O     0.22672   0.16666   0.18388   0.00000  Uiso   1.00
O57    O     0.18305   0.16666   0.31612   0.00000  Uiso   1.00
O58    O     0.15028   0.16667   0.18388   0.00000  Uiso   1.00
Zn59   Zn    0.11562   0.16667   0.25000   0.00000  Uiso   1.00
Zn60   Zn    0.21771   0.16666   0.25000   0.00000  Uiso   1.00
S61    S     0.31288   0.09253   0.19353   0.00000  Uiso   1.00
O62    O     0.28886   0.05897   0.22763   0.00000  Uiso   1.00
O63    O     0.28299   0.10330   0.16593   0.00000  Uiso   1.00
O64    O     0.03407   0.07307   0.15534   0.00000  Uiso   1.00
H65    H     0.02678   0.04677   0.14238   0.00000  Uiso   1.00
S66    S     0.02051   0.24090   0.30633   0.00000  Uiso   1.00
O67    O     0.05035   0.23013   0.33399   0.00000  Uiso   1.00
O68    O     0.04462   0.27438   0.27216   0.00000  Uiso   1.00
O69    O     0.29935   0.26050   0.34442   0.00000  Uiso   1.00
H70    H     0.30689   0.28587   0.35877   0.00000  Uiso   1.00
C71    C     0.49945   0.24657   0.25033   0.00000  Uiso   1.00
C72    C     0.50056   0.08677   0.24965   0.00000  Uiso   1.00
C73    C     0.43993   0.16719   0.05462   0.00000  Uiso   1.00
C74    C     0.54574   0.20868   0.45536   0.00000  Uiso   1.00
C75    C     0.40601   0.16237   0.03470   0.00000  Uiso   1.00
C76    C     0.57944   0.21375   0.47556   0.00000  Uiso   1.00
C77    C     0.52017   0.31166   0.27735   0.00000  Uiso   1.00
C78    C     0.47987   0.02166   0.22259   0.00000  Uiso   1.00
C79    C     0.52123   0.02129   0.27668   0.00000  Uiso   1.00
C80    C     0.47884   0.31203   0.22325   0.00000  Uiso   1.00
C81    C     0.50122   0.04257   0.24919   0.00000  Uiso   1.00
C82    C     0.49882   0.29076   0.25076   0.00000  Uiso   1.00
C83    C     0.65506   0.13618   0.22519   0.00000  Uiso   1.00
C84    C     0.34495   0.19718   0.27478   0.00000  Uiso   1.00
C85    C     0.36892   0.13664   0.22584   0.00000  Uiso   1.00
C86    C     0.63108   0.19670   0.27415   0.00000  Uiso   1.00
C87    C     0.46919   0.16743   0.33813   0.00000  Uiso   1.00
C88    C     0.53076   0.16678   0.16188   0.00000  Uiso   1.00
C89    C     0.44949   0.17030   0.38940   0.00000  Uiso   1.00
C90    C     0.54942   0.17202   0.11119   0.00000  Uiso   1.00
C91    C     0.38691   0.15798   0.46582   0.00000  Uiso   1.00
C92    C     0.60398   0.20431   0.04072   0.00000  Uiso   1.00
C93    C     0.40179   0.15939   0.41721   0.00000  Uiso   1.00
C94    C     0.59341   0.19142   0.08646   0.00000  Uiso   1.00
C95    C     0.48087   0.18246   0.41047   0.00000  Uiso   1.00
C96    C     0.51748   0.16404   0.08946   0.00000  Uiso   1.00
C97    C     0.46700   0.18120   0.45902   0.00000  Uiso   1.00
C98    C     0.52470   0.18060   0.04593   0.00000  Uiso   1.00
C99    C     0.41960   0.16757   0.48675   0.00000  Uiso   1.00
C100   C     0.56970   0.19943   0.02045   0.00000  Uiso   1.00
C101   C     0.50048   0.18979   0.48001   0.00000  Uiso   1.00
C102   C     0.48835   0.17872   0.02725   0.00000  Uiso   1.00
H103   H     0.36954   0.15296   0.05663   0.00000  Uiso   1.00
H104   H     0.61344   0.22869   0.45577   0.00000  Uiso   1.00
H105   H     0.48608   0.14575   0.10808   0.00000  Uiso   1.00
H106   H     0.51740   0.19030   0.38786   0.00000  Uiso   1.00
H107   H     0.61848   0.19804   0.10297   0.00000  Uiso   1.00
H108   H     0.37690   0.15032   0.40133   0.00000  Uiso   1.00
H109   H     0.35062   0.14765   0.48682   0.00000  Uiso   1.00
H110   H     0.63803   0.21951   0.02188   0.00000  Uiso   1.00
H111   H     0.42675   0.16269   0.09197   0.00000  Uiso   1.00
H112   H     0.55550   0.22133   0.42090   0.00000  Uiso   1.00
H113   H     0.53551   0.29479   0.29874   0.00000  Uiso   1.00
H114   H     0.46453   0.03854   0.20121   0.00000  Uiso   1.00
H115   H     0.53676   0.03788   0.29798   0.00000  Uiso   1.00
H116   H     0.46333   0.29544   0.20193   0.00000  Uiso   1.00
H117   H     0.39636   0.11264   0.20727   0.00000  Uiso   1.00
H118   H     0.60364   0.22070   0.29272   0.00000  Uiso   1.00
N119   N     0.38093   0.16668   0.25001   0.00000  Uiso   1.00
N120   N     0.61907   0.16666   0.24999   0.00000  Uiso   1.00
O121   O     0.46179   0.22775   0.25001   0.00000  Uiso   1.00
O122   O     0.53821   0.10558   0.25000   0.00000  Uiso   1.00
O123   O     0.53823   0.22774   0.25000   0.00000  Uiso   1.00
O124   O     0.46177   0.10559   0.25000   0.00000  Uiso   1.00
O125   O     0.43994   0.16667   0.31613   0.00000  Uiso   1.00
O126   O     0.56006   0.16666   0.18388   0.00000  Uiso   1.00
O127   O     0.51639   0.16666   0.31612   0.00000  Uiso   1.00
O128   O     0.48361   0.16667   0.18388   0.00000  Uiso   1.00
Zn129  Zn    0.44896   0.16667   0.25000   0.00000  Uiso   1.00
Zn130  Zn    0.55104   0.16666   0.25000   0.00000  Uiso   1.00
S131   S     0.64621   0.09253   0.19353   0.00000  Uiso   1.00
O132   O     0.62219   0.05897   0.22763   0.00000  Uiso   1.00
O133   O     0.61632   0.10330   0.16593   0.00000  Uiso   1.00
O134   O     0.36740   0.07307   0.15534   0.00000  Uiso   1.00
H135   H     0.36011   0.04677   0.14238   0.00000  Uiso   1.00
S136   S     0.35385   0.24090   0.30633   0.00000  Uiso   1.00
O137   O     0.38368   0.23013   0.33399   0.00000  Uiso   1.00
O138   O     0.37795   0.27438   0.27216   0.00000  Uiso   1.00
O139   O     0.63269   0.26050   0.34442   0.00000  Uiso   1.00
H140   H     0.64022   0.28587   0.35877   0.00000  Uiso   1.00
C141   C     0.83279   0.24657   0.25033   0.00000  Uiso   1.00
C142   C     0.83389   0.08677   0.24965   0.00000  Uiso   1.00
C143   C     0.77326   0.16719   0.05462   0.00000  Uiso   1.00
C144   C     0.87907   0.20868   0.45536   0.00000  Uiso   1.00
C145   C     0.73934   0.16237   0.03470   0.00000  Uiso   1.00
C146   C     0.91277   0.21375   0.47556   0.00000  Uiso   1.00
C147   C     0.85350   0.31166   0.27735   0.00000  Uiso   1.00
C148   C     0.81321   0.02166   0.22259   0.00000  Uiso   1.00
C149   C     0.85456   0.02129   0.27668   0.00000  Uiso   1.00
C150   C     0.81217   0.31203   0.22325   0.00000  Uiso   1.00
C151   C     0.83455   0.04257   0.24919   0.00000  Uiso   1.00
C152   C     0.83215   0.29076   0.25076   0.00000  Uiso   1.00
C153   C     0.98839   0.13618   0.22519   0.00000  Uiso   1.00
C154   C     0.67829   0.19718   0.27478   0.00000  Uiso   1.00
C155   C     0.70225   0.13664   0.22584   0.00000  Uiso   1.00
C156   C     0.96442   0.19670   0.27415   0.00000  Uiso   1.00
C157   C     0.80252   0.16743   0.33813   0.00000  Uiso   1.00
C158   C     0.86409   0.16678   0.16188   0.00000  Uiso   1.00
C159   C     0.78282   0.17030   0.38940   0.00000  Uiso   1.00
C160   C     0.88275   0.17202   0.11119   0.00000  Uiso   1.00
C161   C     0.72024   0.15798   0.46582   0.00000  Uiso   1.00
C162   C     0.93732   0.20431   0.04072   0.00000  Uiso   1.00
C163   C     0.73513   0.15939   0.41721   0.00000  Uiso   1.00
C164   C     0.92675   0.19142   0.08646   0.00000  Uiso   1.00
C165   C     0.81421   0.18246   0.41047   0.00000  Uiso   1.00
C166   C     0.85081   0.16404   0.08946   0.00000  Uiso   1.00
C167   C     0.80034   0.18120   0.45902   0.00000  Uiso   1.00
C168   C     0.85803   0.18060   0.04593   0.00000  Uiso   1.00
C169   C     0.75293   0.16757   0.48675   0.00000  Uiso   1.00
C170   C     0.90303   0.19943   0.02045   0.00000  Uiso   1.00
C171   C     0.83381   0.18979   0.48001   0.00000  Uiso   1.00
C172   C     0.82168   0.17872   0.02725   0.00000  Uiso   1.00
H173   H     0.70287   0.15296   0.05663   0.00000  Uiso   1.00
H174   H     0.94677   0.22869   0.45577   0.00000  Uiso   1.00
H175   H     0.81941   0.14575   0.10808   0.00000  Uiso   1.00
H176   H     0.85073   0.19030   0.38786   0.00000  Uiso   1.00
H177   H     0.95181   0.19804   0.10297   0.00000  Uiso   1.00
H178   H     0.71023   0.15032   0.40133   0.00000  Uiso   1.00
H179   H     0.68395   0.14765   0.48682   0.00000  Uiso   1.00
H180   H     0.97136   0.21951   0.02188   0.00000  Uiso   1.00
H181   H     0.76008   0.16269   0.09197   0.00000  Uiso   1.00
H182   H     0.88884   0.22133   0.42090   0.00000  Uiso   1.00
H183   H     0.86884   0.29479   0.29874   0.00000  Uiso   1.00
H184   H     0.79786   0.03854   0.20121   0.00000  Uiso   1.00
H185   H     0.87009   0.03788   0.29798   0.00000  Uiso   1.00
H186   H     0.79666   0.29544   0.20193   0.00000  Uiso   1.00
H187   H     0.72970   0.11264   0.20727   0.00000  Uiso   1.00
H188   H     0.93697   0.22070   0.29272   0.00000  Uiso   1.00
N189   N     0.71426   0.16668   0.25001   0.00000  Uiso   1.00
N190   N     0.95241   0.16666   0.24999   0.00000  Uiso   1.00
O191   O     0.79512   0.22775   0.25001   0.00000  Uiso   1.00
O192   O     0.87154   0.10558   0.25000   0.00000  Uiso   1.00
O193   O     0.87157   0.22774   0.25000   0.00000  Uiso   1.00
O194   O     0.79510   0.10559   0.25000   0.00000  Uiso   1.00
O195   O     0.77328   0.16667   0.31613   0.00000  Uiso   1.00
O196   O     0.89339   0.16666   0.18388   0.00000  Uiso   1.00
O197   O     0.84972   0.16666   0.31612   0.00000  Uiso   1.00
O198   O     0.81695   0.16667   0.18388   0.00000  Uiso   1.00
Zn199  Zn    0.78229   0.16667   0.25000   0.00000  Uiso   1.00
Zn200  Zn    0.88438   0.16666   0.25000   0.00000  Uiso   1.00
S201   S     0.97954   0.09253   0.19353   0.00000  Uiso   1.00
O202   O     0.95552   0.05897   0.22763   0.00000  Uiso   1.00
O203   O     0.94965   0.10330   0.16593   0.00000  Uiso   1.00
O204   O     0.70073   0.07307   0.15534   0.00000  Uiso   1.00
H205   H     0.69344   0.04677   0.14238   0.00000  Uiso   1.00
S206   S     0.68718   0.24090   0.30633   0.00000  Uiso   1.00
O207   O     0.71702   0.23013   0.33399   0.00000  Uiso   1.00
O208   O     0.71129   0.27438   0.27216   0.00000  Uiso   1.00
O209   O     0.96602   0.26050   0.34442   0.00000  Uiso   1.00
H210   H     0.97356   0.28587   0.35877   0.00000  Uiso   1.00
C211   C     0.16612   0.57990   0.25033   0.00000  Uiso   1.00
C212   C     0.16722   0.42010   0.24965   0.00000  Uiso   1.00
C213   C     0.10660   0.50053   0.05462   0.00000  Uiso   1.00
C214   C     0.21241   0.54201   0.45536   0.00000  Uiso   1.00
C215   C     0.07268   0.49571   0.03470   0.00000  Uiso   1.00
C216   C     0.24611   0.54709   0.47556   0.00000  Uiso   1.00
C217   C     0.18684   0.64500   0.27735   0.00000  Uiso   1.00
C218   C     0.14654   0.35499   0.22259   0.00000  Uiso   1.00
C219   C     0.18790   0.35462   0.27668   0.00000  Uiso   1.00
C220   C     0.14550   0.64537   0.22325   0.00000  Uiso   1.00
C221   C     0.16788   0.37590   0.24919   0.00000  Uiso   1.00
C222   C     0.16549   0.62409   0.25076   0.00000  Uiso   1.00
C223   C     0.32173   0.46951   0.22519   0.00000  Uiso   1.00
C224   C     0.01162   0.53051   0.27478   0.00000  Uiso   1.00
C225   C     0.03559   0.46997   0.22584   0.00000  Uiso   1.00
C226   C     0.29775   0.53004   0.27415   0.00000  Uiso   1.00
C227   C     0.13586   0.50077   0.33813   0.00000  Uiso   1.00
C228   C     0.19743   0.50011   0.16188   0.00000  Uiso   1.00
C229   C     0.11616   0.50363   0.38940   0.00000  Uiso   1.00
C230   C     0.21608   0.50535   0.11119   0.00000  Uiso   1.00
C231   C     0.05358   0.49131   0.46582   0.00000  Uiso   1.00
C232   C     0.27065   0.53765   0.04072   0.00000  Uiso   1.00
C233   C     0.06846   0.49272   0.41721   0.00000  Uiso   1.00
C234   C     0.26008   0.52476   0.08646   0.00000  Uiso   1.00
C235   C     0.14754   0.51579   0.41047   0.00000  Uiso   1.00
C236   C     0.18414   0.49737   0.08946   0.00000  Uiso   1.00
C237   C     0.13367   0.51453   0.45902   0.00000  Uiso   1.00
C238   C     0.19137   0.51393   0.04593   0.00000  Uiso   1.00
C239   C     0.08627   0.50090   0.48675   0.00000  Uiso   1.00
C240   C     0.23637   0.53276   0.02045   0.00000  Uiso   1.00
C241   C     0.16715   0.52312   0.48001   0.00000  Uiso   1.00
C242   C     0.15501   0.51205   0.02725   0.00000  Uiso   1.00
H243   H     0.03621   0.48630   0.05663   0.00000  Uiso   1.00
H244   H     0.28011   0.56203   0.45577   0.00000  Uiso   1.00
H245   H     0.15274   0.47909   0.10808   0.00000  Uiso   1.00
H246   H     0.18407   0.52363   0.38786   0.00000  Uiso   1.00
H247   H     0.28515   0.53137   0.10297   0.00000  Uiso   1.00
H248   H     0.04356   0.48365   0.40133   0.00000  Uiso   1.00
H249   H     0.01729   0.48098   0.48682   0.00000  Uiso   1.00
H250   H     0.30470   0.55284   0.02188   0.00000  Uiso   1.00
H251   H     0.09341   0.49602   0.09197   0.00000  Uiso   1.00
H252   H     0.22217   0.55467   0.42090   0.00000  Uiso   1.00
H253   H     0.20218   0.62812   0.29874   0.00000  Uiso   1.00
H254   H     0.13119   0.37187   0.20121   0.00000  Uiso   1.00
H255   H     0.20342   0.37121   0.29798   0.00000  Uiso   1.00
H256   H     0.13000   0.62877   0.20193   0.00000  Uiso   1.00
H257   H     0.06303   0.44598   0.20727   0.00000  Uiso   1.00
H258   H     0.27030   0.55403   0.29272   0.00000  Uiso   1.00
N259   N     0.04759   0.50001   0.25001   0.00000  Uiso   1.00
N260   N     0.28574   0.49999   0.24999   0.00000  Uiso   1.00
O261   O     0.12846   0.56108   0.25001   0.00000  Uiso   1.00
O262   O     0.20488   0.43892   0.25000   0.00000  Uiso   1.00
O263   O     0.20490   0.56107   0.25000   0.00000  Uiso   1.00
O264   O     0.12843   0.43893   0.25000   0.00000  Uiso   1.00
O265   O     0.10661   0.50001   0.31613   0.00000  Uiso   1.00
O266   O     0.22672   0.49999   0.18388   0.00000  Uiso   1.00
O267   O     0.18305   0.50000   0.31612   0.00000  Uiso   1.00
O268   O     0.15028   0.50000   0.18388   0.00000  Uiso   1.00
Zn269  Zn    0.11562   0.50001   0.25000   0.00000  Uiso   1.00
Zn270  Zn    0.21771   0.49999   0.25000   0.00000  Uiso   1.00
S271   S     0.31288   0.42587   0.19353   0.00000  Uiso   1.00
O272   O     0.28886   0.39231   0.22763   0.00000  Uiso   1.00
O273   O     0.28299   0.43664   0.16593   0.00000  Uiso   1.00
O274   O     0.03407   0.40640   0.15534   0.00000  Uiso   1.00
H275   H     0.02678   0.38010   0.14238   0.00000  Uiso   1.00
S276   S     0.02051   0.57423   0.30633   0.00000  Uiso   1.00
O277   O     0.05035   0.56347   0.33399   0.00000  Uiso   1.00
O278   O     0.04462   0.60771   0.27216   0.00000  Uiso   1.00
O279   O     0.29935   0.59384   0.34442   0.00000  Uiso   1.00
H280   H     0.30689   0.61921   0.35877   0.00000  Uiso   1.00
C281   C     0.49945   0.57990   0.25033   0.00000  Uiso   1.00
C282   C     0.50056   0.42010   0.24965   0.00000  Uiso   1.00
C283   C     0.43993   0.50053   0.05462   0.00000  Uiso   1.00
C284   C     0.54574   0.54201   0.45536   0.00000  Uiso   1.00
C285   C     0.40601   0.49571   0.03470   0.00000  Uiso   1.00
C286   C     0.57944   0.54709   0.47556   0.00000  Uiso   1.00
C287   C     0.52017   0.64500   0.27735   0.00000  Uiso   1.00
C288   C     0.47987   0.35499   0.22259   0.00000  Uiso   1.00
C289   C     0.52123   0.35462   0.27668   0.00000  Uiso   1.00
C290   C     0.47884   0.64537   0.22325   0.00000  Uiso   1.00
C291   C     0.50122   0.37590   0.24919   0.00000  Uiso   1.00
C292   C     0.49882   0.62409   0.25076   0.00000  Uiso   1.00
C293   C     0.65506   0.46951   0.22519   0.00000  Uiso   1.00
C294   C     0.34495   0.53051   0.27478   0.00000  Uiso   1.00
C295   C     0.36892   0.46997   0.22584   0.00000  Uiso   1.00
C296   C     0.63108   0.53004   0.27415   0.00000  Uiso   1.00
C297   C     0.46919   0.50077   0.33813   0.00000  Uiso   1.00
C298   C     0.53076   0.50011   0.16188   0.00000  Uiso   1.00
C299   C     0.44949   0.50363   0.38940   0.00000  Uiso   1.00
C300   C     0.54942   0.50535   0.11119   0.00000  Uiso   1.00
C301   C     0.38691   0.49131   0.46582   0.00000  Uiso   1.00
C302   C     0.60398   0.53765   0.04072   0.00000  Uiso   1.00
C303   C     0.40179   0.49272   0.41721   0.00000  Uiso   1.00
C304   C     0.59341   0.52476   0.08646   0.00000  Uiso   1.00
C305   C     0.48087   0.51579   0.41047   0.00000  Uiso   1.00
C306   C     0.51748   0.49737   0.08946   0.00000  Uiso   1.00
C307   C     0.46700   0.51453   0.45902   0.00000  Uiso   1.00
C308   C     0.52470   0.51393   0.04593   0.00000  Uiso   1.00
C309   C     0.41960   0.50090   0.48675   0.00000  Uiso   1.00
C310   C     0.56970   0.53276   0.02045   0.00000  Uiso   1.00
C311   C     0.50048   0.52312   0.48001   0.00000  Uiso   1.00
C312   C     0.48835   0.51205   0.02725   0.00000  Uiso   1.00
H313   H     0.36954   0.48630   0.05663   0.00000  Uiso   1.00
H314   H     0.61344   0.56203   0.45577   0.00000  Uiso   1.00
H315   H     0.48608   0.47909   0.10808   0.00000  Uiso   1.00
H316   H     0.51740   0.52363   0.38786   0.00000  Uiso   1.00
H317   H     0.61848   0.53137   0.10297   0.00000  Uiso   1.00
H318   H     0.37690   0.48365   0.40133   0.00000  Uiso   1.00
H319   H     0.35062   0.48098   0.48682   0.00000  Uiso   1.00
H320   H     0.63803   0.55284   0.02188   0.00000  Uiso   1.00
H321   H     0.42675   0.49602   0.09197   0.00000  Uiso   1.00
H322   H     0.55550   0.55467   0.42090   0.00000  Uiso   1.00
H323   H     0.53551   0.62812   0.29874   0.00000  Uiso   1.00
H324   H     0.46453   0.37187   0.20121   0.00000  Uiso   1.00
H325   H     0.53676   0.37121   0.29798   0.00000  Uiso   1.00
H326   H     0.46333   0.62877   0.20193   0.00000  Uiso   1.00
H327   H     0.39636   0.44598   0.20727   0.00000  Uiso   1.00
H328   H     0.60364   0.55403   0.29272   0.00000  Uiso   1.00
N329   N     0.38093   0.50001   0.25001   0.00000  Uiso   1.00
N330   N     0.61907   0.49999   0.24999   0.00000  Uiso   1.00
O331   O     0.46179   0.56108   0.25001   0.00000  Uiso   1.00
O332   O     0.53821   0.43892   0.25000   0.00000  Uiso   1.00
O333   O     0.53823   0.56107   0.25000   0.00000  Uiso   1.00
O334   O     0.46177   0.43893   0.25000   0.00000  Uiso   1.00
O335   O     0.43994   0.50001   0.31613   0.00000  Uiso   1.00
O336   O     0.56006   0.49999   0.18388   0.00000  Uiso   1.00
O337   O     0.51639   0.50000   0.31612   0.00000  Uiso   1.00
O338   O     0.48361   0.50000   0.18388   0.00000  Uiso   1.00
Zn339  Zn    0.44896   0.50001   0.25000   0.00000  Uiso   1.00
Zn340  Zn    0.55104   0.49999   0.25000   0.00000  Uiso   1.00
S341   S     0.64621   0.42587   0.19353   0.00000  Uiso   1.00
O342   O     0.62219   0.39231   0.22763   0.00000  Uiso   1.00
O343   O     0.61632   0.43664   0.16593   0.00000  Uiso   1.00
O344   O     0.36740   0.40640   0.15534   0.00000  Uiso   1.00
H345   H     0.36011   0.38010   0.14238   0.00000  Uiso   1.00
S346   S     0.35385   0.57423   0.30633   0.00000  Uiso   1.00
O347   O     0.38368   0.56347   0.33399   0.00000  Uiso   1.00
O348   O     0.37795   0.60771   0.27216   0.00000  Uiso   1.00
O349   O     0.63269   0.59384   0.34442   0.00000  Uiso   1.00
H350   H     0.64022   0.61921   0.35877   0.00000  Uiso   1.00
C351   C     0.83279   0.57990   0.25033   0.00000  Uiso   1.00
C352   C     0.83389   0.42010   0.24965   0.00000  Uiso   1.00
C353   C     0.77326   0.50053   0.05462   0.00000  Uiso   1.00
C354   C     0.87907   0.54201   0.45536   0.00000  Uiso   1.00
C355   C     0.73934   0.49571   0.03470   0.00000  Uiso   1.00
C356   C     0.91277   0.54709   0.47556   0.00000  Uiso   1.00
C357   C     0.85350   0.64500   0.27735   0.00000  Uiso   1.00
C358   C     0.81321   0.35499   0.22259   0.00000  Uiso   1.00
C359   C     0.85456   0.35462   0.27668   0.00000  Uiso   1.00
C360   C     0.81217   0.64537   0.22325   0.00000  Uiso   1.00
C361   C     0.83455   0.37590   0.24919   0.00000  Uiso   1.00
C362   C     0.83215   0.62409   0.25076   0.00000  Uiso   1.00
C363   C     0.98839   0.46951   0.22519   0.00000  Uiso   1.00
C364   C     0.67829   0.53051   0.27478   0.00000  Uiso   1.00
C365   C     0.70225   0.46997   0.22584   0.00000  Uiso   1.00
C366   C     0.96442   0.53004   0.27415   0.00000  Uiso   1.00
C367   C     0.80252   0.50077   0.33813   0.00000  Uiso   1.00
C368   C     0.86409   0.50011   0.16188   0.00000  Uiso   1.00
C369   C     0.78282   0.50363   0.38940   0.00000  Uiso   1.00
C370   C     0.88275   0.50535   0.11119   0.00000  Uiso   1.00
C371   C     0.72024   0.49131   0.46582   0.00000  Uiso   1.00
C372   C     0.93732   0.53765   0.04072   0.00000  Uiso   1.00
C373   C     0.73513   0.49272   0.41721   0.00000  Uiso   1.00
C374   C     0.92675   0.52476   0.08646   0.00000  Uiso   1.00
C375   C     0.81421   0.51579   0.41047   0.00000  Uiso   1.00
C376   C     0.85081   0.49737   0.08946   0.00000  Uiso   1.00
C377   C     0.80034   0.51453   0.45902   0.00000  Uiso   1.00
C378   C     0.85803   0.51393   0.04593   0.00000  Uiso   1.00
C379   C     0.75293   0.50090   0.48675   0.00000  Uiso   1.00
C380   C     0.90303   0.53276   0.02045   0.00000  Uiso   1.00
C381   C     0.83381   0.52312   0.48001   0.00000  Uiso   1.00
C382   C     0.82168   0.51205   0.02725   0.00000  Uiso   1.00
H383   H     0.70287   0.48630   0.05663   0.00000  Uiso   1.00
H384   H     0.94677   0.56203   0.45577   0.00000  Uiso   1.00
H385   H     0.81941   0.47909   0.10808   0.00000  Uiso   1.00
H386   H     0.85073   0.52363   0.38786   0.00000  Uiso   1.00
H387   H     0.95181   0.53137   0.10297   0.00000  Uiso   1.00
H388   H     0.71023   0.48365   0.40133   0.00000  Uiso   1.00
H389   H     0.68395   0.48098   0.48682   0.00000  Uiso   1.00
H390   H     0.97136   0.55284   0.02188   0.00000  Uiso   1.00
H391   H     0.76008   0.49602   0.09197   0.00000  Uiso   1.00
H392   H     0.88884   0.55467   0.42090   0.00000  Uiso   1.00
H393   H     0.86884   0.62812   0.29874   0.00000  Uiso   1.00
H394   H     0.79786   0.37187   0.20121   0.00000  Uiso   1.00
H395   H     0.87009   0.37121   0.29798   0.00000  Uiso   1.00
H396   H     0.79666   0.62877   0.20193   0.00000  Uiso   1.00
H397   H     0.72970   0.44598   0.20727   0.00000  Uiso   1.00
H398   H     0.93697   0.55403   0.29272   0.00000  Uiso   1.00
N399   N     0.71426   0.50001   0.25001   0.00000  Uiso   1.00
N400   N     0.95241   0.49999   0.24999   0.00000  Uiso   1.00
O401   O     0.79512   0.56108   0.25001   0.00000  Uiso   1.00
O402   O     0.87154   0.43892   0.25000   0.00000  Uiso   1.00
O403   O     0.87157   0.56107   0.25000   0.00000  Uiso   1.00
O404   O     0.79510   0.43893   0.25000   0.00000  Uiso   1.00
O405   O     0.77328   0.50001   0.31613   0.00000  Uiso   1.00
O406   O     0.89339   0.49999   0.18388   0.00000  Uiso   1.00
O407   O     0.84972   0.50000   0.31612   0.00000  Uiso   1.00
O408   O     0.81695   0.50000   0.18388   0.00000  Uiso   1.00
Zn409  Zn    0.78229   0.50001   0.25000   0.00000  Uiso   1.00
Zn410  Zn    0.88438   0.49999   0.25000   0.00000  Uiso   1.00
S411   S     0.97954   0.42587   0.19353   0.00000  Uiso   1.00
O412   O     0.95552   0.39231   0.22763   0.00000  Uiso   1.00
O413   O     0.94965   0.43664   0.16593   0.00000  Uiso   1.00
O414   O     0.70073   0.40640   0.15534   0.00000  Uiso   1.00
H415   H     0.69344   0.38010   0.14238   0.00000  Uiso   1.00
S416   S     0.68718   0.57423   0.30633   0.00000  Uiso   1.00
O417   O     0.71702   0.56347   0.33399   0.00000  Uiso   1.00
O418   O     0.71129   0.60771   0.27216   0.00000  Uiso   1.00
O419   O     0.96602   0.59384   0.34442   0.00000  Uiso   1.00
H420   H     0.97356   0.61921   0.35877   0.00000  Uiso   1.00
C421   C     0.16612   0.91323   0.25033   0.00000  Uiso   1.00
C422   C     0.16722   0.75343   0.24965   0.00000  Uiso   1.00
C423   C     0.10660   0.83386   0.05462   0.00000  Uiso   1.00
C424   C     0.21241   0.87535   0.45536   0.00000  Uiso   1.00
C425   C     0.07268   0.82904   0.03470   0.00000  Uiso   1.00
C426   C     0.24611   0.88042   0.47556   0.00000  Uiso   1.00
C427   C     0.18684   0.97833   0.27735   0.00000  Uiso   1.00
C428   C     0.14654   0.68833   0.22259   0.00000  Uiso   1.00
C429   C     0.18790   0.68796   0.27668   0.00000  Uiso   1.00
C430   C     0.14550   0.97870   0.22325   0.00000  Uiso   1.00
C431   C     0.16788   0.70924   0.24919   0.00000  Uiso   1.00
C432   C     0.16549   0.95742   0.25076   0.00000  Uiso   1.00
C433   C     0.32173   0.80285   0.22519   0.00000  Uiso   1.00
C434   C     0.01162   0.86385   0.27478   0.00000  Uiso   1.00
C435   C     0.03559   0.80331   0.22584   0.00000  Uiso   1.00
C436   C     0.29775   0.86337   0.27415   0.00000  Uiso   1.00
C437   C     0.13586   0.83410   0.33813   0.00000  Uiso   1.00
C438   C     0.19743   0.83344   0.16188   0.00000  Uiso   1.00
C439   C     0.11616   0.83696   0.38940   0.00000  Uiso   1.00
C440   C     0.21608   0.83868   0.11119   0.00000  Uiso   1.00
C441   C     0.05358   0.82465   0.46582   0.00000  Uiso   1.00
C442   C     0.27065   0.87098   0.04072   0.00000  Uiso   1.00
C443   C     0.06846   0.82606   0.41721   0.00000  Uiso   1.00
C444   C     0.26008   0.85809   0.08646   0.00000  Uiso   1.00
C445   C     0.14754   0.84912   0.41047   0.00000  Uiso   1.00
C446   C     0.18414   0.83070   0.08946   0.00000  Uiso   1.00
C447   C     0.13367   0.84786   0.45902   0.00000  Uiso   1.00
C448   C     0.19137   0.84726   0.04593   0.00000  Uiso   1.00
C449   C     0.08627   0.83423   0.48675   0.00000  Uiso   1.00
C450   C     0.23637   0.86609   0.02045   0.00000  Uiso   1.00
C451   C     0.16715   0.85646   0.48001   0.00000  Uiso   1.00
C452   C     0.15501   0.84538   0.02725   0.00000  Uiso   1.00
H453   H     0.03621   0.81963   0.05663   0.00000  Uiso   1.00
H454   H     0.28011   0.89536   0.45577   0.00000  Uiso   1.00
H455   H     0.15274   0.81242   0.10808   0.00000  Uiso   1.00
H456   H     0.18407   0.85696   0.38786   0.00000  Uiso   1.00
H457   H     0.28515   0.86470   0.10297   0.00000  Uiso   1.00
H458   H     0.04356   0.81699   0.40133   0.00000  Uiso   1.00
H459   H     0.01729   0.81432   0.48682   0.00000  Uiso   1.00
H460   H     0.30470   0.88617   0.02188   0.00000  Uiso   1.00
H461   H     0.09341   0.82935   0.09197   0.00000  Uiso   1.00
H462   H     0.22217   0.88800   0.42090   0.00000  Uiso   1.00
H463   H     0.20218   0.96145   0.29874   0.00000  Uiso   1.00
H464   H     0.13119   0.70520   0.20121   0.00000  Uiso   1.00
H465   H     0.20342   0.70454   0.29798   0.00000  Uiso   1.00
H466   H     0.13000   0.96211   0.20193   0.00000  Uiso   1.00
H467   H     0.06303   0.77931   0.20727   0.00000  Uiso   1.00
H468   H     0.27030   0.88737   0.29272   0.00000  Uiso   1.00
N469   N     0.04759   0.83334   0.25001   0.00000  Uiso   1.00
N470   N     0.28574   0.83332   0.24999   0.00000  Uiso   1.00
O471   O     0.12846   0.89442   0.25001   0.00000  Uiso   1.00
O472   O     0.20488   0.77225   0.25000   0.00000  Uiso   1.00
O473   O     0.20490   0.89441   0.25000   0.00000  Uiso   1.00
O474   O     0.12843   0.77226   0.25000   0.00000  Uiso   1.00
O475   O     0.10661   0.83334   0.31613   0.00000  Uiso   1.00
O476   O     0.22672   0.83333   0.18388   0.00000  Uiso   1.00
O477   O     0.18305   0.83333   0.31612   0.00000  Uiso   1.00
O478   O     0.15028   0.83334   0.18388   0.00000  Uiso   1.00
Zn479  Zn    0.11562   0.83334   0.25000   0.00000  Uiso   1.00
Zn480  Zn    0.21771   0.83333   0.25000   0.00000  Uiso   1.00
S481   S     0.31288   0.75920   0.19353   0.00000  Uiso   1.00
O482   O     0.28886   0.72564   0.22763   0.00000  Uiso   1.00
O483   O     0.28299   0.76997   0.16593   0.00000  Uiso   1.00
O484   O     0.03407   0.73973   0.15534   0.00000  Uiso   1.00
H485   H     0.02678   0.71343   0.14238   0.00000  Uiso   1.00
S486   S     0.02051   0.90756   0.30633   0.00000  Uiso   1.00
O487   O     0.05035   0.89680   0.33399   0.00000  Uiso   1.00
O488   O     0.04462   0.94104   0.27216   0.00000  Uiso   1.00
O489   O     0.29935   0.92717   0.34442   0.00000  Uiso   1.00
H490   H     0.30689   0.95254   0.35877   0.00000  Uiso   1.00
C491   C     0.49945   0.91323   0.25033   0.00000  Uiso   1.00
C492   C     0.50056   0.75343   0.24965   0.00000  Uiso   1.00
C493   C     0.43993   0.83386   0.05462   0.00000  Uiso   1.00
C494   C     0.54574   0.87535   0.45536   0.00000  Uiso   1.00
C495   C     0.40601   0.82904   0.03470   0.00000  Uiso   1.00
C496   C     0.57944   0.88042   0.47556   0.00000  Uiso   1.00
C497   C     0.52017   0.97833   0.27735   0.00000  Uiso   1.00
C498   C     0.47987   0.68833   0.22259   0.00000  Uiso   1.00
C499   C     0.52123   0.68796   0.27668   0.00000  Uiso   1.00
C500   C     0.47884   0.97870   0.22325   0.00000  Uiso   1.00
C501   C     0.50122   0.70924   0.24919   0.00000  Uiso   1.00
C502   C     0.49882   0.95742   0.25076   0.00000  Uiso   1.00
C503   C     0.65506   0.80285   0.22519   0.00000  Uiso   1.00
C504   C     0.34495   0.86385   0.27478   0.00000  Uiso   1.00
C505   C     0.36892   0.80331   0.22584   0.00000  Uiso   1.00
C506   C     0.63108   0.86337   0.27415   0.00000  Uiso   1.00
C507   C     0.46919   0.83410   0.33813   0.00000  Uiso   1.00
C508   C     0.53076   0.83344   0.16188   0.00000  Uiso   1.00
C509   C     0.44949   0.83696   0.38940   0.00000  Uiso   1.00
C510   C     0.54942   0.83868   0.11119   0.00000  Uiso   1.00
C511   C     0.38691   0.82465   0.46582   0.00000  Uiso   1.00
C512   C     0.60398   0.87098   0.04072   0.00000  Uiso   1.00
C513   C     0.40179   0.82606   0.41721   0.00000  Uiso   1.00
C514   C     0.59341   0.85809   0.08646   0.00000  Uiso   1.00
C515   C     0.48087   0.84912   0.41047   0.00000  Uiso   1.00
C516   C     0.51748   0.83070   0.08946   0.00000  Uiso   1.00
C517   C     0.46700   0.84786   0.45902   0.00000  Uiso   1.00
C518   C     0.52470   0.84726   0.04593   0.00000  Uiso   1.00
C519   C     0.41960   0.83423   0.48675   0.00000  Uiso   1.00
C520   C     0.56970   0.86609   0.02045   0.00000  Uiso   1.00
C521   C     0.50048   0.85646   0.48001   0.00000  Uiso   1.00
C522   C     0.48835   0.84538   0.02725   0.00000  Uiso   1.00
H523   H     0.36954   0.81963   0.05663   0.00000  Uiso   1.00
H524   H     0.61344   0.89536   0.45577   0.00000  Uiso   1.00
H525   H     0.48608   0.81242   0.10808   0.00000  Uiso   1.00
H526   H     0.51740   0.85696   0.38786   0.00000  Uiso   1.00
H527   H     0.61848   0.86470   0.10297   0.00000  Uiso   1.00
H528   H     0.37690   0.81699   0.40133   0.00000  Uiso   1.00
H529   H     0.35062   0.81432   0.48682   0.00000  Uiso   1.00
H530   H     0.63803   0.88617   0.02188   0.00000  Uiso   1.00
H531   H     0.42675   0.82935   0.09197   0.00000  Uiso   1.00
H532   H     0.55550   0.88800   0.42090   0.00000  Uiso   1.00
H533   H     0.53551   0.96145   0.29874   0.00000  Uiso   1.00
H534   H     0.46453   0.70520   0.20121   0.00000  Uiso   1.00
H535   H     0.53676   0.70454   0.29798   0.00000  Uiso   1.00
H536   H     0.46333   0.96211   0.20193   0.00000  Uiso   1.00
H537   H     0.39636   0.77931   0.20727   0.00000  Uiso   1.00
H538   H     0.60364   0.88737   0.29272   0.00000  Uiso   1.00
N539   N     0.38093   0.83334   0.25001   0.00000  Uiso   1.00
N540   N     0.61907   0.83332   0.24999   0.00000  Uiso   1.00
O541   O     0.46179   0.89442   0.25001   0.00000  Uiso   1.00
O542   O     0.53821   0.77225   0.25000   0.00000  Uiso   1.00
O543   O     0.53823   0.89441   0.25000   0.00000  Uiso   1.00
O544   O     0.46177   0.77226   0.25000   0.00000  Uiso   1.00
O545   O     0.43994   0.83334   0.31613   0.00000  Uiso   1.00
O546   O     0.56006   0.83333   0.18388   0.00000  Uiso   1.00
O547   O     0.51639   0.83333   0.31612   0.00000  Uiso   1.00
O548   O     0.48361   0.83334   0.18388   0.00000  Uiso   1.00
Zn549  Zn    0.44896   0.83334   0.25000   0.00000  Uiso   1.00
Zn550  Zn    0.55104   0.83333   0.25000   0.00000  Uiso   1.00
S551   S     0.64621   0.75920   0.19353   0.00000  Uiso   1.00
O552   O     0.62219   0.72564   0.22763   0.00000  Uiso   1.00
O553   O     0.61632   0.76997   0.16593   0.00000  Uiso   1.00
O554   O     0.36740   0.73973   0.15534   0.00000  Uiso   1.00
H555   H     0.36011   0.71343   0.14238   0.00000  Uiso   1.00
S556   S     0.35385   0.90756   0.30633   0.00000  Uiso   1.00
O557   O     0.38368   0.89680   0.33399   0.00000  Uiso   1.00
O558   O     0.37795   0.94104   0.27216   0.00000  Uiso   1.00
O559   O     0.63269   0.92717   0.34442   0.00000  Uiso   1.00
H560   H     0.64022   0.95254   0.35877   0.00000  Uiso   1.00
C561   C     0.83279   0.91323   0.25033   0.00000  Uiso   1.00
C562   C     0.83389   0.75343   0.24965   0.00000  Uiso   1.00
C563   C     0.77326   0.83386   0.05462   0.00000  Uiso   1.00
C564   C     0.87907   0.87535   0.45536   0.00000  Uiso   1.00
C565   C     0.73934   0.82904   0.03470   0.00000  Uiso   1.00
C566   C     0.91277   0.88042   0.47556   0.00000  Uiso   1.00
C567   C     0.85350   0.97833   0.27735   0.00000  Uiso   1.00
C568   C     0.81321   0.68833   0.22259   0.00000  Uiso   1.00
C569   C     0.85456   0.68796   0.27668   0.00000  Uiso   1.00
C570   C     0.81217   0.97870   0.22325   0.00000  Uiso   1.00
C571   C     0.83455   0.70924   0.24919   0.00000  Uiso   1.00
C572   C     0.83215   0.95742   0.25076   0.00000  Uiso   1.00
C573   C     0.98839   0.80285   0.22519   0.00000  Uiso   1.00
C574   C     0.67829   0.86385   0.27478   0.00000  Uiso   1.00
C575   C     0.70225   0.80331   0.22584   0.00000  Uiso   1.00
C576   C     0.96442   0.86337   0.27415   0.00000  Uiso   1.00
C577   C     0.80252   0.83410   0.33813   0.00000  Uiso   1.00
C578   C     0.86409   0.83344   0.16188   0.00000  Uiso   1.00
C579   C     0.78282   0.83696   0.38940   0.00000  Uiso   1.00
C580   C     0.88275   0.83868   0.11119   0.00000  Uiso   1.00
C581   C     0.72024   0.82465   0.46582   0.00000  Uiso   1.00
C582   C     0.93732   0.87098   0.04072   0.00000  Uiso   1.00
C583   C     0.73513   0.82606   0.41721   0.00000  Uiso   1.00
C584   C     0.92675   0.85809   0.08646   0.00000  Uiso   1.00
C585   C     0.81421   0.84912   0.41047   0.00000  Uiso   1.00
C586   C     0.85081   0.83070   0.08946   0.00000  Uiso   1.00
C587   C     0.80034   0.84786   0.45902   0.00000  Uiso   1.00
C588   C     0.85803   0.84726   0.04593   0.00000  Uiso   1.00
C589   C     0.75293   0.83423   0.48675   0.00000  Uiso   1.00
C590   C     0.90303   0.86609   0.02045   0.00000  Uiso   1.00
C591   C     0.83381   0.85646   0.48001   0.00000  Uiso   1.00
C592   C     0.82168   0.84538   0.02725   0.00000  Uiso   1.00
H593   H     0.70287   0.81963   0.05663   0.00000  Uiso   1.00
H594   H     0.94677   0.89536   0.45577   0.00000  Uiso   1.00
H595   H     0.81941   0.81242   0.10808   0.00000  Uiso   1.00
H596   H     0.85073   0.85696   0.38786   0.00000  Uiso   1.00
H597   H     0.95181   0.86470   0.10297   0.00000  Uiso   1.00
H598   H     0.71023   0.81699   0.40133   0.00000  Uiso   1.00
H599   H     0.68395   0.81432   0.48682   0.00000  Uiso   1.00
H600   H     0.97136   0.88617   0.02188   0.00000  Uiso   1.00
H601   H     0.76008   0.82935   0.09197   0.00000  Uiso   1.00
H602   H     0.88884   0.88800   0.42090   0.00000  Uiso   1.00
H603   H     0.86884   0.96145   0.29874   0.00000  Uiso   1.00
H604   H     0.79786   0.70520   0.20121   0.00000  Uiso   1.00
H605   H     0.87009   0.70454   0.29798   0.00000  Uiso   1.00
H606   H     0.79666   0.96211   0.20193   0.00000  Uiso   1.00
H607   H     0.72970   0.77931   0.20727   0.00000  Uiso   1.00
H608   H     0.93697   0.88737   0.29272   0.00000  Uiso   1.00
N609   N     0.71426   0.83334   0.25001   0.00000  Uiso   1.00
N610   N     0.95241   0.83332   0.24999   0.00000  Uiso   1.00
O611   O     0.79512   0.89442   0.25001   0.00000  Uiso   1.00
O612   O     0.87154   0.77225   0.25000   0.00000  Uiso   1.00
O613   O     0.87157   0.89441   0.25000   0.00000  Uiso   1.00
O614   O     0.79510   0.77226   0.25000   0.00000  Uiso   1.00
O615   O     0.77328   0.83334   0.31613   0.00000  Uiso   1.00
O616   O     0.89339   0.83333   0.18388   0.00000  Uiso   1.00
O617   O     0.84972   0.83333   0.31612   0.00000  Uiso   1.00
O618   O     0.81695   0.83334   0.18388   0.00000  Uiso   1.00
Zn619  Zn    0.78229   0.83334   0.25000   0.00000  Uiso   1.00
Zn620  Zn    0.88438   0.83333   0.25000   0.00000  Uiso   1.00
S621   S     0.97954   0.75920   0.19353   0.00000  Uiso   1.00
O622   O     0.95552   0.72564   0.22763   0.00000  Uiso   1.00
O623   O     0.94965   0.76997   0.16593   0.00000  Uiso   1.00
O624   O     0.70073   0.73973   0.15534   0.00000  Uiso   1.00
H625   H     0.69344   0.71343   0.14238   0.00000  Uiso   1.00
S626   S     0.68718   0.90756   0.30633   0.00000  Uiso   1.00
O627   O     0.71702   0.89680   0.33399   0.00000  Uiso   1.00
O628   O     0.71129   0.94104   0.27216   0.00000  Uiso   1.00
O629   O     0.96602   0.92717   0.34442   0.00000  Uiso   1.00
H630   H     0.97356   0.95254   0.35877   0.00000  Uiso   1.00
C631   C     0.16612   0.24657   0.75033   0.00000  Uiso   1.00
C632   C     0.16722   0.08677   0.74965   0.00000  Uiso   1.00
C633   C     0.10660   0.16719   0.55462   0.00000  Uiso   1.00
C634   C     0.21241   0.20868   0.95536   0.00000  Uiso   1.00
C635   C     0.07268   0.16237   0.53470   0.00000  Uiso   1.00
C636   C     0.24611   0.21375   0.97556   0.00000  Uiso   1.00
C637   C     0.18684   0.31166   0.77735   0.00000  Uiso   1.00
C638   C     0.14654   0.02166   0.72259   0.00000  Uiso   1.00
C639   C     0.18790   0.02129   0.77668   0.00000  Uiso   1.00
C640   C     0.14550   0.31203   0.72325   0.00000  Uiso   1.00
C641   C     0.16788   0.04257   0.74919   0.00000  Uiso   1.00
C642   C     0.16549   0.29076   0.75076   0.00000  Uiso   1.00
C643   C     0.32173   0.13618   0.72519   0.00000  Uiso   1.00
C644   C     0.01162   0.19718   0.77478   0.00000  Uiso   1.00
C645   C     0.03559   0.13664   0.72584   0.00000  Uiso   1.00
C646   C     0.29775   0.19670   0.77415   0.00000  Uiso   1.00
C647   C     0.13586   0.16743   0.83813   0.00000  Uiso   1.00
C648   C     0.19743   0.16678   0.66188   0.00000  Uiso   1.00
C649   C     0.11616   0.17030   0.88940   0.00000  Uiso   1.00
C650   C     0.21608   0.17202   0.61119   0.00000  Uiso   1.00
C651   C     0.05358   0.15798   0.96582   0.00000  Uiso   1.00
C652   C     0.27065   0.20431   0.54072   0.00000  Uiso   1.00
C653   C     0.06846   0.15939   0.91721   0.00000  Uiso   1.00
C654   C     0.26008   0.19142   0.58646   0.00000  Uiso   1.00
C655   C     0.14754   0.18246   0.91047   0.00000  Uiso   1.00
C656   C     0.18414   0.16404   0.58946   0.00000  Uiso   1.00
C657   C     0.13367   0.18120   0.95902   0.00000  Uiso   1.00
C658   C     0.19137   0.18060   0.54593   0.00000  Uiso   1.00
C659   C     0.08627   0.16757   0.98675   0.00000  Uiso   1.00
C660   C     0.23637   0.19943   0.52045   0.00000  Uiso   1.00
C661   C     0.16715   0.18979   0.98001   0.00000  Uiso   1.00
C662   C     0.15501   0.17872   0.52725   0.00000  Uiso   1.00
H663   H     0.03621   0.15296   0.55663   0.00000  Uiso   1.00
H664   H     0.28011   0.22869   0.95577   0.00000  Uiso   1.00
H665   H     0.15274   0.14575   0.60808   0.00000  Uiso   1.00
H666   H     0.18407   0.19030   0.88786   0.00000  Uiso   1.00
H667   H     0.28515   0.19804   0.60297   0.00000  Uiso   1.00
H668   H     0.04356   0.15032   0.90133   0.00000  Uiso   1.00
H669   H     0.01729   0.14765   0.98682   0.00000  Uiso   1.00
H670   H     0.30470   0.21951   0.52188   0.00000  Uiso   1.00
H671   H     0.09341   0.16269   0.59197   0.00000  Uiso   1.00
H672   H     0.22217   0.22133   0.92090   0.00000  Uiso   1.00
H673   H     0.20218   0.29479   0.79874   0.00000  Uiso   1.00
H674   H     0.13119   0.03854   0.70121   0.00000  Uiso   1.00
H675   H     0.20342   0.03788   0.79798   0.00000  Uiso   1.00
H676   H     0.13000   0.29544   0.70193   0.00000  Uiso   1.00
H677   H     0.06303   0.11264   0.70727   0.00000  Uiso   1.00
H678   H     0.27030   0.22070   0.79272   0.00000  Uiso   1.00
N679   N     0.04759   0.16668   0.75001   0.00000  Uiso   1.00
N680   N     0.28574   0.16666   0.74999   0.00000  Uiso   1.00
O681   O     0.12846   0.22775   0.75001   0.00000  Uiso   1.00
O682   O     0.20488   0.10558   0.75000   0.00000  Uiso   1.00
O683   O     0.20490   0.22774   0.75000   0.00000  Uiso   1.00
O684   O     0.12843   0.10559   0.75000   0.00000  Uiso   1.00
O685   O     0.10661   0.16667   0.81613   0.00000  Uiso   1.00
O686   O     0.22672   0.16666   0.68388   0.00000  Uiso   1.00
O687   O     0.18305   0.16666   0.81612   0.00000  Uiso   1.00
O688   O     0.15028   0.16667   0.68388   0.00000  Uiso   1.00
Zn689  Zn    0.11562   0.16667   0.75000   0.00000  Uiso   1.00
Zn690  Zn    0.21771   0.16666   0.75000   0.00000  Uiso   1.00
S691   S     0.31288   0.09253   0.69353   0.00000  Uiso   1.00
O692   O     0.28886   0.05897   0.72763   0.00000  Uiso   1.00
O693   O     0.28299   0.10330   0.66593   0.00000  Uiso   1.00
O694   O     0.03407   0.07307   0.65534   0.00000  Uiso   1.00
H695   H     0.02678   0.04677   0.64238   0.00000  Uiso   1.00
S696   S     0.02051   0.24090   0.80633   0.00000  Uiso   1.00
O697   O     0.05035   0.23013   0.83399   0.00000  Uiso   1.00
O698   O     0.04462   0.27438   0.77216   0.00000  Uiso   1.00
O699   O     0.29935   0.26050   0.84442   0.00000  Uiso   1.00
H700   H     0.30689   0.28587   0.85877   0.00000  Uiso   1.00
C701   C     0.49945   0.24657   0.75033   0.00000  Uiso   1.00
C702   C     0.50056   0.08677   0.74965   0.00000  Uiso   1.00
C703   C     0.43993   0.16719   0.55462   0.00000  Uiso   1.00
C704   C     0.54574   0.20868   0.95536   0.00000  Uiso   1.00
C705   C     0.40601   0.16237   0.53470   0.00000  Uiso   1.00
C706   C     0.57944   0.21375   0.97556   0.00000  Uiso   1.00
C707   C     0.52017   0.31166   0.77735   0.00000  Uiso   1.00
C708   C     0.47987   0.02166   0.72259   0.00000  Uiso   1.00
C709   C     0.52123   0.02129   0.77668   0.00000  Uiso   1.00
C710   C     0.47884   0.31203   0.72325   0.00000  Uiso   1.00
C711   C     0.50122   0.04257   0.74919   0.00000  Uiso   1.00
C712   C     0.49882   0.29076   0.75076   0.00000  Uiso   1.00
C713   C     0.65506   0.13618   0.72519   0.00000  Uiso   1.00
C714   C     0.34495   0.19718   0.77478   0.00000  Uiso   1.00
C715   C     0.36892   0.13664   0.72584   0.00000  Uiso   1.00
C716   C     0.63108   0.19670   0.77415   0.00000  Uiso   1.00
C717   C     0.46919   0.16743   0.83813   0.00000  Uiso   1.00
C718   C     0.53076   0.16678   0.66188   0.00000  Uiso   1.00
C719   C     0.44949   0.17030   0.88940   0.00000  Uiso   1.00
C720   C     0.54942   0.17202   0.61119   0.00000  Uiso   1.00
C721   C     0.38691   0.15798   0.96582   0.00000  Uiso   1.00
C722   C     0.60398   0.20431   0.54072   0.00000  Uiso   1.00
C723   C     0.40179   0.15939   0.91721   0.00000  Uiso   1.00
C724   C     0.59341   0.19142   0.58646   0.00000  Uiso   1.00
C725   C     0.48087   0.18246   0.91047   0.00000  Uiso   1.00
C726   C     0.51748   0.16404   0.58946   0.00000  Uiso   1.00
C727   C     0.46700   0.18120   0.95902   0.00000  Uiso   1.00
C728   C     0.52470   0.18060   0.54593   0.00000  Uiso   1.00
C729   C     0.41960   0.16757   0.98675   0.00000  Uiso   1.00
C730   C     0.56970   0.19943   0.52045   0.00000  Uiso   1.00
C731   C     0.50048   0.18979   0.98001   0.00000  Uiso   1.00
C732   C     0.48835   0.17872   0.52725   0.00000  Uiso   1.00
H733   H     0.36954   0.15296   0.55663   0.00000  Uiso   1.00
H734   H     0.61344   0.22869   0.95577   0.00000  Uiso   1.00
H735   H     0.48608   0.14575   0.60808   0.00000  Uiso   1.00
H736   H     0.51740   0.19030   0.88786   0.00000  Uiso   1.00
H737   H     0.61848   0.19804   0.60297   0.00000  Uiso   1.00
H738   H     0.37690   0.15032   0.90133   0.00000  Uiso   1.00
H739   H     0.35062   0.14765   0.98682   0.00000  Uiso   1.00
H740   H     0.63803   0.21951   0.52188   0.00000  Uiso   1.00
H741   H     0.42675   0.16269   0.59197   0.00000  Uiso   1.00
H742   H     0.55550   0.22133   0.92090   0.00000  Uiso   1.00
H743   H     0.53551   0.29479   0.79874   0.00000  Uiso   1.00
H744   H     0.46453   0.03854   0.70121   0.00000  Uiso   1.00
H745   H     0.53676   0.03788   0.79798   0.00000  Uiso   1.00
H746   H     0.46333   0.29544   0.70193   0.00000  Uiso   1.00
H747   H     0.39636   0.11264   0.70727   0.00000  Uiso   1.00
H748   H     0.60364   0.22070   0.79272   0.00000  Uiso   1.00
N749   N     0.38093   0.16668   0.75001   0.00000  Uiso   1.00
N750   N     0.61907   0.16666   0.74999   0.00000  Uiso   1.00
O751   O     0.46179   0.22775   0.75001   0.00000  Uiso   1.00
O752   O     0.53821   0.10558   0.75000   0.00000  Uiso   1.00
O753   O     0.53823   0.22774   0.75000   0.00000  Uiso   1.00
O754   O     0.46177   0.10559   0.75000   0.00000  Uiso   1.00
O755   O     0.43994   0.16667   0.81613   0.00000  Uiso   1.00
O756   O     0.56006   0.16666   0.68388   0.00000  Uiso   1.00
O757   O     0.51639   0.16666   0.81612   0.00000  Uiso   1.00
O758   O     0.48361   0.16667   0.68388   0.00000  Uiso   1.00
Zn759  Zn    0.44896   0.16667   0.75000   0.00000  Uiso   1.00
Zn760  Zn    0.55104   0.16666   0.75000   0.00000  Uiso   1.00
S761   S     0.64621   0.09253   0.69353   0.00000  Uiso   1.00
O762   O     0.62219   0.05897   0.72763   0.00000  Uiso   1.00
O763   O     0.61632   0.10330   0.66593   0.00000  Uiso   1.00
O764   O     0.36740   0.07307   0.65534   0.00000  Uiso   1.00
H765   H     0.36011   0.04677   0.64238   0.00000  Uiso   1.00
S766   S     0.35385   0.24090   0.80633   0.00000  Uiso   1.00
O767   O     0.38368   0.23013   0.83399   0.00000  Uiso   1.00
O768   O     0.37795   0.27438   0.77216   0.00000  Uiso   1.00
O769   O     0.63269   0.26050   0.84442   0.00000  Uiso   1.00
H770   H     0.64022   0.28587   0.85877   0.00000  Uiso   1.00
C771   C     0.83279   0.24657   0.75033   0.00000  Uiso   1.00
C772   C     0.83389   0.08677   0.74965   0.00000  Uiso   1.00
C773   C     0.77326   0.16719   0.55462   0.00000  Uiso   1.00
C774   C     0.87907   0.20868   0.95536   0.00000  Uiso   1.00
C775   C     0.73934   0.16237   0.53470   0.00000  Uiso   1.00
C776   C     0.91277   0.21375   0.97556   0.00000  Uiso   1.00
C777   C     0.85350   0.31166   0.77735   0.00000  Uiso   1.00
C778   C     0.81321   0.02166   0.72259   0.00000  Uiso   1.00
C779   C     0.85456   0.02129   0.77668   0.00000  Uiso   1.00
C780   C     0.81217   0.31203   0.72325   0.00000  Uiso   1.00
C781   C     0.83455   0.04257   0.74919   0.00000  Uiso   1.00
C782   C     0.83215   0.29076   0.75076   0.00000  Uiso   1.00
C783   C     0.98839   0.13618   0.72519   0.00000  Uiso   1.00
C784   C     0.67829   0.19718   0.77478   0.00000  Uiso   1.00
C785   C     0.70225   0.13664   0.72584   0.00000  Uiso   1.00
C786   C     0.96442   0.19670   0.77415   0.00000  Uiso   1.00
C787   C     0.80252   0.16743   0.83813   0.00000  Uiso   1.00
C788   C     0.86409   0.16678   0.66188   0.00000  Uiso   1.00
C789   C     0.78282   0.17030   0.88940   0.00000  Uiso   1.00
C790   C     0.88275   0.17202   0.61119   0.00000  Uiso   1.00
C791   C     0.72024   0.15798   0.96582   0.00000  Uiso   1.00
C792   C     0.93732   0.20431   0.54072   0.00000  Uiso   1.00
C793   C     0.73513   0.15939   0.91721   0.00000  Uiso   1.00
C794   C     0.92675   0.19142   0.58646   0.00000  Uiso   1.00
C795   C     0.81421   0.18246   0.91047   0.00000  Uiso   1.00
C796   C     0.85081   0.16404   0.58946   0.00000  Uiso   1.00
C797   C     0.80034   0.18120   0.95902   0.00000  Uiso   1.00
C798   C     0.85803   0.18060   0.54593   0.00000  Uiso   1.00
C799   C     0.75293   0.16757   0.98675   0.00000  Uiso   1.00
C800   C     0.90303   0.19943   0.52045   0.00000  Uiso   1.00
C801   C     0.83381   0.18979   0.98001   0.00000  Uiso   1.00
C802   C     0.82168   0.17872   0.52725   0.00000  Uiso   1.00
H803   H     0.70287   0.15296   0.55663   0.00000  Uiso   1.00
H804   H     0.94677   0.22869   0.95577   0.00000  Uiso   1.00
H805   H     0.81941   0.14575   0.60808   0.00000  Uiso   1.00
H806   H     0.85073   0.19030   0.88786   0.00000  Uiso   1.00
H807   H     0.95181   0.19804   0.60297   0.00000  Uiso   1.00
H808   H     0.71023   0.15032   0.90133   0.00000  Uiso   1.00
H809   H     0.68395   0.14765   0.98682   0.00000  Uiso   1.00
H810   H     0.97136   0.21951   0.52188   0.00000  Uiso   1.00
H811   H     0.76008   0.16269   0.59197   0.00000  Uiso   1.00
H812   H     0.88884   0.22133   0.92090   0.00000  Uiso   1.00
H813   H     0.86884   0.29479   0.79874   0.00000  Uiso   1.00
H814   H     0.79786   0.03854   0.70121   0.00000  Uiso   1.00
H815   H     0.87009   0.03788   0.79798   0.00000  Uiso   1.00
H816   H     0.79666   0.29544   0.70193   0.00000  Uiso   1.00
H817   H     0.72970   0.11264   0.70727   0.00000  Uiso   1.00
H818   H     0.93697   0.22070   0.79272   0.00000  Uiso   1.00
N819   N     0.71426   0.16668   0.75001   0.00000  Uiso   1.00
N820   N     0.95241   0.16666   0.74999   0.00000  Uiso   1.00
O821   O     0.79512   0.22775   0.75001   0.00000  Uiso   1.00
O822   O     0.87154   0.10558   0.75000   0.00000  Uiso   1.00
O823   O     0.87157   0.22774   0.75000   0.00000  Uiso   1.00
O824   O     0.79510   0.10559   0.75000   0.00000  Uiso   1.00
O825   O     0.77328   0.16667   0.81613   0.00000  Uiso   1.00
O826   O     0.89339   0.16666   0.68388   0.00000  Uiso   1.00
O827   O     0.84972   0.16666   0.81612   0.00000  Uiso   1.00
O828   O     0.81695   0.16667   0.68388   0.00000  Uiso   1.00
Zn829  Zn    0.78229   0.16667   0.75000   0.00000  Uiso   1.00
Zn830  Zn    0.88438   0.16666   0.75000   0.00000  Uiso   1.00
S831   S     0.97954   0.09253   0.69353   0.00000  Uiso   1.00
O832   O     0.95552   0.05897   0.72763   0.00000  Uiso   1.00
O833   O     0.94965   0.10330   0.66593   0.00000  Uiso   1.00
O834   O     0.70073   0.07307   0.65534   0.00000  Uiso   1.00
H835   H     0.69344   0.04677   0.64238   0.00000  Uiso   1.00
S836   S     0.68718   0.24090   0.80633   0.00000  Uiso   1.00
O837   O     0.71702   0.23013   0.83399   0.00000  Uiso   1.00
O838   O     0.71129   0.27438   0.77216   0.00000  Uiso   1.00
O839   O     0.96602   0.26050   0.84442   0.00000  Uiso   1.00
H840   H     0.97356   0.28587   0.85877   0.00000  Uiso   1.00
C841   C     0.16612   0.57990   0.75033   0.00000  Uiso   1.00
C842   C     0.16722   0.42010   0.74965   0.00000  Uiso   1.00
C843   C     0.10660   0.50053   0.55462   0.00000  Uiso   1.00
C844   C     0.21241   0.54201   0.95536   0.00000  Uiso   1.00
C845   C     0.07268   0.49571   0.53470   0.00000  Uiso   1.00
C846   C     0.24611   0.54709   0.97556   0.00000  Uiso   1.00
C847   C     0.18684   0.64500   0.77735   0.00000  Uiso   1.00
C848   C     0.14654   0.35499   0.72259   0.00000  Uiso   1.00
C849   C     0.18790   0.35462   0.77668   0.00000  Uiso   1.00
C850   C     0.14550   0.64537   0.72325   0.00000  Uiso   1.00
C851   C     0.16788   0.37590   0.74919   0.00000  Uiso   1.00
C852   C     0.16549   0.62409   0.75076   0.00000  Uiso   1.00
C853   C     0.32173   0.46951   0.72519   0.00000  Uiso   1.00
C854   C     0.01162   0.53051   0.77478   0.00000  Uiso   1.00
C855   C     0.03559   0.46997   0.72584   0.00000  Uiso   1.00
C856   C     0.29775   0.53004   0.77415   0.00000  Uiso   1.00
C857   C     0.13586   0.50077   0.83813   0.00000  Uiso   1.00
C858   C     0.19743   0.50011   0.66188   0.00000  Uiso   1.00
C859   C     0.11616   0.50363   0.88940   0.00000  Uiso   1.00
C860   C     0.21608   0.50535   0.61119   0.00000  Uiso   1.00
C861   C     0.05358   0.49131   0.96582   0.00000  Uiso   1.00
C862   C     0.27065   0.53765   0.54072   0.00000  Uiso   1.00
C863   C     0.06846   0.49272   0.91721   0.00000  Uiso   1.00
C864   C     0.26008   0.52476   0.58646   0.00000  Uiso   1.00
C865   C     0.14754   0.51579   0.91047   0.00000  Uiso   1.00
C866   C     0.18414   0.49737   0.58946   0.00000  Uiso   1.00
C867   C     0.13367   0.51453   0.95902   0.00000  Uiso   1.00
C868   C     0.19137   0.51393   0.54593   0.00000  Uiso   1.00
C869   C     0.08627   0.50090   0.98675   0.00000  Uiso   1.00
C870   C     0.23637   0.53276   0.52045   0.00000  Uiso   1.00
C871   C     0.16715   0.52312   0.98001   0.00000  Uiso   1.00
C872   C     0.15501   0.51205   0.52725   0.00000  Uiso   1.00
H873   H     0.03621   0.48630   0.55663   0.00000  Uiso   1.00
H874   H     0.28011   0.56203   0.95577   0.00000  Uiso   1.00
H875   H     0.15274   0.47909   0.60808   0.00000  Uiso   1.00
H876   H     0.18407   0.52363   0.88786   0.00000  Uiso   1.00
H877   H     0.28515   0.53137   0.60297   0.00000  Uiso   1.00
H878   H     0.04356   0.48365   0.90133   0.00000  Uiso   1.00
H879   H     0.01729   0.48098   0.98682   0.00000  Uiso   1.00
H880   H     0.30470   0.55284   0.52188   0.00000  Uiso   1.00
H881   H     0.09341   0.49602   0.59197   0.00000  Uiso   1.00
H882   H     0.22217   0.55467   0.92090   0.00000  Uiso   1.00
H883   H     0.20218   0.62812   0.79874   0.00000  Uiso   1.00
H884   H     0.13119   0.37187   0.70121   0.00000  Uiso   1.00
H885   H     0.20342   0.37121   0.79798   0.00000  Uiso   1.00
H886   H     0.13000   0.62877   0.70193   0.00000  Uiso   1.00
H887   H     0.06303   0.44598   0.70727   0.00000  Uiso   1.00
H888   H     0.27030   0.55403   0.79272   0.00000  Uiso   1.00
N889   N     0.04759   0.50001   0.75001   0.00000  Uiso   1.00
N890   N     0.28574   0.49999   0.74999   0.00000  Uiso   1.00
O891   O     0.12846   0.56108   0.75001   0.00000  Uiso   1.00
O892   O     0.20488   0.43892   0.75000   0.00000  Uiso   1.00
O893   O     0.20490   0.56107   0.75000   0.00000  Uiso   1.00
O894   O     0.12843   0.43893   0.75000   0.00000  Uiso   1.00
O895   O     0.10661   0.50001   0.81613   0.00000  Uiso   1.00
O896   O     0.22672   0.49999   0.68388   0.00000  Uiso   1.00
O897   O     0.18305   0.50000   0.81612   0.00000  Uiso   1.00
O898   O     0.15028   0.50000   0.68388   0.00000  Uiso   1.00
Zn899  Zn    0.11562   0.50001   0.75000   0.00000  Uiso   1.00
Zn900  Zn    0.21771   0.49999   0.75000   0.00000  Uiso   1.00
S901   S     0.31288   0.42587   0.69353   0.00000  Uiso   1.00
O902   O     0.28886   0.39231   0.72763   0.00000  Uiso   1.00
O903   O     0.28299   0.43664   0.66593   0.00000  Uiso   1.00
O904   O     0.03407   0.40640   0.65534   0.00000  Uiso   1.00
H905   H     0.02678   0.38010   0.64238   0.00000  Uiso   1.00
S906   S     0.02051   0.57423   0.80633   0.00000  Uiso   1.00
O907   O     0.05035   0.56347   0.83399   0.00000  Uiso   1.00
O908   O     0.04462   0.60771   0.77216   0.00000  Uiso   1.00
O909   O     0.29935   0.59384   0.84442   0.00000  Uiso   1.00
H910   H     0.30689   0.61921   0.85877   0.00000  Uiso   1.00
C911   C     0.49945   0.57990   0.75033   0.00000  Uiso   1.00
C912   C     0.50056   0.42010   0.74965   0.00000  Uiso   1.00
C913   C     0.43993   0.50053   0.55462   0.00000  Uiso   1.00
C914   C     0.54574   0.54201   0.95536   0.00000  Uiso   1.00
C915   C     0.40601   0.49571   0.53470   0.00000  Uiso   1.00
C916   C     0.57944   0.54709   0.97556   0.00000  Uiso   1.00
C917   C     0.52017   0.64500   0.77735   0.00000  Uiso   1.00
C918   C     0.47987   0.35499   0.72259   0.00000  Uiso   1.00
C919   C     0.52123   0.35462   0.77668   0.00000  Uiso   1.00
C920   C     0.47884   0.64537   0.72325   0.00000  Uiso   1.00
C921   C     0.50122   0.37590   0.74919   0.00000  Uiso   1.00
C922   C     0.49882   0.62409   0.75076   0.00000  Uiso   1.00
C923   C     0.65506   0.46951   0.72519   0.00000  Uiso   1.00
C924   C     0.34495   0.53051   0.77478   0.00000  Uiso   1.00
C925   C     0.36892   0.46997   0.72584   0.00000  Uiso   1.00
C926   C     0.63108   0.53004   0.77415   0.00000  Uiso   1.00
C927   C     0.46919   0.50077   0.83813   0.00000  Uiso   1.00
C928   C     0.53076   0.50011   0.66188   0.00000  Uiso   1.00
C929   C     0.44949   0.50363   0.88940   0.00000  Uiso   1.00
C930   C     0.54942   0.50535   0.61119   0.00000  Uiso   1.00
C931   C     0.38691   0.49131   0.96582   0.00000  Uiso   1.00
C932   C     0.60398   0.53765   0.54072   0.00000  Uiso   1.00
C933   C     0.40179   0.49272   0.91721   0.00000  Uiso   1.00
C934   C     0.59341   0.52476   0.58646   0.00000  Uiso   1.00
C935   C     0.48087   0.51579   0.91047   0.00000  Uiso   1.00
C936   C     0.51748   0.49737   0.58946   0.00000  Uiso   1.00
C937   C     0.46700   0.51453   0.95902   0.00000  Uiso   1.00
C938   C     0.52470   0.51393   0.54593   0.00000  Uiso   1.00
C939   C     0.41960   0.50090   0.98675   0.00000  Uiso   1.00
C940   C     0.56970   0.53276   0.52045   0.00000  Uiso   1.00
C941   C     0.50048   0.52312   0.98001   0.00000  Uiso   1.00
C942   C     0.48835   0.51205   0.52725   0.00000  Uiso   1.00
H943   H     0.36954   0.48630   0.55663   0.00000  Uiso   1.00
H944   H     0.61344   0.56203   0.95577   0.00000  Uiso   1.00
H945   H     0.48608   0.47909   0.60808   0.00000  Uiso   1.00
H946   H     0.51740   0.52363   0.88786   0.00000  Uiso   1.00
H947   H     0.61848   0.53137   0.60297   0.00000  Uiso   1.00
H948   H     0.37690   0.48365   0.90133   0.00000  Uiso   1.00
H949   H     0.35062   0.48098   0.98682   0.00000  Uiso   1.00
H950   H     0.63803   0.55284   0.52188   0.00000  Uiso   1.00
H951   H     0.42675   0.49602   0.59197   0.00000  Uiso   1.00
H952   H     0.55550   0.55467   0.92090   0.00000  Uiso   1.00
H953   H     0.53551   0.62812   0.79874   0.00000  Uiso   1.00
H954   H     0.46453   0.37187   0.70121   0.00000  Uiso   1.00
H955   H     0.53676   0.37121   0.79798   0.00000  Uiso   1.00
H956   H     0.46333   0.62877   0.70193   0.00000  Uiso   1.00
H957   H     0.39636   0.44598   0.70727   0.00000  Uiso   1.00
H958   H     0.60364   0.55403   0.79272   0.00000  Uiso   1.00
N959   N     0.38093   0.50001   0.75001   0.00000  Uiso   1.00
N960   N     0.61907   0.49999   0.74999   0.00000  Uiso   1.00
O961   O     0.46179   0.56108   0.75001   0.00000  Uiso   1.00
O962   O     0.53821   0.43892   0.75000   0.00000  Uiso   1.00
O963   O     0.53823   0.56107   0.75000   0.00000  Uiso   1.00
O964   O     0.46177   0.43893   0.75000   0.00000  Uiso   1.00
O965   O     0.43994   0.50001   0.81613   0.00000  Uiso   1.00
O966   O     0.56006   0.49999   0.68388   0.00000  Uiso   1.00
O967   O     0.51639   0.50000   0.81612   0.00000  Uiso   1.00
O968   O     0.48361   0.50000   0.68388   0.00000  Uiso   1.00
Zn969  Zn    0.44896   0.50001   0.75000   0.00000  Uiso   1.00
Zn970  Zn    0.55104   0.49999   0.75000   0.00000  Uiso   1.00
S971   S     0.64621   0.42587   0.69353   0.00000  Uiso   1.00
O972   O     0.62219   0.39231   0.72763   0.00000  Uiso   1.00
O973   O     0.61632   0.43664   0.66593   0.00000  Uiso   1.00
O974   O     0.36740   0.40640   0.65534   0.00000  Uiso   1.00
H975   H     0.36011   0.38010   0.64238   0.00000  Uiso   1.00
S976   S     0.35385   0.57423   0.80633   0.00000  Uiso   1.00
O977   O     0.38368   0.56347   0.83399   0.00000  Uiso   1.00
O978   O     0.37795   0.60771   0.77216   0.00000  Uiso   1.00
O979   O     0.63269   0.59384   0.84442   0.00000  Uiso   1.00
H980   H     0.64022   0.61921   0.85877   0.00000  Uiso   1.00
C981   C     0.83279   0.57990   0.75033   0.00000  Uiso   1.00
C982   C     0.83389   0.42010   0.74965   0.00000  Uiso   1.00
C983   C     0.77326   0.50053   0.55462   0.00000  Uiso   1.00
C984   C     0.87907   0.54201   0.95536   0.00000  Uiso   1.00
C985   C     0.73934   0.49571   0.53470   0.00000  Uiso   1.00
C986   C     0.91277   0.54709   0.97556   0.00000  Uiso   1.00
C987   C     0.85350   0.64500   0.77735   0.00000  Uiso   1.00
C988   C     0.81321   0.35499   0.72259   0.00000  Uiso   1.00
C989   C     0.85456   0.35462   0.77668   0.00000  Uiso   1.00
C990   C     0.81217   0.64537   0.72325   0.00000  Uiso   1.00
C991   C     0.83455   0.37590   0.74919   0.00000  Uiso   1.00
C992   C     0.83215   0.62409   0.75076   0.00000  Uiso   1.00
C993   C     0.98839   0.46951   0.72519   0.00000  Uiso   1.00
C994   C     0.67829   0.53051   0.77478   0.00000  Uiso   1.00
C995   C     0.70225   0.46997   0.72584   0.00000  Uiso   1.00
C996   C     0.96442   0.53004   0.77415   0.00000  Uiso   1.00
C997   C     0.80252   0.50077   0.83813   0.00000  Uiso   1.00
C998   C     0.86409   0.50011   0.66188   0.00000  Uiso   1.00
C999   C     0.78282   0.50363   0.88940   0.00000  Uiso   1.00
C1000  C     0.88275   0.50535   0.61119   0.00000  Uiso   1.00
C1001  C     0.72024   0.49131   0.96582   0.00000  Uiso   1.00
C1002  C     0.93732   0.53765   0.54072   0.00000  Uiso   1.00
C1003  C     0.73513   0.49272   0.91721   0.00000  Uiso   1.00
C1004  C     0.92675   0.52476   0.58646   0.00000  Uiso   1.00
C1005  C     0.81421   0.51579   0.91047   0.00000  Uiso   1.00
C1006  C     0.85081   0.49737   0.58946   0.00000  Uiso   1.00
C1007  C     0.80034   0.51453   0.95902   0.00000  Uiso   1.00
C1008  C     0.85803   0.51393   0.54593   0.00000  Uiso   1.00
C1009  C     0.75293   0.50090   0.98675   0.00000  Uiso   1.00
C1010  C     0.90303   0.53276   0.52045   0.00000  Uiso   1.00
C1011  C     0.83381   0.52312   0.98001   0.00000  Uiso   1.00
C1012  C     0.82168   0.51205   0.52725   0.00000  Uiso   1.00
H1013  H     0.70287   0.48630   0.55663   0.00000  Uiso   1.00
H1014  H     0.94677   0.56203   0.95577   0.00000  Uiso   1.00
H1015  H     0.81941   0.47909   0.60808   0.00000  Uiso   1.00
H1016  H     0.85073   0.52363   0.88786   0.00000  Uiso   1.00
H1017  H     0.95181   0.53137   0.60297   0.00000  Uiso   1.00
H1018  H     0.71023   0.48365   0.90133   0.00000  Uiso   1.00
H1019  H     0.68395   0.48098   0.98682   0.00000  Uiso   1.00
H1020  H     0.97136   0.55284   0.52188   0.00000  Uiso   1.00
H1021  H     0.76008   0.49602   0.59197   0.00000  Uiso   1.00
H1022  H     0.88884   0.55467   0.92090   0.00000  Uiso   1.00
H1023  H     0.86884   0.62812   0.79874   0.00000  Uiso   1.00
H1024  H     0.79786   0.37187   0.70121   0.00000  Uiso   1.00
H1025  H     0.87009   0.37121   0.79798   0.00000  Uiso   1.00
H1026  H     0.79666   0.62877   0.70193   0.00000  Uiso   1.00
H1027  H     0.72970   0.44598   0.70727   0.00000  Uiso   1.00
H1028  H     0.93697   0.55403   0.79272   0.00000  Uiso   1.00
N1029  N     0.71426   0.50001   0.75001   0.00000  Uiso   1.00
N1030  N     0.95241   0.49999   0.74999   0.00000  Uiso   1.00
O1031  O     0.79512   0.56108   0.75001   0.00000  Uiso   1.00
O1032  O     0.87154   0.43892   0.75000   0.00000  Uiso   1.00
O1033  O     0.87157   0.56107   0.75000   0.00000  Uiso   1.00
O1034  O     0.79510   0.43893   0.75000   0.00000  Uiso   1.00
O1035  O     0.77328   0.50001   0.81613   0.00000  Uiso   1.00
O1036  O     0.89339   0.49999   0.68388   0.00000  Uiso   1.00
O1037  O     0.84972   0.50000   0.81612   0.00000  Uiso   1.00
O1038  O     0.81695   0.50000   0.68388   0.00000  Uiso   1.00
Zn1039 Zn    0.78229   0.50001   0.75000   0.00000  Uiso   1.00
Zn1040 Zn    0.88438   0.49999   0.75000   0.00000  Uiso   1.00
S1041  S     0.97954   0.42587   0.69353   0.00000  Uiso   1.00
O1042  O     0.95552   0.39231   0.72763   0.00000  Uiso   1.00
O1043  O     0.94965   0.43664   0.66593   0.00000  Uiso   1.00
O1044  O     0.70073   0.40640   0.65534   0.00000  Uiso   1.00
H1045  H     0.69344   0.38010   0.64238   0.00000  Uiso   1.00
S1046  S     0.68718   0.57423   0.80633   0.00000  Uiso   1.00
O1047  O     0.71702   0.56347   0.83399   0.00000  Uiso   1.00
O1048  O     0.71129   0.60771   0.77216   0.00000  Uiso   1.00
O1049  O     0.96602   0.59384   0.84442   0.00000  Uiso   1.00
H1050  H     0.97356   0.61921   0.85877   0.00000  Uiso   1.00
C1051  C     0.16612   0.91323   0.75033   0.00000  Uiso   1.00
C1052  C     0.16722   0.75343   0.74965   0.00000  Uiso   1.00
C1053  C     0.10660   0.83386   0.55462   0.00000  Uiso   1.00
C1054  C     0.21241   0.87535   0.95536   0.00000  Uiso   1.00
C1055  C     0.07268   0.82904   0.53470   0.00000  Uiso   1.00
C1056  C     0.24611   0.88042   0.97556   0.00000  Uiso   1.00
C1057  C     0.18684   0.97833   0.77735   0.00000  Uiso   1.00
C1058  C     0.14654   0.68833   0.72259   0.00000  Uiso   1.00
C1059  C     0.18790   0.68796   0.77668   0.00000  Uiso   1.00
C1060  C     0.14550   0.97870   0.72325   0.00000  Uiso   1.00
C1061  C     0.16788   0.70924   0.74919   0.00000  Uiso   1.00
C1062  C     0.16549   0.95742   0.75076   0.00000  Uiso   1.00
C1063  C     0.32173   0.80285   0.72519   0.00000  Uiso   1.00
C1064  C     0.01162   0.86385   0.77478   0.00000  Uiso   1.00
C1065  C     0.03559   0.80331   0.72584   0.00000  Uiso   1.00
C1066  C     0.29775   0.86337   0.77415   0.00000  Uiso   1.00
C1067  C     0.13586   0.83410   0.83813   0.00000  Uiso   1.00
C1068  C     0.19743   0.83344   0.66188   0.00000  Uiso   1.00
C1069  C     0.11616   0.83696   0.88940   0.00000  Uiso   1.00
C1070  C     0.21608   0.83868   0.61119   0.00000  Uiso   1.00
C1071  C     0.05358   0.82465   0.96582   0.00000  Uiso   1.00
C1072  C     0.27065   0.87098   0.54072   0.00000  Uiso   1.00
C1073  C     0.06846   0.82606   0.91721   0.00000  Uiso   1.00
C1074  C     0.26008   0.85809   0.58646   0.00000  Uiso   1.00
C1075  C     0.14754   0.84912   0.91047   0.00000  Uiso   1.00
C1076  C     0.18414   0.83070   0.58946   0.00000  Uiso   1.00
C1077  C     0.13367   0.84786   0.95902   0.00000  Uiso   1.00
C1078  C     0.19137   0.84726   0.54593   0.00000  Uiso   1.00
C1079  C     0.08627   0.83423   0.98675   0.00000  Uiso   1.00
C1080  C     0.23637   0.86609   0.52045   0.00000  Uiso   1.00
C1081  C     0.16715   0.85646   0.98001   0.00000  Uiso   1.00
C1082  C     0.15501   0.84538   0.52725   0.00000  Uiso   1.00
H1083  H     0.03621   0.81963   0.55663   0.00000  Uiso   1.00
H1084  H     0.28011   0.89536   0.95577   0.00000  Uiso   1.00
H1085  H     0.15274   0.81242   0.60808   0.00000  Uiso   1.00
H1086  H     0.18407   0.85696   0.88786   0.00000  Uiso   1.00
H1087  H     0.28515   0.86470   0.60297   0.00000  Uiso   1.00
H1088  H     0.04356   0.81699   0.90133   0.00000  Uiso   1.00
H1089  H     0.01729   0.81432   0.98682   0.00000  Uiso   1.00
H1090  H     0.30470   0.88617   0.52188   0.00000  Uiso   1.00
H1091  H     0.09341   0.82935   0.59197   0.00000  Uiso   1.00
H1092  H     0.22217   0.88800   0.92090   0.00000  Uiso   1.00
H1093  H     0.20218   0.96145   0.79874   0.00000  Uiso   1.00
H1094  H     0.13119   0.70520   0.70121   0.00000  Uiso   1.00
H1095  H     0.20342   0.70454   0.79798   0.00000  Uiso   1.00
H1096  H     0.13000   0.96211   0.70193   0.00000  Uiso   1.00
H1097  H     0.06303   0.77931   0.70727   0.00000  Uiso   1.00
H1098  H     0.27030   0.88737   0.79272   0.00000  Uiso   1.00
N1099  N     0.04759   0.83334   0.75001   0.00000  Uiso   1.00
N1100  N     0.28574   0.83332   0.74999   0.00000  Uiso   1.00
O1101  O     0.12846   0.89442   0.75001   0.00000  Uiso   1.00
O1102  O     0.20488   0.77225   0.75000   0.00000  Uiso   1.00
O1103  O     0.20490   0.89441   0.75000   0.00000  Uiso   1.00
O1104  O     0.12843   0.77226   0.75000   0.00000  Uiso   1.00
O1105  O     0.10661   0.83334   0.81613   0.00000  Uiso   1.00
O1106  O     0.22672   0.83333   0.68388   0.00000  Uiso   1.00
O1107  O     0.18305   0.83333   0.81612   0.00000  Uiso   1.00
O1108  O     0.15028   0.83334   0.68388   0.00000  Uiso   1.00
Zn1109 Zn    0.11562   0.83334   0.75000   0.00000  Uiso   1.00
Zn1110 Zn    0.21771   0.83333   0.75000   0.00000  Uiso   1.00
S1111  S     0.31288   0.75920   0.69353   0.00000  Uiso   1.00
O1112  O     0.28886   0.72564   0.72763   0.00000  Uiso   1.00
O1113  O     0.28299   0.76997   0.66593   0.00000  Uiso   1.00
O1114  O     0.03407   0.73973   0.65534   0.00000  Uiso   1.00
H1115  H     0.02678   0.71343   0.64238   0.00000  Uiso   1.00
S1116  S     0.02051   0.90756   0.80633   0.00000  Uiso   1.00
O1117  O     0.05035   0.89680   0.83399   0.00000  Uiso   1.00
O1118  O     0.04462   0.94104   0.77216   0.00000  Uiso   1.00
O1119  O     0.29935   0.92717   0.84442   0.00000  Uiso   1.00
H1120  H     0.30689   0.95254   0.85877   0.00000  Uiso   1.00
C1121  C     0.49945   0.91323   0.75033   0.00000  Uiso   1.00
C1122  C     0.50056   0.75343   0.74965   0.00000  Uiso   1.00
C1123  C     0.43993   0.83386   0.55462   0.00000  Uiso   1.00
C1124  C     0.54574   0.87535   0.95536   0.00000  Uiso   1.00
C1125  C     0.40601   0.82904   0.53470   0.00000  Uiso   1.00
C1126  C     0.57944   0.88042   0.97556   0.00000  Uiso   1.00
C1127  C     0.52017   0.97833   0.77735   0.00000  Uiso   1.00
C1128  C     0.47987   0.68833   0.72259   0.00000  Uiso   1.00
C1129  C     0.52123   0.68796   0.77668   0.00000  Uiso   1.00
C1130  C     0.47884   0.97870   0.72325   0.00000  Uiso   1.00
C1131  C     0.50122   0.70924   0.74919   0.00000  Uiso   1.00
C1132  C     0.49882   0.95742   0.75076   0.00000  Uiso   1.00
C1133  C     0.65506   0.80285   0.72519   0.00000  Uiso   1.00
C1134  C     0.34495   0.86385   0.77478   0.00000  Uiso   1.00
C1135  C     0.36892   0.80331   0.72584   0.00000  Uiso   1.00
C1136  C     0.63108   0.86337   0.77415   0.00000  Uiso   1.00
C1137  C     0.46919   0.83410   0.83813   0.00000  Uiso   1.00
C1138  C     0.53076   0.83344   0.66188   0.00000  Uiso   1.00
C1139  C     0.44949   0.83696   0.88940   0.00000  Uiso   1.00
C1140  C     0.54942   0.83868   0.61119   0.00000  Uiso   1.00
C1141  C     0.38691   0.82465   0.96582   0.00000  Uiso   1.00
C1142  C     0.60398   0.87098   0.54072   0.00000  Uiso   1.00
C1143  C     0.40179   0.82606   0.91721   0.00000  Uiso   1.00
C1144  C     0.59341   0.85809   0.58646   0.00000  Uiso   1.00
C1145  C     0.48087   0.84912   0.91047   0.00000  Uiso   1.00
C1146  C     0.51748   0.83070   0.58946   0.00000  Uiso   1.00
C1147  C     0.46700   0.84786   0.95902   0.00000  Uiso   1.00
C1148  C     0.52470   0.84726   0.54593   0.00000  Uiso   1.00
C1149  C     0.41960   0.83423   0.98675   0.00000  Uiso   1.00
C1150  C     0.56970   0.86609   0.52045   0.00000  Uiso   1.00
C1151  C     0.50048   0.85646   0.98001   0.00000  Uiso   1.00
C1152  C     0.48835   0.84538   0.52725   0.00000  Uiso   1.00
H1153  H     0.36954   0.81963   0.55663   0.00000  Uiso   1.00
H1154  H     0.61344   0.89536   0.95577   0.00000  Uiso   1.00
H1155  H     0.48608   0.81242   0.60808   0.00000  Uiso   1.00
H1156  H     0.51740   0.85696   0.88786   0.00000  Uiso   1.00
H1157  H     0.61848   0.86470   0.60297   0.00000  Uiso   1.00
H1158  H     0.37690   0.81699   0.90133   0.00000  Uiso   1.00
H1159  H     0.35062   0.81432   0.98682   0.00000  Uiso   1.00
H1160  H     0.63803   0.88617   0.52188   0.00000  Uiso   1.00
H1161  H     0.42675   0.82935   0.59197   0.00000  Uiso   1.00
H1162  H     0.55550   0.88800   0.92090   0.00000  Uiso   1.00
H1163  H     0.53551   0.96145   0.79874   0.00000  Uiso   1.00
H1164  H     0.46453   0.70520   0.70121   0.00000  Uiso   1.00
H1165  H     0.53676   0.70454   0.79798   0.00000  Uiso   1.00
H1166  H     0.46333   0.96211   0.70193   0.00000  Uiso   1.00
H1167  H     0.39636   0.77931   0.70727   0.00000  Uiso   1.00
H1168  H     0.60364   0.88737   0.79272   0.00000  Uiso   1.00
N1169  N     0.38093   0.83334   0.75001   0.00000  Uiso   1.00
N1170  N     0.61907   0.83332   0.74999   0.00000  Uiso   1.00
O1171  O     0.46179   0.89442   0.75001   0.00000  Uiso   1.00
O1172  O     0.53821   0.77225   0.75000   0.00000  Uiso   1.00
O1173  O     0.53823   0.89441   0.75000   0.00000  Uiso   1.00
O1174  O     0.46177   0.77226   0.75000   0.00000  Uiso   1.00
O1175  O     0.43994   0.83334   0.81613   0.00000  Uiso   1.00
O1176  O     0.56006   0.83333   0.68388   0.00000  Uiso   1.00
O1177  O     0.51639   0.83333   0.81612   0.00000  Uiso   1.00
O1178  O     0.48361   0.83334   0.68388   0.00000  Uiso   1.00
Zn1179 Zn    0.44896   0.83334   0.75000   0.00000  Uiso   1.00
Zn1180 Zn    0.55104   0.83333   0.75000   0.00000  Uiso   1.00
S1181  S     0.64621   0.75920   0.69353   0.00000  Uiso   1.00
O1182  O     0.62219   0.72564   0.72763   0.00000  Uiso   1.00
O1183  O     0.61632   0.76997   0.66593   0.00000  Uiso   1.00
O1184  O     0.36740   0.73973   0.65534   0.00000  Uiso   1.00
H1185  H     0.36011   0.71343   0.64238   0.00000  Uiso   1.00
S1186  S     0.35385   0.90756   0.80633   0.00000  Uiso   1.00
O1187  O     0.38368   0.89680   0.83399   0.00000  Uiso   1.00
O1188  O     0.37795   0.94104   0.77216   0.00000  Uiso   1.00
O1189  O     0.63269   0.92717   0.84442   0.00000  Uiso   1.00
H1190  H     0.64022   0.95254   0.85877   0.00000  Uiso   1.00
C1191  C     0.83279   0.91323   0.75033   0.00000  Uiso   1.00
C1192  C     0.83389   0.75343   0.74965   0.00000  Uiso   1.00
C1193  C     0.77326   0.83386   0.55462   0.00000  Uiso   1.00
C1194  C     0.87907   0.87535   0.95536   0.00000  Uiso   1.00
C1195  C     0.73934   0.82904   0.53470   0.00000  Uiso   1.00
C1196  C     0.91277   0.88042   0.97556   0.00000  Uiso   1.00
C1197  C     0.85350   0.97833   0.77735   0.00000  Uiso   1.00
C1198  C     0.81321   0.68833   0.72259   0.00000  Uiso   1.00
C1199  C     0.85456   0.68796   0.77668   0.00000  Uiso   1.00
C1200  C     0.81217   0.97870   0.72325   0.00000  Uiso   1.00
C1201  C     0.83455   0.70924   0.74919   0.00000  Uiso   1.00
C1202  C     0.83215   0.95742   0.75076   0.00000  Uiso   1.00
C1203  C     0.98839   0.80285   0.72519   0.00000  Uiso   1.00
C1204  C     0.67829   0.86385   0.77478   0.00000  Uiso   1.00
C1205  C     0.70225   0.80331   0.72584   0.00000  Uiso   1.00
C1206  C     0.96442   0.86337   0.77415   0.00000  Uiso   1.00
C1207  C     0.80252   0.83410   0.83813   0.00000  Uiso   1.00
C1208  C     0.86409   0.83344   0.66188   0.00000  Uiso   1.00
C1209  C     0.78282   0.83696   0.88940   0.00000  Uiso   1.00
C1210  C     0.88275   0.83868   0.61119   0.00000  Uiso   1.00
C1211  C     0.72024   0.82465   0.96582   0.00000  Uiso   1.00
C1212  C     0.93732   0.87098   0.54072   0.00000  Uiso   1.00
C1213  C     0.73513   0.82606   0.91721   0.00000  Uiso   1.00
C1214  C     0.92675   0.85809   0.58646   0.00000  Uiso   1.00
C1215  C     0.81421   0.84912   0.91047   0.00000  Uiso   1.00
C1216  C     0.85081   0.83070   0.58946   0.00000  Uiso   1.00
C1217  C     0.80034   0.84786   0.95902   0.00000  Uiso   1.00
C1218  C     0.85803   0.84726   0.54593   0.00000  Uiso   1.00
C1219  C     0.75293   0.83423   0.98675   0.00000  Uiso   1.00
C1220  C     0.90303   0.86609   0.52045   0.00000  Uiso   1.00
C1221  C     0.83381   0.85646   0.98001   0.00000  Uiso   1.00
C1222  C     0.82168   0.84538   0.52725   0.00000  Uiso   1.00
H1223  H     0.70287   0.81963   0.55663   0.00000  Uiso   1.00
H1224  H     0.94677   0.89536   0.95577   0.00000  Uiso   1.00
H1225  H     0.81941   0.81242   0.60808   0.00000  Uiso   1.00
H1226  H     0.85073   0.85696   0.88786   0.00000  Uiso   1.00
H1227  H     0.95181   0.86470   0.60297   0.00000  Uiso   1.00
H1228  H     0.71023   0.81699   0.90133   0.00000  Uiso   1.00
H1229  H     0.68395   0.81432   0.98682   0.00000  Uiso   1.00
H1230  H     0.97136   0.88617   0.52188   0.00000  Uiso   1.00
H1231  H     0.76008   0.82935   0.59197   0.00000  Uiso   1.00
H1232  H     0.88884   0.88800   0.92090   0.00000  Uiso   1.00
H1233  H     0.86884   0.96145   0.79874   0.00000  Uiso   1.00
H1234  H     0.79786   0.70520   0.70121   0.00000  Uiso   1.00
H1235  H     0.87009   0.70454   0.79798   0.00000  Uiso   1.00
H1236  H     0.79666   0.96211   0.70193   0.00000  Uiso   1.00
H1237  H     0.72970   0.77931   0.70727   0.00000  Uiso   1.00
H1238  H     0.93697   0.88737   0.79272   0.00000  Uiso   1.00
N1239  N     0.71426   0.83334   0.75001   0.00000  Uiso   1.00
N1240  N     0.95241   0.83332   0.74999   0.00000  Uiso   1.00
O1241  O     0.79512   0.89442   0.75001   0.00000  Uiso   1.00
O1242  O     0.87154   0.77225   0.75000   0.00000  Uiso   1.00
O1243  O     0.87157   0.89441   0.75000   0.00000  Uiso   1.00
O1244  O     0.79510   0.77226   0.75000   0.00000  Uiso   1.00
O1245  O     0.77328   0.83334   0.81613   0.00000  Uiso   1.00
O1246  O     0.89339   0.83333   0.68388   0.00000  Uiso   1.00
O1247  O     0.84972   0.83333   0.81612   0.00000  Uiso   1.00
O1248  O     0.81695   0.83334   0.68388   0.00000  Uiso   1.00
Zn1249 Zn    0.78229   0.83334   0.75000   0.00000  Uiso   1.00
Zn1250 Zn    0.88438   0.83333   0.75000   0.00000  Uiso   1.00
S1251  S     0.97954   0.75920   0.69353   0.00000  Uiso   1.00
O1252  O     0.95552   0.72564   0.72763   0.00000  Uiso   1.00
O1253  O     0.94965   0.76997   0.66593   0.00000  Uiso   1.00
O1254  O     0.70073   0.73973   0.65534   0.00000  Uiso   1.00
H1255  H     0.69344   0.71343   0.64238   0.00000  Uiso   1.00
S1256  S     0.68718   0.90756   0.80633   0.00000  Uiso   1.00
O1257  O     0.71702   0.89680   0.83399   0.00000  Uiso   1.00
O1258  O     0.71129   0.94104   0.77216   0.00000  Uiso   1.00
O1259  O     0.96602   0.92717   0.84442   0.00000  Uiso   1.00
H1260  H     0.97356   0.95254   0.85877   0.00000  Uiso   1.00
loop_
_geom_bond_atom_site_label_1
_geom_bond_atom_site_label_2
_geom_bond_distance
_geom_bond_site_symmetry_2
_ccdc_geom_bond_type
C1     O51     1.292   .     A
C1     C12     1.409   .     S
C1     O53     1.285   .     A
C2     O52     1.292   .     A
C2     C11     1.410   .     S
C2     O54     1.285   .     A
C3     C5      1.388   .     A
C3     C32     1.418   .     A
C3     H41     1.079   .     S
C4     H42     1.078   .     S
C4     C31     1.419   .     A
C4     C6      1.390   .     A
C5     H33     1.084   .     S
C5     C659    1.391   1_554 S
C6     H34     1.084   .     S
C6     C660    1.391   .     S
C7     H43     1.084   .     S
C7     C12     1.397   .     A
C7     C219    1.372   .     S
C8     H44     1.084   .     S
C8     C11     1.397   .     A
C8     C430    1.372   1_545 S
C9     H45     1.084   .     S
C9     C11     1.393   .     A
C9     C427    1.372   1_545 S
C10    H46     1.084   .     S
C10    C12     1.393   .     A
C10    C218    1.372   .     S
C13    N50     1.399   .     A
C13    S61     1.776   .     S
C13    C85     1.416   .     S
C14    S66     1.776   .     S
C14    N49     1.399   .     A
C14    C156    1.416   1_455 S
C15    N49     1.348   .     A
C15    H47     1.081   .     S
C15    C153    1.416   1_455 S
C16    H48     1.081   .     S
C16    N50     1.348   .     A
C16    C84     1.416   .     S
C17    O55     1.303   .     A
C17    C19     1.460   .     S
C17    O57     1.299   .     A
C18    O56     1.303   .     A
C18    C20     1.459   .     S
C18    O58     1.298   .     A
C19    C25     1.396   .     A
C19    C23     1.398   .     A
C20    C24     1.399   .     A
C20    C26     1.393   .     A
C21    C29     1.405   .     A
C21    C23     1.394   .     A
C21    H39     1.083   .     S
C22    H40     1.084   .     S
C22    C24     1.396   .     A
C22    C30     1.406   .     A
C23    H38     1.083   .     S
C24    H37     1.083   .     S
C25    H36     1.076   .     S
C25    C27     1.396   .     A
C26    H35     1.079   .     S
C26    C28     1.394   .     A
C27    C29     1.418   .     A
C27    C31     1.421   .     A
C28    C30     1.417   .     A
C28    C32     1.419   .     A
C29    C635    1.391   .     S
C30    C636    1.391   1_554 S
C31    C662    1.415   .     S
C32    C661    1.415   1_554 S
N49    Zn59    2.029   .     S
N50    Zn60    2.029   .     S
O51    Zn59    1.996   .     S
O52    Zn60    1.996   .     S
O53    Zn60    1.976   .     S
O54    Zn59    1.976   .     S
O55    Zn59    1.958   .     S
O56    Zn60    1.958   .     S
O57    Zn60    1.896   .     S
O58    Zn59    1.896   .     S
S61    O62     1.501   .     D
S61    O63     1.496   .     D
S61    O134    1.684   .     S
O64    H65     0.991   .     S
O64    S201    1.684   1_455 S
S66    O68     1.501   .     D
S66    O67     1.496   .     D
S66    O209    1.683   1_455 S
O69    H70     0.991   .     S
O69    S136    1.683   .     S
C71    O121    1.292   .     A
C71    C82     1.409   .     S
C71    O123    1.285   .     A
C72    O122    1.292   .     A
C72    C81     1.410   .     S
C72    O124    1.285   .     A
C73    C75     1.388   .     A
C73    C102    1.418   .     A
C73    H111    1.079   .     S
C74    H112    1.078   .     S
C74    C101    1.419   .     A
C74    C76     1.390   .     A
C75    H103    1.084   .     S
C75    C729    1.391   1_554 S
C76    H104    1.084   .     S
C76    C730    1.391   .     S
C77    H113    1.084   .     S
C77    C82     1.397   .     A
C77    C289    1.372   .     S
C78    H114    1.084   .     S
C78    C81     1.397   .     A
C78    C500    1.372   1_545 S
C79    H115    1.084   .     S
C79    C81     1.393   .     A
C79    C497    1.372   1_545 S
C80    H116    1.084   .     S
C80    C82     1.393   .     A
C80    C288    1.372   .     S
C83    N120    1.399   .     A
C83    S131    1.776   .     S
C83    C155    1.416   .     S
C84    S136    1.776   .     S
C84    N119    1.399   .     A
C85    N119    1.348   .     A
C85    H117    1.081   .     S
C86    H118    1.081   .     S
C86    N120    1.348   .     A
C86    C154    1.416   .     S
C87    O125    1.303   .     A
C87    C89     1.460   .     S
C87    O127    1.299   .     A
C88    O126    1.303   .     A
C88    C90     1.459   .     S
C88    O128    1.298   .     A
C89    C95     1.396   .     A
C89    C93     1.398   .     A
C90    C94     1.399   .     A
C90    C96     1.393   .     A
C91    C99     1.405   .     A
C91    C93     1.394   .     A
C91    H109    1.083   .     S
C92    H110    1.084   .     S
C92    C94     1.396   .     A
C92    C100    1.406   .     A
C93    H108    1.083   .     S
C94    H107    1.083   .     S
C95    H106    1.076   .     S
C95    C97     1.396   .     A
C96    H105    1.079   .     S
C96    C98     1.394   .     A
C97    C99     1.418   .     A
C97    C101    1.421   .     A
C98    C100    1.417   .     A
C98    C102    1.419   .     A
C99    C705    1.391   .     S
C100   C706    1.391   1_554 S
C101   C732    1.415   .     S
C102   C731    1.415   1_554 S
N119   Zn129   2.029   .     S
N120   Zn130   2.029   .     S
O121   Zn129   1.996   .     S
O122   Zn130   1.996   .     S
O123   Zn130   1.976   .     S
O124   Zn129   1.976   .     S
O125   Zn129   1.958   .     S
O126   Zn130   1.958   .     S
O127   Zn130   1.896   .     S
O128   Zn129   1.896   .     S
S131   O132    1.501   .     D
S131   O133    1.496   .     D
S131   O204    1.684   .     S
O134   H135    0.991   .     S
S136   O138    1.501   .     D
S136   O137    1.496   .     D
O139   H140    0.991   .     S
O139   S206    1.683   .     S
C141   O191    1.292   .     A
C141   C152    1.409   .     S
C141   O193    1.285   .     A
C142   O192    1.292   .     A
C142   C151    1.410   .     S
C142   O194    1.285   .     A
C143   C145    1.388   .     A
C143   C172    1.418   .     A
C143   H181    1.079   .     S
C144   H182    1.078   .     S
C144   C171    1.419   .     A
C144   C146    1.390   .     A
C145   H173    1.084   .     S
C145   C799    1.391   1_554 S
C146   H174    1.084   .     S
C146   C800    1.391   .     S
C147   H183    1.084   .     S
C147   C152    1.397   .     A
C147   C359    1.372   .     S
C148   H184    1.084   .     S
C148   C151    1.397   .     A
C148   C570    1.372   1_545 S
C149   H185    1.084   .     S
C149   C151    1.393   .     A
C149   C567    1.372   1_545 S
C150   H186    1.084   .     S
C150   C152    1.393   .     A
C150   C358    1.372   .     S
C153   N190    1.399   .     A
C153   S201    1.776   .     S
C153   C15     1.416   1_655 S
C154   S206    1.776   .     S
C154   N189    1.399   .     A
C155   N189    1.348   .     A
C155   H187    1.081   .     S
C156   H188    1.081   .     S
C156   N190    1.348   .     A
C156   C14     1.416   1_655 S
C157   O195    1.303   .     A
C157   C159    1.460   .     S
C157   O197    1.299   .     A
C158   O196    1.303   .     A
C158   C160    1.459   .     S
C158   O198    1.298   .     A
C159   C165    1.396   .     A
C159   C163    1.398   .     A
C160   C164    1.399   .     A
C160   C166    1.393   .     A
C161   C169    1.405   .     A
C161   C163    1.394   .     A
C161   H179    1.083   .     S
C162   H180    1.084   .     S
C162   C164    1.396   .     A
C162   C170    1.406   .     A
C163   H178    1.083   .     S
C164   H177    1.083   .     S
C165   H176    1.076   .     S
C165   C167    1.396   .     A
C166   H175    1.079   .     S
C166   C168    1.394   .     A
C167   C169    1.418   .     A
C167   C171    1.421   .     A
C168   C170    1.417   .     A
C168   C172    1.419   .     A
C169   C775    1.391   .     S
C170   C776    1.391   1_554 S
C171   C802    1.415   .     S
C172   C801    1.415   1_554 S
N189   Zn199   2.029   .     S
N190   Zn200   2.029   .     S
O191   Zn199   1.996   .     S
O192   Zn200   1.996   .     S
O193   Zn200   1.976   .     S
O194   Zn199   1.976   .     S
O195   Zn199   1.958   .     S
O196   Zn200   1.958   .     S
O197   Zn200   1.896   .     S
O198   Zn199   1.896   .     S
S201   O202    1.501   .     D
S201   O203    1.496   .     D
S201   O64     1.684   1_655 S
O204   H205    0.991   .     S
S206   O208    1.501   .     D
S206   O207    1.496   .     D
O209   H210    0.991   .     S
O209   S66     1.683   1_655 S
C211   O261    1.292   .     A
C211   C222    1.409   .     S
C211   O263    1.285   .     A
C212   O262    1.292   .     A
C212   C221    1.410   .     S
C212   O264    1.285   .     A
C213   C215    1.388   .     A
C213   C242    1.418   .     A
C213   H251    1.079   .     S
C214   H252    1.078   .     S
C214   C241    1.419   .     A
C214   C216    1.390   .     A
C215   H243    1.084   .     S
C215   C869    1.391   1_554 S
C216   H244    1.084   .     S
C216   C870    1.391   .     S
C217   H253    1.084   .     S
C217   C222    1.397   .     A
C217   C429    1.372   .     S
C218   H254    1.084   .     S
C218   C221    1.397   .     A
C219   H255    1.084   .     S
C219   C221    1.393   .     A
C220   H256    1.084   .     S
C220   C222    1.393   .     A
C220   C428    1.372   .     S
C223   N260    1.399   .     A
C223   S271    1.776   .     S
C223   C295    1.416   .     S
C224   S276    1.776   .     S
C224   N259    1.399   .     A
C224   C366    1.416   1_455 S
C225   N259    1.348   .     A
C225   H257    1.081   .     S
C225   C363    1.416   1_455 S
C226   H258    1.081   .     S
C226   N260    1.348   .     A
C226   C294    1.416   .     S
C227   O265    1.303   .     A
C227   C229    1.460   .     S
C227   O267    1.299   .     A
C228   O266    1.303   .     A
C228   C230    1.459   .     S
C228   O268    1.298   .     A
C229   C235    1.396   .     A
C229   C233    1.398   .     A
C230   C234    1.399   .     A
C230   C236    1.393   .     A
C231   C239    1.405   .     A
C231   C233    1.394   .     A
C231   H249    1.083   .     S
C232   H250    1.084   .     S
C232   C234    1.396   .     A
C232   C240    1.406   .     A
C233   H248    1.083   .     S
C234   H247    1.083   .     S
C235   H246    1.076   .     S
C235   C237    1.396   .     A
C236   H245    1.079   .     S
C236   C238    1.394   .     A
C237   C239    1.418   .     A
C237   C241    1.421   .     A
C238   C240    1.417   .     A
C238   C242    1.419   .     A
C239   C845    1.391   .     S
C240   C846    1.391   1_554 S
C241   C872    1.415   .     S
C242   C871    1.415   1_554 S
N259   Zn269   2.029   .     S
N260   Zn270   2.029   .     S
O261   Zn269   1.996   .     S
O262   Zn270   1.996   .     S
O263   Zn270   1.976   .     S
O264   Zn269   1.976   .     S
O265   Zn269   1.958   .     S
O266   Zn270   1.958   .     S
O267   Zn270   1.896   .     S
O268   Zn269   1.896   .     S
S271   O272    1.501   .     D
S271   O273    1.496   .     D
S271   O344    1.684   .     S
O274   H275    0.991   .     S
O274   S411    1.684   1_455 S
S276   O278    1.501   .     D
S276   O277    1.496   .     D
S276   O419    1.683   1_455 S
O279   H280    0.991   .     S
O279   S346    1.683   .     S
C281   O331    1.292   .     A
C281   C292    1.409   .     S
C281   O333    1.285   .     A
C282   O332    1.292   .     A
C282   C291    1.410   .     S
C282   O334    1.285   .     A
C283   C285    1.388   .     A
C283   C312    1.418   .     A
C283   H321    1.079   .     S
C284   H322    1.078   .     S
C284   C311    1.419   .     A
C284   C286    1.390   .     A
C285   H313    1.084   .     S
C285   C939    1.391   1_554 S
C286   H314    1.084   .     S
C286   C940    1.391   .     S
C287   H323    1.084   .     S
C287   C292    1.397   .     A
C287   C499    1.372   .     S
C288   H324    1.084   .     S
C288   C291    1.397   .     A
C289   H325    1.084   .     S
C289   C291    1.393   .     A
C290   H326    1.084   .     S
C290   C292    1.393   .     A
C290   C498    1.372   .     S
C293   N330    1.399   .     A
C293   S341    1.776   .     S
C293   C365    1.416   .     S
C294   S346    1.776   .     S
C294   N329    1.399   .     A
C295   N329    1.348   .     A
C295   H327    1.081   .     S
C296   H328    1.081   .     S
C296   N330    1.348   .     A
C296   C364    1.416   .     S
C297   O335    1.303   .     A
C297   C299    1.460   .     S
C297   O337    1.299   .     A
C298   O336    1.303   .     A
C298   C300    1.459   .     S
C298   O338    1.298   .     A
C299   C305    1.396   .     A
C299   C303    1.398   .     A
C300   C304    1.399   .     A
C300   C306    1.393   .     A
C301   C309    1.405   .     A
C301   C303    1.394   .     A
C301   H319    1.083   .     S
C302   H320    1.084   .     S
C302   C304    1.396   .     A
C302   C310    1.406   .     A
C303   H318    1.083   .     S
C304   H317    1.083   .     S
C305   H316    1.076   .     S
C305   C307    1.396   .     A
C306   H315    1.079   .     S
C306   C308    1.394   .     A
C307   C309    1.418   .     A
C307   C311    1.421   .     A
C308   C310    1.417   .     A
C308   C312    1.419   .     A
C309   C915    1.391   .     S
C310   C916    1.391   1_554 S
C311   C942    1.415   .     S
C312   C941    1.415   1_554 S
N329   Zn339   2.029   .     S
N330   Zn340   2.029   .     S
O331   Zn339   1.996   .     S
O332   Zn340   1.996   .     S
O333   Zn340   1.976   .     S
O334   Zn339   1.976   .     S
O335   Zn339   1.958   .     S
O336   Zn340   1.958   .     S
O337   Zn340   1.896   .     S
O338   Zn339   1.896   .     S
S341   O342    1.501   .     D
S341   O343    1.496   .     D
S341   O414    1.684   .     S
O344   H345    0.991   .     S
S346   O348    1.501   .     D
S346   O347    1.496   .     D
O349   H350    0.991   .     S
O349   S416    1.683   .     S
C351   O401    1.292   .     A
C351   C362    1.409   .     S
C351   O403    1.285   .     A
C352   O402    1.292   .     A
C352   C361    1.410   .     S
C352   O404    1.285   .     A
C353   C355    1.388   .     A
C353   C382    1.418   .     A
C353   H391    1.079   .     S
C354   H392    1.078   .     S
C354   C381    1.419   .     A
C354   C356    1.390   .     A
C355   H383    1.084   .     S
C355   C1009   1.391   1_554 S
C356   H384    1.084   .     S
C356   C1010   1.391   .     S
C357   H393    1.084   .     S
C357   C362    1.397   .     A
C357   C569    1.372   .     S
C358   H394    1.084   .     S
C358   C361    1.397   .     A
C359   H395    1.084   .     S
C359   C361    1.393   .     A
C360   H396    1.084   .     S
C360   C362    1.393   .     A
C360   C568    1.372   .     S
C363   N400    1.399   .     A
C363   S411    1.776   .     S
C363   C225    1.416   1_655 S
C364   S416    1.776   .     S
C364   N399    1.399   .     A
C365   N399    1.348   .     A
C365   H397    1.081   .     S
C366   H398    1.081   .     S
C366   N400    1.348   .     A
C366   C224    1.416   1_655 S
C367   O405    1.303   .     A
C367   C369    1.460   .     S
C367   O407    1.299   .     A
C368   O406    1.303   .     A
C368   C370    1.459   .     S
C368   O408    1.298   .     A
C369   C375    1.396   .     A
C369   C373    1.398   .     A
C370   C374    1.399   .     A
C370   C376    1.393   .     A
C371   C379    1.405   .     A
C371   C373    1.394   .     A
C371   H389    1.083   .     S
C372   H390    1.084   .     S
C372   C374    1.396   .     A
C372   C380    1.406   .     A
C373   H388    1.083   .     S
C374   H387    1.083   .     S
C375   H386    1.076   .     S
C375   C377    1.396   .     A
C376   H385    1.079   .     S
C376   C378    1.394   .     A
C377   C379    1.418   .     A
C377   C381    1.421   .     A
C378   C380    1.417   .     A
C378   C382    1.419   .     A
C379   C985    1.391   .     S
C380   C986    1.391   1_554 S
C381   C1012   1.415   .     S
C382   C1011   1.415   1_554 S
N399   Zn409   2.029   .     S
N400   Zn410   2.029   .     S
O401   Zn409   1.996   .     S
O402   Zn410   1.996   .     S
O403   Zn410   1.976   .     S
O404   Zn409   1.976   .     S
O405   Zn409   1.958   .     S
O406   Zn410   1.958   .     S
O407   Zn410   1.896   .     S
O408   Zn409   1.896   .     S
S411   O412    1.501   .     D
S411   O413    1.496   .     D
S411   O274    1.684   1_655 S
O414   H415    0.991   .     S
S416   O418    1.501   .     D
S416   O417    1.496   .     D
O419   H420    0.991   .     S
O419   S276    1.683   1_655 S
C421   O471    1.292   .     A
C421   C432    1.409   .     S
C421   O473    1.285   .     A
C422   O472    1.292   .     A
C422   C431    1.410   .     S
C422   O474    1.285   .     A
C423   C425    1.388   .     A
C423   C452    1.418   .     A
C423   H461    1.079   .     S
C424   H462    1.078   .     S
C424   C451    1.419   .     A
C424   C426    1.390   .     A
C425   H453    1.084   .     S
C425   C1079   1.391   1_554 S
C426   H454    1.084   .     S
C426   C1080   1.391   .     S
C427   H463    1.084   .     S
C427   C432    1.397   .     A
C427   C9      1.372   1_565 S
C428   H464    1.084   .     S
C428   C431    1.397   .     A
C429   H465    1.084   .     S
C429   C431    1.393   .     A
C430   H466    1.084   .     S
C430   C432    1.393   .     A
C430   C8      1.372   1_565 S
C433   N470    1.399   .     A
C433   S481    1.776   .     S
C433   C505    1.416   .     S
C434   S486    1.776   .     S
C434   N469    1.399   .     A
C434   C576    1.416   1_455 S
C435   N469    1.348   .     A
C435   H467    1.081   .     S
C435   C573    1.416   1_455 S
C436   H468    1.081   .     S
C436   N470    1.348   .     A
C436   C504    1.416   .     S
C437   O475    1.303   .     A
C437   C439    1.460   .     S
C437   O477    1.299   .     A
C438   O476    1.303   .     A
C438   C440    1.459   .     S
C438   O478    1.298   .     A
C439   C445    1.396   .     A
C439   C443    1.398   .     A
C440   C444    1.399   .     A
C440   C446    1.393   .     A
C441   C449    1.405   .     A
C441   C443    1.394   .     A
C441   H459    1.083   .     S
C442   H460    1.084   .     S
C442   C444    1.396   .     A
C442   C450    1.406   .     A
C443   H458    1.083   .     S
C444   H457    1.083   .     S
C445   H456    1.076   .     S
C445   C447    1.396   .     A
C446   H455    1.079   .     S
C446   C448    1.394   .     A
C447   C449    1.418   .     A
C447   C451    1.421   .     A
C448   C450    1.417   .     A
C448   C452    1.419   .     A
C449   C1055   1.391   .     S
C450   C1056   1.391   1_554 S
C451   C1082   1.415   .     S
C452   C1081   1.415   1_554 S
N469   Zn479   2.029   .     S
N470   Zn480   2.029   .     S
O471   Zn479   1.996   .     S
O472   Zn480   1.996   .     S
O473   Zn480   1.976   .     S
O474   Zn479   1.976   .     S
O475   Zn479   1.958   .     S
O476   Zn480   1.958   .     S
O477   Zn480   1.896   .     S
O478   Zn479   1.896   .     S
S481   O482    1.501   .     D
S481   O483    1.496   .     D
S481   O554    1.684   .     S
O484   H485    0.991   .     S
O484   S621    1.684   1_455 S
S486   O488    1.501   .     D
S486   O487    1.496   .     D
S486   O629    1.683   1_455 S
O489   H490    0.991   .     S
O489   S556    1.683   .     S
C491   O541    1.292   .     A
C491   C502    1.409   .     S
C491   O543    1.285   .     A
C492   O542    1.292   .     A
C492   C501    1.410   .     S
C492   O544    1.285   .     A
C493   C495    1.388   .     A
C493   C522    1.418   .     A
C493   H531    1.079   .     S
C494   H532    1.078   .     S
C494   C521    1.419   .     A
C494   C496    1.390   .     A
C495   H523    1.084   .     S
C495   C1149   1.391   1_554 S
C496   H524    1.084   .     S
C496   C1150   1.391   .     S
C497   H533    1.084   .     S
C497   C502    1.397   .     A
C497   C79     1.372   1_565 S
C498   H534    1.084   .     S
C498   C501    1.397   .     A
C499   H535    1.084   .     S
C499   C501    1.393   .     A
C500   H536    1.084   .     S
C500   C502    1.393   .     A
C500   C78     1.372   1_565 S
C503   N540    1.399   .     A
C503   S551    1.776   .     S
C503   C575    1.416   .     S
C504   S556    1.776   .     S
C504   N539    1.399   .     A
C505   N539    1.348   .     A
C505   H537    1.081   .     S
C506   H538    1.081   .     S
C506   N540    1.348   .     A
C506   C574    1.416   .     S
C507   O545    1.303   .     A
C507   C509    1.460   .     S
C507   O547    1.299   .     A
C508   O546    1.303   .     A
C508   C510    1.459   .     S
C508   O548    1.298   .     A
C509   C515    1.396   .     A
C509   C513    1.398   .     A
C510   C514    1.399   .     A
C510   C516    1.393   .     A
C511   C519    1.405   .     A
C511   C513    1.394   .     A
C511   H529    1.083   .     S
C512   H530    1.084   .     S
C512   C514    1.396   .     A
C512   C520    1.406   .     A
C513   H528    1.083   .     S
C514   H527    1.083   .     S
C515   H526    1.076   .     S
C515   C517    1.396   .     A
C516   H525    1.079   .     S
C516   C518    1.394   .     A
C517   C519    1.418   .     A
C517   C521    1.421   .     A
C518   C520    1.417   .     A
C518   C522    1.419   .     A
C519   C1125   1.391   .     S
C520   C1126   1.391   1_554 S
C521   C1152   1.415   .     S
C522   C1151   1.415   1_554 S
N539   Zn549   2.029   .     S
N540   Zn550   2.029   .     S
O541   Zn549   1.996   .     S
O542   Zn550   1.996   .     S
O543   Zn550   1.976   .     S
O544   Zn549   1.976   .     S
O545   Zn549   1.958   .     S
O546   Zn550   1.958   .     S
O547   Zn550   1.896   .     S
O548   Zn549   1.896   .     S
S551   O552    1.501   .     D
S551   O553    1.496   .     D
S551   O624    1.684   .     S
O554   H555    0.991   .     S
S556   O558    1.501   .     D
S556   O557    1.496   .     D
O559   H560    0.991   .     S
O559   S626    1.683   .     S
C561   O611    1.292   .     A
C561   C572    1.409   .     S
C561   O613    1.285   .     A
C562   O612    1.292   .     A
C562   C571    1.410   .     S
C562   O614    1.285   .     A
C563   C565    1.388   .     A
C563   C592    1.418   .     A
C563   H601    1.079   .     S
C564   H602    1.078   .     S
C564   C591    1.419   .     A
C564   C566    1.390   .     A
C565   H593    1.084   .     S
C565   C1219   1.391   1_554 S
C566   H594    1.084   .     S
C566   C1220   1.391   .     S
C567   H603    1.084   .     S
C567   C572    1.397   .     A
C567   C149    1.372   1_565 S
C568   H604    1.084   .     S
C568   C571    1.397   .     A
C569   H605    1.084   .     S
C569   C571    1.393   .     A
C570   H606    1.084   .     S
C570   C572    1.393   .     A
C570   C148    1.372   1_565 S
C573   N610    1.399   .     A
C573   S621    1.776   .     S
C573   C435    1.416   1_655 S
C574   S626    1.776   .     S
C574   N609    1.399   .     A
C575   N609    1.348   .     A
C575   H607    1.081   .     S
C576   H608    1.081   .     S
C576   N610    1.348   .     A
C576   C434    1.416   1_655 S
C577   O615    1.303   .     A
C577   C579    1.460   .     S
C577   O617    1.299   .     A
C578   O616    1.303   .     A
C578   C580    1.459   .     S
C578   O618    1.298   .     A
C579   C585    1.396   .     A
C579   C583    1.398   .     A
C580   C584    1.399   .     A
C580   C586    1.393   .     A
C581   C589    1.405   .     A
C581   C583    1.394   .     A
C581   H599    1.083   .     S
C582   H600    1.084   .     S
C582   C584    1.396   .     A
C582   C590    1.406   .     A
C583   H598    1.083   .     S
C584   H597    1.083   .     S
C585   H596    1.076   .     S
C585   C587    1.396   .     A
C586   H595    1.079   .     S
C586   C588    1.394   .     A
C587   C589    1.418   .     A
C587   C591    1.421   .     A
C588   C590    1.417   .     A
C588   C592    1.419   .     A
C589   C1195   1.391   .     S
C590   C1196   1.391   1_554 S
C591   C1222   1.415   .     S
C592   C1221   1.415   1_554 S
N609   Zn619   2.029   .     S
N610   Zn620   2.029   .     S
O611   Zn619   1.996   .     S
O612   Zn620   1.996   .     S
O613   Zn620   1.976   .     S
O614   Zn619   1.976   .     S
O615   Zn619   1.958   .     S
O616   Zn620   1.958   .     S
O617   Zn620   1.896   .     S
O618   Zn619   1.896   .     S
S621   O622    1.501   .     D
S621   O623    1.496   .     D
S621   O484    1.684   1_655 S
O624   H625    0.991   .     S
S626   O628    1.501   .     D
S626   O627    1.496   .     D
O629   H630    0.991   .     S
O629   S486    1.683   1_655 S
C631   O681    1.292   .     A
C631   C642    1.409   .     S
C631   O683    1.285   .     A
C632   O682    1.292   .     A
C632   C641    1.410   .     S
C632   O684    1.285   .     A
C633   C635    1.388   .     A
C633   C662    1.418   .     A
C633   H671    1.079   .     S
C634   H672    1.078   .     S
C634   C661    1.419   .     A
C634   C636    1.390   .     A
C635   H663    1.084   .     S
C636   H664    1.084   .     S
C636   C30     1.391   1_556 S
C637   H673    1.084   .     S
C637   C642    1.397   .     A
C637   C849    1.372   .     S
C638   H674    1.084   .     S
C638   C641    1.397   .     A
C638   C1060   1.372   1_545 S
C639   H675    1.084   .     S
C639   C641    1.393   .     A
C639   C1057   1.372   1_545 S
C640   H676    1.084   .     S
C640   C642    1.393   .     A
C640   C848    1.372   .     S
C643   N680    1.399   .     A
C643   S691    1.776   .     S
C643   C715    1.416   .     S
C644   S696    1.776   .     S
C644   N679    1.399   .     A
C644   C786    1.416   1_455 S
C645   N679    1.348   .     A
C645   H677    1.081   .     S
C645   C783    1.416   1_455 S
C646   H678    1.081   .     S
C646   N680    1.348   .     A
C646   C714    1.416   .     S
C647   O685    1.303   .     A
C647   C649    1.460   .     S
C647   O687    1.299   .     A
C648   O686    1.303   .     A
C648   C650    1.459   .     S
C648   O688    1.298   .     A
C649   C655    1.396   .     A
C649   C653    1.398   .     A
C650   C654    1.399   .     A
C650   C656    1.393   .     A
C651   C659    1.405   .     A
C651   C653    1.394   .     A
C651   H669    1.083   .     S
C652   H670    1.084   .     S
C652   C654    1.396   .     A
C652   C660    1.406   .     A
C653   H668    1.083   .     S
C654   H667    1.083   .     S
C655   H666    1.076   .     S
C655   C657    1.396   .     A
C656   H665    1.079   .     S
C656   C658    1.394   .     A
C657   C659    1.418   .     A
C657   C661    1.421   .     A
C658   C660    1.417   .     A
C658   C662    1.419   .     A
C659   C5      1.391   1_556 S
C661   C32     1.415   1_556 S
N679   Zn689   2.029   .     S
N680   Zn690   2.029   .     S
O681   Zn689   1.996   .     S
O682   Zn690   1.996   .     S
O683   Zn690   1.976   .     S
O684   Zn689   1.976   .     S
O685   Zn689   1.958   .     S
O686   Zn690   1.958   .     S
O687   Zn690   1.896   .     S
O688   Zn689   1.896   .     S
S691   O692    1.501   .     D
S691   O693    1.496   .     D
S691   O764    1.684   .     S
O694   H695    0.991   .     S
O694   S831    1.684   1_455 S
S696   O698    1.501   .     D
S696   O697    1.496   .     D
S696   O839    1.683   1_455 S
O699   H700    0.991   .     S
O699   S766    1.683   .     S
C701   O751    1.292   .     A
C701   C712    1.409   .     S
C701   O753    1.285   .     A
C702   O752    1.292   .     A
C702   C711    1.410   .     S
C702   O754    1.285   .     A
C703   C705    1.388   .     A
C703   C732    1.418   .     A
C703   H741    1.079   .     S
C704   H742    1.078   .     S
C704   C731    1.419   .     A
C704   C706    1.390   .     A
C705   H733    1.084   .     S
C706   H734    1.084   .     S
C706   C100    1.391   1_556 S
C707   H743    1.084   .     S
C707   C712    1.397   .     A
C707   C919    1.372   .     S
C708   H744    1.084   .     S
C708   C711    1.397   .     A
C708   C1130   1.372   1_545 S
C709   H745    1.084   .     S
C709   C711    1.393   .     A
C709   C1127   1.372   1_545 S
C710   H746    1.084   .     S
C710   C712    1.393   .     A
C710   C918    1.372   .     S
C713   N750    1.399   .     A
C713   S761    1.776   .     S
C713   C785    1.416   .     S
C714   S766    1.776   .     S
C714   N749    1.399   .     A
C715   N749    1.348   .     A
C715   H747    1.081   .     S
C716   H748    1.081   .     S
C716   N750    1.348   .     A
C716   C784    1.416   .     S
C717   O755    1.303   .     A
C717   C719    1.460   .     S
C717   O757    1.299   .     A
C718   O756    1.303   .     A
C718   C720    1.459   .     S
C718   O758    1.298   .     A
C719   C725    1.396   .     A
C719   C723    1.398   .     A
C720   C724    1.399   .     A
C720   C726    1.393   .     A
C721   C729    1.405   .     A
C721   C723    1.394   .     A
C721   H739    1.083   .     S
C722   H740    1.084   .     S
C722   C724    1.396   .     A
C722   C730    1.406   .     A
C723   H738    1.083   .     S
C724   H737    1.083   .     S
C725   H736    1.076   .     S
C725   C727    1.396   .     A
C726   H735    1.079   .     S
C726   C728    1.394   .     A
C727   C729    1.418   .     A
C727   C731    1.421   .     A
C728   C730    1.417   .     A
C728   C732    1.419   .     A
C729   C75     1.391   1_556 S
C731   C102    1.415   1_556 S
N749   Zn759   2.029   .     S
N750   Zn760   2.029   .     S
O751   Zn759   1.996   .     S
O752   Zn760   1.996   .     S
O753   Zn760   1.976   .     S
O754   Zn759   1.976   .     S
O755   Zn759   1.958   .     S
O756   Zn760   1.958   .     S
O757   Zn760   1.896   .     S
O758   Zn759   1.896   .     S
S761   O762    1.501   .     D
S761   O763    1.496   .     D
S761   O834    1.684   .     S
O764   H765    0.991   .     S
S766   O768    1.501   .     D
S766   O767    1.496   .     D
O769   H770    0.991   .     S
O769   S836    1.683   .     S
C771   O821    1.292   .     A
C771   C782    1.409   .     S
C771   O823    1.285   .     A
C772   O822    1.292   .     A
C772   C781    1.410   .     S
C772   O824    1.285   .     A
C773   C775    1.388   .     A
C773   C802    1.418   .     A
C773   H811    1.079   .     S
C774   H812    1.078   .     S
C774   C801    1.419   .     A
C774   C776    1.390   .     A
C775   H803    1.084   .     S
C776   H804    1.084   .     S
C776   C170    1.391   1_556 S
C777   H813    1.084   .     S
C777   C782    1.397   .     A
C777   C989    1.372   .     S
C778   H814    1.084   .     S
C778   C781    1.397   .     A
C778   C1200   1.372   1_545 S
C779   H815    1.084   .     S
C779   C781    1.393   .     A
C779   C1197   1.372   1_545 S
C780   H816    1.084   .     S
C780   C782    1.393   .     A
C780   C988    1.372   .     S
C783   N820    1.399   .     A
C783   S831    1.776   .     S
C783   C645    1.416   1_655 S
C784   S836    1.776   .     S
C784   N819    1.399   .     A
C785   N819    1.348   .     A
C785   H817    1.081   .     S
C786   H818    1.081   .     S
C786   N820    1.348   .     A
C786   C644    1.416   1_655 S
C787   O825    1.303   .     A
C787   C789    1.460   .     S
C787   O827    1.299   .     A
C788   O826    1.303   .     A
C788   C790    1.459   .     S
C788   O828    1.298   .     A
C789   C795    1.396   .     A
C789   C793    1.398   .     A
C790   C794    1.399   .     A
C790   C796    1.393   .     A
C791   C799    1.405   .     A
C791   C793    1.394   .     A
C791   H809    1.083   .     S
C792   H810    1.084   .     S
C792   C794    1.396   .     A
C792   C800    1.406   .     A
C793   H808    1.083   .     S
C794   H807    1.083   .     S
C795   H806    1.076   .     S
C795   C797    1.396   .     A
C796   H805    1.079   .     S
C796   C798    1.394   .     A
C797   C799    1.418   .     A
C797   C801    1.421   .     A
C798   C800    1.417   .     A
C798   C802    1.419   .     A
C799   C145    1.391   1_556 S
C801   C172    1.415   1_556 S
N819   Zn829   2.029   .     S
N820   Zn830   2.029   .     S
O821   Zn829   1.996   .     S
O822   Zn830   1.996   .     S
O823   Zn830   1.976   .     S
O824   Zn829   1.976   .     S
O825   Zn829   1.958   .     S
O826   Zn830   1.958   .     S
O827   Zn830   1.896   .     S
O828   Zn829   1.896   .     S
S831   O832    1.501   .     D
S831   O833    1.496   .     D
S831   O694    1.684   1_655 S
O834   H835    0.991   .     S
S836   O838    1.501   .     D
S836   O837    1.496   .     D
O839   H840    0.991   .     S
O839   S696    1.683   1_655 S
C841   O891    1.292   .     A
C841   C852    1.409   .     S
C841   O893    1.285   .     A
C842   O892    1.292   .     A
C842   C851    1.410   .     S
C842   O894    1.285   .     A
C843   C845    1.388   .     A
C843   C872    1.418   .     A
C843   H881    1.079   .     S
C844   H882    1.078   .     S
C844   C871    1.419   .     A
C844   C846    1.390   .     A
C845   H873    1.084   .     S
C846   H874    1.084   .     S
C846   C240    1.391   1_556 S
C847   H883    1.084   .     S
C847   C852    1.397   .     A
C847   C1059   1.372   .     S
C848   H884    1.084   .     S
C848   C851    1.397   .     A
C849   H885    1.084   .     S
C849   C851    1.393   .     A
C850   H886    1.084   .     S
C850   C852    1.393   .     A
C850   C1058   1.372   .     S
C853   N890    1.399   .     A
C853   S901    1.776   .     S
C853   C925    1.416   .     S
C854   S906    1.776   .     S
C854   N889    1.399   .     A
C854   C996    1.416   1_455 S
C855   N889    1.348   .     A
C855   H887    1.081   .     S
C855   C993    1.416   1_455 S
C856   H888    1.081   .     S
C856   N890    1.348   .     A
C856   C924    1.416   .     S
C857   O895    1.303   .     A
C857   C859    1.460   .     S
C857   O897    1.299   .     A
C858   O896    1.303   .     A
C858   C860    1.459   .     S
C858   O898    1.298   .     A
C859   C865    1.396   .     A
C859   C863    1.398   .     A
C860   C864    1.399   .     A
C860   C866    1.393   .     A
C861   C869    1.405   .     A
C861   C863    1.394   .     A
C861   H879    1.083   .     S
C862   H880    1.084   .     S
C862   C864    1.396   .     A
C862   C870    1.406   .     A
C863   H878    1.083   .     S
C864   H877    1.083   .     S
C865   H876    1.076   .     S
C865   C867    1.396   .     A
C866   H875    1.079   .     S
C866   C868    1.394   .     A
C867   C869    1.418   .     A
C867   C871    1.421   .     A
C868   C870    1.417   .     A
C868   C872    1.419   .     A
C869   C215    1.391   1_556 S
C871   C242    1.415   1_556 S
N889   Zn899   2.029   .     S
N890   Zn900   2.029   .     S
O891   Zn899   1.996   .     S
O892   Zn900   1.996   .     S
O893   Zn900   1.976   .     S
O894   Zn899   1.976   .     S
O895   Zn899   1.958   .     S
O896   Zn900   1.958   .     S
O897   Zn900   1.896   .     S
O898   Zn899   1.896   .     S
S901   O902    1.501   .     D
S901   O903    1.496   .     D
S901   O974    1.684   .     S
O904   H905    0.991   .     S
O904   S1041   1.684   1_455 S
S906   O908    1.501   .     D
S906   O907    1.496   .     D
S906   O1049   1.683   1_455 S
O909   H910    0.991   .     S
O909   S976    1.683   .     S
C911   O961    1.292   .     A
C911   C922    1.409   .     S
C911   O963    1.285   .     A
C912   O962    1.292   .     A
C912   C921    1.410   .     S
C912   O964    1.285   .     A
C913   C915    1.388   .     A
C913   C942    1.418   .     A
C913   H951    1.079   .     S
C914   H952    1.078   .     S
C914   C941    1.419   .     A
C914   C916    1.390   .     A
C915   H943    1.084   .     S
C916   H944    1.084   .     S
C916   C310    1.391   1_556 S
C917   H953    1.084   .     S
C917   C922    1.397   .     A
C917   C1129   1.372   .     S
C918   H954    1.084   .     S
C918   C921    1.397   .     A
C919   H955    1.084   .     S
C919   C921    1.393   .     A
C920   H956    1.084   .     S
C920   C922    1.393   .     A
C920   C1128   1.372   .     S
C923   N960    1.399   .     A
C923   S971    1.776   .     S
C923   C995    1.416   .     S
C924   S976    1.776   .     S
C924   N959    1.399   .     A
C925   N959    1.348   .     A
C925   H957    1.081   .     S
C926   H958    1.081   .     S
C926   N960    1.348   .     A
C926   C994    1.416   .     S
C927   O965    1.303   .     A
C927   C929    1.460   .     S
C927   O967    1.299   .     A
C928   O966    1.303   .     A
C928   C930    1.459   .     S
C928   O968    1.298   .     A
C929   C935    1.396   .     A
C929   C933    1.398   .     A
C930   C934    1.399   .     A
C930   C936    1.393   .     A
C931   C939    1.405   .     A
C931   C933    1.394   .     A
C931   H949    1.083   .     S
C932   H950    1.084   .     S
C932   C934    1.396   .     A
C932   C940    1.406   .     A
C933   H948    1.083   .     S
C934   H947    1.083   .     S
C935   H946    1.076   .     S
C935   C937    1.396   .     A
C936   H945    1.079   .     S
C936   C938    1.394   .     A
C937   C939    1.418   .     A
C937   C941    1.421   .     A
C938   C940    1.417   .     A
C938   C942    1.419   .     A
C939   C285    1.391   1_556 S
C941   C312    1.415   1_556 S
N959   Zn969   2.029   .     S
N960   Zn970   2.029   .     S
O961   Zn969   1.996   .     S
O962   Zn970   1.996   .     S
O963   Zn970   1.976   .     S
O964   Zn969   1.976   .     S
O965   Zn969   1.958   .     S
O966   Zn970   1.958   .     S
O967   Zn970   1.896   .     S
O968   Zn969   1.896   .     S
S971   O972    1.501   .     D
S971   O973    1.496   .     D
S971   O1044   1.684   .     S
O974   H975    0.991   .     S
S976   O978    1.501   .     D
S976   O977    1.496   .     D
O979   H980    0.991   .     S
O979   S1046   1.683   .     S
C981   O1031   1.292   .     A
C981   C992    1.409   .     S
C981   O1033   1.285   .     A
C982   O1032   1.292   .     A
C982   C991    1.410   .     S
C982   O1034   1.285   .     A
C983   C985    1.388   .     A
C983   C1012   1.418   .     A
C983   H1021   1.079   .     S
C984   H1022   1.078   .     S
C984   C1011   1.419   .     A
C984   C986    1.390   .     A
C985   H1013   1.084   .     S
C986   H1014   1.084   .     S
C986   C380    1.391   1_556 S
C987   H1023   1.084   .     S
C987   C992    1.397   .     A
C987   C1199   1.372   .     S
C988   H1024   1.084   .     S
C988   C991    1.397   .     A
C989   H1025   1.084   .     S
C989   C991    1.393   .     A
C990   H1026   1.084   .     S
C990   C992    1.393   .     A
C990   C1198   1.372   .     S
C993   N1030   1.399   .     A
C993   S1041   1.776   .     S
C993   C855    1.416   1_655 S
C994   S1046   1.776   .     S
C994   N1029   1.399   .     A
C995   N1029   1.348   .     A
C995   H1027   1.081   .     S
C996   H1028   1.081   .     S
C996   N1030   1.348   .     A
C996   C854    1.416   1_655 S
C997   O1035   1.303   .     A
C997   C999    1.460   .     S
C997   O1037   1.299   .     A
C998   O1036   1.303   .     A
C998   C1000   1.459   .     S
C998   O1038   1.298   .     A
C999   C1005   1.396   .     A
C999   C1003   1.398   .     A
C1000  C1004   1.399   .     A
C1000  C1006   1.393   .     A
C1001  C1009   1.405   .     A
C1001  C1003   1.394   .     A
C1001  H1019   1.083   .     S
C1002  H1020   1.084   .     S
C1002  C1004   1.396   .     A
C1002  C1010   1.406   .     A
C1003  H1018   1.083   .     S
C1004  H1017   1.083   .     S
C1005  H1016   1.076   .     S
C1005  C1007   1.396   .     A
C1006  H1015   1.079   .     S
C1006  C1008   1.394   .     A
C1007  C1009   1.418   .     A
C1007  C1011   1.421   .     A
C1008  C1010   1.417   .     A
C1008  C1012   1.419   .     A
C1009  C355    1.391   1_556 S
C1011  C382    1.415   1_556 S
N1029  Zn1039  2.029   .     S
N1030  Zn1040  2.029   .     S
O1031  Zn1039  1.996   .     S
O1032  Zn1040  1.996   .     S
O1033  Zn1040  1.976   .     S
O1034  Zn1039  1.976   .     S
O1035  Zn1039  1.958   .     S
O1036  Zn1040  1.958   .     S
O1037  Zn1040  1.896   .     S
O1038  Zn1039  1.896   .     S
S1041  O1042   1.501   .     D
S1041  O1043   1.496   .     D
S1041  O904    1.684   1_655 S
O1044  H1045   0.991   .     S
S1046  O1048   1.501   .     D
S1046  O1047   1.496   .     D
O1049  H1050   0.991   .     S
O1049  S906    1.683   1_655 S
C1051  O1101   1.292   .     A
C1051  C1062   1.409   .     S
C1051  O1103   1.285   .     A
C1052  O1102   1.292   .     A
C1052  C1061   1.410   .     S
C1052  O1104   1.285   .     A
C1053  C1055   1.388   .     A
C1053  C1082   1.418   .     A
C1053  H1091   1.079   .     S
C1054  H1092   1.078   .     S
C1054  C1081   1.419   .     A
C1054  C1056   1.390   .     A
C1055  H1083   1.084   .     S
C1056  H1084   1.084   .     S
C1056  C450    1.391   1_556 S
C1057  H1093   1.084   .     S
C1057  C1062   1.397   .     A
C1057  C639    1.372   1_565 S
C1058  H1094   1.084   .     S
C1058  C1061   1.397   .     A
C1059  H1095   1.084   .     S
C1059  C1061   1.393   .     A
C1060  H1096   1.084   .     S
C1060  C1062   1.393   .     A
C1060  C638    1.372   1_565 S
C1063  N1100   1.399   .     A
C1063  S1111   1.776   .     S
C1063  C1135   1.416   .     S
C1064  S1116   1.776   .     S
C1064  N1099   1.399   .     A
C1064  C1206   1.416   1_455 S
C1065  N1099   1.348   .     A
C1065  H1097   1.081   .     S
C1065  C1203   1.416   1_455 S
C1066  H1098   1.081   .     S
C1066  N1100   1.348   .     A
C1066  C1134   1.416   .     S
C1067  O1105   1.303   .     A
C1067  C1069   1.460   .     S
C1067  O1107   1.299   .     A
C1068  O1106   1.303   .     A
C1068  C1070   1.459   .     S
C1068  O1108   1.298   .     A
C1069  C1075   1.396   .     A
C1069  C1073   1.398   .     A
C1070  C1074   1.399   .     A
C1070  C1076   1.393   .     A
C1071  C1079   1.405   .     A
C1071  C1073   1.394   .     A
C1071  H1089   1.083   .     S
C1072  H1090   1.084   .     S
C1072  C1074   1.396   .     A
C1072  C1080   1.406   .     A
C1073  H1088   1.083   .     S
C1074  H1087   1.083   .     S
C1075  H1086   1.076   .     S
C1075  C1077   1.396   .     A
C1076  H1085   1.079   .     S
C1076  C1078   1.394   .     A
C1077  C1079   1.418   .     A
C1077  C1081   1.421   .     A
C1078  C1080   1.417   .     A
C1078  C1082   1.419   .     A
C1079  C425    1.391   1_556 S
C1081  C452    1.415   1_556 S
N1099  Zn1109  2.029   .     S
N1100  Zn1110  2.029   .     S
O1101  Zn1109  1.996   .     S
O1102  Zn1110  1.996   .     S
O1103  Zn1110  1.976   .     S
O1104  Zn1109  1.976   .     S
O1105  Zn1109  1.958   .     S
O1106  Zn1110  1.958   .     S
O1107  Zn1110  1.896   .     S
O1108  Zn1109  1.896   .     S
S1111  O1112   1.501   .     D
S1111  O1113   1.496   .     D
S1111  O1184   1.684   .     S
O1114  H1115   0.991   .     S
O1114  S1251   1.684   1_455 S
S1116  O1118   1.501   .     D
S1116  O1117   1.496   .     D
S1116  O1259   1.683   1_455 S
O1119  H1120   0.991   .     S
O1119  S1186   1.683   .     S
C1121  O1171   1.292   .     A
C1121  C1132   1.409   .     S
C1121  O1173   1.285   .     A
C1122  O1172   1.292   .     A
C1122  C1131   1.410   .     S
C1122  O1174   1.285   .     A
C1123  C1125   1.388   .     A
C1123  C1152   1.418   .     A
C1123  H1161   1.079   .     S
C1124  H1162   1.078   .     S
C1124  C1151   1.419   .     A
C1124  C1126   1.390   .     A
C1125  H1153   1.084   .     S
C1126  H1154   1.084   .     S
C1126  C520    1.391   1_556 S
C1127  H1163   1.084   .     S
C1127  C1132   1.397   .     A
C1127  C709    1.372   1_565 S
C1128  H1164   1.084   .     S
C1128  C1131   1.397   .     A
C1129  H1165   1.084   .     S
C1129  C1131   1.393   .     A
C1130  H1166   1.084   .     S
C1130  C1132   1.393   .     A
C1130  C708    1.372   1_565 S
C1133  N1170   1.399   .     A
C1133  S1181   1.776   .     S
C1133  C1205   1.416   .     S
C1134  S1186   1.776   .     S
C1134  N1169   1.399   .     A
C1135  N1169   1.348   .     A
C1135  H1167   1.081   .     S
C1136  H1168   1.081   .     S
C1136  N1170   1.348   .     A
C1136  C1204   1.416   .     S
C1137  O1175   1.303   .     A
C1137  C1139   1.460   .     S
C1137  O1177   1.299   .     A
C1138  O1176   1.303   .     A
C1138  C1140   1.459   .     S
C1138  O1178   1.298   .     A
C1139  C1145   1.396   .     A
C1139  C1143   1.398   .     A
C1140  C1144   1.399   .     A
C1140  C1146   1.393   .     A
C1141  C1149   1.405   .     A
C1141  C1143   1.394   .     A
C1141  H1159   1.083   .     S
C1142  H1160   1.084   .     S
C1142  C1144   1.396   .     A
C1142  C1150   1.406   .     A
C1143  H1158   1.083   .     S
C1144  H1157   1.083   .     S
C1145  H1156   1.076   .     S
C1145  C1147   1.396   .     A
C1146  H1155   1.079   .     S
C1146  C1148   1.394   .     A
C1147  C1149   1.418   .     A
C1147  C1151   1.421   .     A
C1148  C1150   1.417   .     A
C1148  C1152   1.419   .     A
C1149  C495    1.391   1_556 S
C1151  C522    1.415   1_556 S
N1169  Zn1179  2.029   .     S
N1170  Zn1180  2.029   .     S
O1171  Zn1179  1.996   .     S
O1172  Zn1180  1.996   .     S
O1173  Zn1180  1.976   .     S
O1174  Zn1179  1.976   .     S
O1175  Zn1179  1.958   .     S
O1176  Zn1180  1.958   .     S
O1177  Zn1180  1.896   .     S
O1178  Zn1179  1.896   .     S
S1181  O1182   1.501   .     D
S1181  O1183   1.496   .     D
S1181  O1254   1.684   .     S
O1184  H1185   0.991   .     S
S1186  O1188   1.501   .     D
S1186  O1187   1.496   .     D
O1189  H1190   0.991   .     S
O1189  S1256   1.683   .     S
C1191  O1241   1.292   .     A
C1191  C1202   1.409   .     S
C1191  O1243   1.285   .     A
C1192  O1242   1.292   .     A
C1192  C1201   1.410   .     S
C1192  O1244   1.285   .     A
C1193  C1195   1.388   .     A
C1193  C1222   1.418   .     A
C1193  H1231   1.079   .     S
C1194  H1232   1.078   .     S
C1194  C1221   1.419   .     A
C1194  C1196   1.390   .     A
C1195  H1223   1.084   .     S
C1196  H1224   1.084   .     S
C1196  C590    1.391   1_556 S
C1197  H1233   1.084   .     S
C1197  C1202   1.397   .     A
C1197  C779    1.372   1_565 S
C1198  H1234   1.084   .     S
C1198  C1201   1.397   .     A
C1199  H1235   1.084   .     S
C1199  C1201   1.393   .     A
C1200  H1236   1.084   .     S
C1200  C1202   1.393   .     A
C1200  C778    1.372   1_565 S
C1203  N1240   1.399   .     A
C1203  S1251   1.776   .     S
C1203  C1065   1.416   1_655 S
C1204  S1256   1.776   .     S
C1204  N1239   1.399   .     A
C1205  N1239   1.348   .     A
C1205  H1237   1.081   .     S
C1206  H1238   1.081   .     S
C1206  N1240   1.348   .     A
C1206  C1064   1.416   1_655 S
C1207  O1245   1.303   .     A
C1207  C1209   1.460   .     S
C1207  O1247   1.299   .     A
C1208  O1246   1.303   .     A
C1208  C1210   1.459   .     S
C1208  O1248   1.298   .     A
C1209  C1215   1.396   .     A
C1209  C1213   1.398   .     A
C1210  C1214   1.399   .     A
C1210  C1216   1.393   .     A
C1211  C1219   1.405   .     A
C1211  C1213   1.394   .     A
C1211  H1229   1.083   .     S
C1212  H1230   1.084   .     S
C1212  C1214   1.396   .     A
C1212  C1220   1.406   .     A
C1213  H1228   1.083   .     S
C1214  H1227   1.083   .     S
C1215  H1226   1.076   .     S
C1215  C1217   1.396   .     A
C1216  H1225   1.079   .     S
C1216  C1218   1.394   .     A
C1217  C1219   1.418   .     A
C1217  C1221   1.421   .     A
C1218  C1220   1.417   .     A
C1218  C1222   1.419   .     A
C1219  C565    1.391   1_556 S
C1221  C592    1.415   1_556 S
N1239  Zn1249  2.029   .     S
N1240  Zn1250  2.029   .     S
O1241  Zn1249  1.996   .     S
O1242  Zn1250  1.996   .     S
O1243  Zn1250  1.976   .     S
O1244  Zn1249  1.976   .     S
O1245  Zn1249  1.958   .     S
O1246  Zn1250  1.958   .     S
O1247  Zn1250  1.896   .     S
O1248  Zn1249  1.896   .     S
S1251  O1252   1.501   .     D
S1251  O1253   1.496   .     D
S1251  O1114   1.684   1_655 S
O1254  H1255   0.991   .     S
S1256  O1258   1.501   .     D
S1256  O1257   1.496   .     D
O1259  H1260   0.991   .     S
O1259  S1116   1.683   1_655 S
