data_str_m3_o2_o5_pcu_sym.110
_audit_creation_date              2020-01-03
_audit_creation_method            'Materials Studio'
_symmetry_space_group_name_H-M    'P1'
_symmetry_Int_Tables_number       1
_symmetry_cell_setting            triclinic
loop_
_symmetry_equiv_pos_as_xyz
  x,y,z
_cell_length_a                    29.6446
_cell_length_b                    28.6255
_cell_length_c                    26.6079
_cell_angle_alpha                 90.0003
_cell_angle_beta                  92.2711
_cell_angle_gamma                 90.0002
loop_
_atom_site_label
_atom_site_type_symbol
_atom_site_fract_x
_atom_site_fract_y
_atom_site_fract_z
_atom_site_U_iso_or_equiv
_atom_site_adp_type
_atom_site_occupancy
C1     C     0.16478   0.25000   0.17488   0.00000  Uiso   1.00
C2     C     0.22243   0.44722   0.13267   0.00000  Uiso   1.00
C3     C     0.24981   0.25000   0.07296   0.00000  Uiso   1.00
C4     C     0.25019   0.25000   0.26037   0.00000  Uiso   1.00
C5     C     0.25000   0.02660   0.16667   0.00000  Uiso   1.00
C6     C     0.25000   0.47330   0.16667   0.00000  Uiso   1.00
C7     C     0.24994   0.25001   0.02183   0.00000  Uiso   1.00
C8     C     0.25006   0.25001   0.31150   0.00000  Uiso   1.00
C9     C     0.04707   0.29177   0.18624   0.00000  Uiso   1.00
C10    C     0.45276   0.20779   0.14728   0.00000  Uiso   1.00
C11    C     0.45293   0.29177   0.14709   0.00000  Uiso   1.00
C12    C     0.33522   0.25000   0.15845   0.00000  Uiso   1.00
C13    C     0.04724   0.20779   0.18605   0.00000  Uiso   1.00
C14    C     0.09352   0.29212   0.19531   0.00000  Uiso   1.00
C15    C     0.40632   0.20767   0.13798   0.00000  Uiso   1.00
C16    C     0.40648   0.29212   0.13802   0.00000  Uiso   1.00
C17    C     0.09368   0.20767   0.19534   0.00000  Uiso   1.00
C18    C     0.11753   0.24995   0.18981   0.00000  Uiso   1.00
C19    C     0.38246   0.24995   0.14351   0.00000  Uiso   1.00
C20    C     0.02413   0.24975   0.17532   0.00000  Uiso   1.00
C21    C     0.47586   0.24975   0.15801   0.00000  Uiso   1.00
C22    C     0.22597   0.10170   0.13012   0.00000  Uiso   1.00
C23    C     0.27668   0.39820   0.20091   0.00000  Uiso   1.00
C24    C     0.27403   0.10170   0.20321   0.00000  Uiso   1.00
C25    C     0.22332   0.39820   0.13243   0.00000  Uiso   1.00
C26    C     0.22643   0.05268   0.12922   0.00000  Uiso   1.00
C27    C     0.27757   0.44722   0.20066   0.00000  Uiso   1.00
C28    C     0.27356   0.05268   0.20411   0.00000  Uiso   1.00
H29    H     0.02949   0.32453   0.18937   0.00000  Uiso   1.00
H30    H     0.35708   0.09094   0.13948   0.00000  Uiso   1.00
H31    H     0.32064   0.36142   0.06937   0.00000  Uiso   1.00
H32    H     0.14284   0.09090   0.19385   0.00000  Uiso   1.00
H33    H     0.47020   0.17492   0.14440   0.00000  Uiso   1.00
H34    H     0.47051   0.32453   0.14396   0.00000  Uiso   1.00
H35    H     0.02980   0.17492   0.18892   0.00000  Uiso   1.00
H36    H     0.20788   0.03601   0.09861   0.00000  Uiso   1.00
H37    H     0.30041   0.46386   0.22754   0.00000  Uiso   1.00
H38    H     0.29212   0.03601   0.23472   0.00000  Uiso   1.00
H39    H     0.19958   0.46386   0.10580   0.00000  Uiso   1.00
H40    H     0.17932   0.36143   0.26403   0.00000  Uiso   1.00
I41    I     0.18454   0.13333   0.07276   0.00000  Uiso   1.00
I42    I     0.31887   0.36601   0.25720   0.00000  Uiso   1.00
I43    I     0.31547   0.13333   0.26057   0.00000  Uiso   1.00
I44    I     0.18113   0.36601   0.07613   0.00000  Uiso   1.00
N45    N     0.25000   0.12623   0.16667   0.00000  Uiso   1.00
N46    N     0.25000   0.37376   0.16667   0.00000  Uiso   1.00
O47    O     0.18453   0.28974   0.16667   0.00000  Uiso   1.00
O48    O     0.08462   0.36666   0.25494   0.00000  Uiso   1.00
O49    O     0.16483   0.33085   0.25671   0.00000  Uiso   1.00
O50    O     0.33943   0.16780   0.08076   0.00000  Uiso   1.00
O51    O     0.41490   0.13384   0.07742   0.00000  Uiso   1.00
O52    O     0.37007   0.11859   0.15713   0.00000  Uiso   1.00
O53    O     0.37094   0.37679   0.15286   0.00000  Uiso   1.00
O54    O     0.41537   0.36666   0.07840   0.00000  Uiso   1.00
O55    O     0.33517   0.33085   0.07662   0.00000  Uiso   1.00
O56    O     0.16057   0.16780   0.25257   0.00000  Uiso   1.00
O57    O     0.08510   0.13383   0.25590   0.00000  Uiso   1.00
O58    O     0.31547   0.21026   0.16666   0.00000  Uiso   1.00
O59    O     0.12994   0.11860   0.17620   0.00000  Uiso   1.00
O60    O     0.31547   0.28974   0.16666   0.00000  Uiso   1.00
O61    O     0.18453   0.21026   0.16667   0.00000  Uiso   1.00
O62    O     0.25000   0.28973   0.09511   0.00000  Uiso   1.00
O63    O     0.25000   0.21027   0.23822   0.00000  Uiso   1.00
O64    O     0.25000   0.28973   0.23822   0.00000  Uiso   1.00
O65    O     0.25000   0.21027   0.09511   0.00000  Uiso   1.00
O66    O     0.12906   0.37679   0.18047   0.00000  Uiso   1.00
S67    S     0.11794   0.34355   0.22178   0.00000  Uiso   1.00
S68    S     0.38177   0.15639   0.11124   0.00000  Uiso   1.00
S69    S     0.38206   0.34355   0.11155   0.00000  Uiso   1.00
S70    S     0.11823   0.15638   0.22209   0.00000  Uiso   1.00
Zn71   Zn    0.25000   0.30307   0.16667   0.00000  Uiso   1.00
Zn72   Zn    0.25000   0.19693   0.16667   0.00000  Uiso   1.00
C73    C     0.66478   0.25000   0.17488   0.00000  Uiso   1.00
C74    C     0.72243   0.44722   0.13267   0.00000  Uiso   1.00
C75    C     0.74981   0.25000   0.07296   0.00000  Uiso   1.00
C76    C     0.75019   0.25000   0.26037   0.00000  Uiso   1.00
C77    C     0.75000   0.02660   0.16667   0.00000  Uiso   1.00
C78    C     0.75000   0.47330   0.16667   0.00000  Uiso   1.00
C79    C     0.74994   0.25001   0.02183   0.00000  Uiso   1.00
C80    C     0.75006   0.25001   0.31150   0.00000  Uiso   1.00
C81    C     0.54707   0.29177   0.18624   0.00000  Uiso   1.00
C82    C     0.95276   0.20779   0.14728   0.00000  Uiso   1.00
C83    C     0.95293   0.29177   0.14709   0.00000  Uiso   1.00
C84    C     0.83522   0.25000   0.15845   0.00000  Uiso   1.00
C85    C     0.54724   0.20779   0.18605   0.00000  Uiso   1.00
C86    C     0.59352   0.29212   0.19531   0.00000  Uiso   1.00
C87    C     0.90632   0.20767   0.13798   0.00000  Uiso   1.00
C88    C     0.90648   0.29212   0.13802   0.00000  Uiso   1.00
C89    C     0.59368   0.20767   0.19534   0.00000  Uiso   1.00
C90    C     0.61753   0.24995   0.18981   0.00000  Uiso   1.00
C91    C     0.88246   0.24995   0.14351   0.00000  Uiso   1.00
C92    C     0.52413   0.24975   0.17532   0.00000  Uiso   1.00
C93    C     0.97586   0.24975   0.15801   0.00000  Uiso   1.00
C94    C     0.72597   0.10170   0.13012   0.00000  Uiso   1.00
C95    C     0.77668   0.39820   0.20091   0.00000  Uiso   1.00
C96    C     0.77403   0.10170   0.20321   0.00000  Uiso   1.00
C97    C     0.72332   0.39820   0.13243   0.00000  Uiso   1.00
C98    C     0.72643   0.05268   0.12922   0.00000  Uiso   1.00
C99    C     0.77757   0.44722   0.20066   0.00000  Uiso   1.00
C100   C     0.77356   0.05268   0.20411   0.00000  Uiso   1.00
H101   H     0.52949   0.32453   0.18937   0.00000  Uiso   1.00
H102   H     0.85708   0.09094   0.13948   0.00000  Uiso   1.00
H103   H     0.82064   0.36142   0.06937   0.00000  Uiso   1.00
H104   H     0.64284   0.09090   0.19385   0.00000  Uiso   1.00
H105   H     0.97020   0.17492   0.14440   0.00000  Uiso   1.00
H106   H     0.97051   0.32453   0.14396   0.00000  Uiso   1.00
H107   H     0.52980   0.17492   0.18892   0.00000  Uiso   1.00
H108   H     0.70788   0.03601   0.09861   0.00000  Uiso   1.00
H109   H     0.80041   0.46386   0.22754   0.00000  Uiso   1.00
H110   H     0.79212   0.03601   0.23472   0.00000  Uiso   1.00
H111   H     0.69958   0.46386   0.10580   0.00000  Uiso   1.00
H112   H     0.67932   0.36143   0.26403   0.00000  Uiso   1.00
I113   I     0.68454   0.13333   0.07276   0.00000  Uiso   1.00
I114   I     0.81887   0.36601   0.25720   0.00000  Uiso   1.00
I115   I     0.81547   0.13333   0.26057   0.00000  Uiso   1.00
I116   I     0.68113   0.36601   0.07613   0.00000  Uiso   1.00
N117   N     0.75000   0.12623   0.16667   0.00000  Uiso   1.00
N118   N     0.75000   0.37376   0.16667   0.00000  Uiso   1.00
O119   O     0.68453   0.28974   0.16667   0.00000  Uiso   1.00
O120   O     0.58462   0.36666   0.25494   0.00000  Uiso   1.00
O121   O     0.66483   0.33085   0.25671   0.00000  Uiso   1.00
O122   O     0.83943   0.16780   0.08076   0.00000  Uiso   1.00
O123   O     0.91490   0.13384   0.07742   0.00000  Uiso   1.00
O124   O     0.87007   0.11859   0.15713   0.00000  Uiso   1.00
O125   O     0.87094   0.37679   0.15286   0.00000  Uiso   1.00
O126   O     0.91537   0.36666   0.07840   0.00000  Uiso   1.00
O127   O     0.83517   0.33085   0.07662   0.00000  Uiso   1.00
O128   O     0.66057   0.16780   0.25257   0.00000  Uiso   1.00
O129   O     0.58510   0.13383   0.25590   0.00000  Uiso   1.00
O130   O     0.81547   0.21026   0.16666   0.00000  Uiso   1.00
O131   O     0.62994   0.11860   0.17620   0.00000  Uiso   1.00
O132   O     0.81547   0.28974   0.16666   0.00000  Uiso   1.00
O133   O     0.68453   0.21026   0.16667   0.00000  Uiso   1.00
O134   O     0.75000   0.28973   0.09511   0.00000  Uiso   1.00
O135   O     0.75000   0.21027   0.23822   0.00000  Uiso   1.00
O136   O     0.75000   0.28973   0.23822   0.00000  Uiso   1.00
O137   O     0.75000   0.21027   0.09511   0.00000  Uiso   1.00
O138   O     0.62906   0.37679   0.18047   0.00000  Uiso   1.00
S139   S     0.61794   0.34355   0.22178   0.00000  Uiso   1.00
S140   S     0.88177   0.15639   0.11124   0.00000  Uiso   1.00
S141   S     0.88206   0.34355   0.11155   0.00000  Uiso   1.00
S142   S     0.61823   0.15638   0.22209   0.00000  Uiso   1.00
Zn143  Zn    0.75000   0.30307   0.16667   0.00000  Uiso   1.00
Zn144  Zn    0.75000   0.19693   0.16667   0.00000  Uiso   1.00
C145   C     0.16478   0.75000   0.17488   0.00000  Uiso   1.00
C146   C     0.22243   0.94722   0.13267   0.00000  Uiso   1.00
C147   C     0.24981   0.75000   0.07296   0.00000  Uiso   1.00
C148   C     0.25019   0.75000   0.26037   0.00000  Uiso   1.00
C149   C     0.25000   0.52660   0.16667   0.00000  Uiso   1.00
C150   C     0.25000   0.97330   0.16667   0.00000  Uiso   1.00
C151   C     0.24994   0.75001   0.02183   0.00000  Uiso   1.00
C152   C     0.25006   0.75001   0.31150   0.00000  Uiso   1.00
C153   C     0.04707   0.79177   0.18624   0.00000  Uiso   1.00
C154   C     0.45276   0.70779   0.14728   0.00000  Uiso   1.00
C155   C     0.45293   0.79177   0.14709   0.00000  Uiso   1.00
C156   C     0.33522   0.75000   0.15845   0.00000  Uiso   1.00
C157   C     0.04724   0.70779   0.18605   0.00000  Uiso   1.00
C158   C     0.09352   0.79212   0.19531   0.00000  Uiso   1.00
C159   C     0.40632   0.70767   0.13798   0.00000  Uiso   1.00
C160   C     0.40648   0.79212   0.13802   0.00000  Uiso   1.00
C161   C     0.09368   0.70767   0.19534   0.00000  Uiso   1.00
C162   C     0.11753   0.74995   0.18981   0.00000  Uiso   1.00
C163   C     0.38246   0.74995   0.14351   0.00000  Uiso   1.00
C164   C     0.02413   0.74975   0.17532   0.00000  Uiso   1.00
C165   C     0.47586   0.74975   0.15801   0.00000  Uiso   1.00
C166   C     0.22597   0.60170   0.13012   0.00000  Uiso   1.00
C167   C     0.27668   0.89820   0.20091   0.00000  Uiso   1.00
C168   C     0.27403   0.60170   0.20321   0.00000  Uiso   1.00
C169   C     0.22332   0.89820   0.13243   0.00000  Uiso   1.00
C170   C     0.22643   0.55268   0.12922   0.00000  Uiso   1.00
C171   C     0.27757   0.94722   0.20066   0.00000  Uiso   1.00
C172   C     0.27356   0.55268   0.20411   0.00000  Uiso   1.00
H173   H     0.02949   0.82453   0.18937   0.00000  Uiso   1.00
H174   H     0.35708   0.59094   0.13948   0.00000  Uiso   1.00
H175   H     0.32064   0.86142   0.06937   0.00000  Uiso   1.00
H176   H     0.14284   0.59090   0.19385   0.00000  Uiso   1.00
H177   H     0.47020   0.67492   0.14440   0.00000  Uiso   1.00
H178   H     0.47051   0.82453   0.14396   0.00000  Uiso   1.00
H179   H     0.02980   0.67492   0.18892   0.00000  Uiso   1.00
H180   H     0.20788   0.53601   0.09861   0.00000  Uiso   1.00
H181   H     0.30041   0.96386   0.22754   0.00000  Uiso   1.00
H182   H     0.29212   0.53601   0.23472   0.00000  Uiso   1.00
H183   H     0.19958   0.96386   0.10580   0.00000  Uiso   1.00
H184   H     0.17932   0.86143   0.26403   0.00000  Uiso   1.00
I185   I     0.18454   0.63333   0.07276   0.00000  Uiso   1.00
I186   I     0.31887   0.86601   0.25720   0.00000  Uiso   1.00
I187   I     0.31547   0.63333   0.26057   0.00000  Uiso   1.00
I188   I     0.18113   0.86601   0.07613   0.00000  Uiso   1.00
N189   N     0.25000   0.62623   0.16667   0.00000  Uiso   1.00
N190   N     0.25000   0.87376   0.16667   0.00000  Uiso   1.00
O191   O     0.18453   0.78974   0.16667   0.00000  Uiso   1.00
O192   O     0.08462   0.86666   0.25494   0.00000  Uiso   1.00
O193   O     0.16483   0.83085   0.25671   0.00000  Uiso   1.00
O194   O     0.33943   0.66780   0.08076   0.00000  Uiso   1.00
O195   O     0.41490   0.63384   0.07742   0.00000  Uiso   1.00
O196   O     0.37007   0.61859   0.15713   0.00000  Uiso   1.00
O197   O     0.37094   0.87679   0.15286   0.00000  Uiso   1.00
O198   O     0.41537   0.86666   0.07840   0.00000  Uiso   1.00
O199   O     0.33517   0.83085   0.07662   0.00000  Uiso   1.00
O200   O     0.16057   0.66780   0.25257   0.00000  Uiso   1.00
O201   O     0.08510   0.63383   0.25590   0.00000  Uiso   1.00
O202   O     0.31547   0.71026   0.16666   0.00000  Uiso   1.00
O203   O     0.12994   0.61860   0.17620   0.00000  Uiso   1.00
O204   O     0.31547   0.78974   0.16666   0.00000  Uiso   1.00
O205   O     0.18453   0.71026   0.16667   0.00000  Uiso   1.00
O206   O     0.25000   0.78973   0.09511   0.00000  Uiso   1.00
O207   O     0.25000   0.71027   0.23822   0.00000  Uiso   1.00
O208   O     0.25000   0.78973   0.23822   0.00000  Uiso   1.00
O209   O     0.25000   0.71027   0.09511   0.00000  Uiso   1.00
O210   O     0.12906   0.87679   0.18047   0.00000  Uiso   1.00
S211   S     0.11794   0.84355   0.22178   0.00000  Uiso   1.00
S212   S     0.38177   0.65639   0.11124   0.00000  Uiso   1.00
S213   S     0.38206   0.84355   0.11155   0.00000  Uiso   1.00
S214   S     0.11823   0.65638   0.22209   0.00000  Uiso   1.00
Zn215  Zn    0.25000   0.80307   0.16667   0.00000  Uiso   1.00
Zn216  Zn    0.25000   0.69693   0.16667   0.00000  Uiso   1.00
C217   C     0.66478   0.75000   0.17488   0.00000  Uiso   1.00
C218   C     0.72243   0.94722   0.13267   0.00000  Uiso   1.00
C219   C     0.74981   0.75000   0.07296   0.00000  Uiso   1.00
C220   C     0.75019   0.75000   0.26037   0.00000  Uiso   1.00
C221   C     0.75000   0.52660   0.16667   0.00000  Uiso   1.00
C222   C     0.75000   0.97330   0.16667   0.00000  Uiso   1.00
C223   C     0.74994   0.75001   0.02183   0.00000  Uiso   1.00
C224   C     0.75006   0.75001   0.31150   0.00000  Uiso   1.00
C225   C     0.54707   0.79177   0.18624   0.00000  Uiso   1.00
C226   C     0.95276   0.70779   0.14728   0.00000  Uiso   1.00
C227   C     0.95293   0.79177   0.14709   0.00000  Uiso   1.00
C228   C     0.83522   0.75000   0.15845   0.00000  Uiso   1.00
C229   C     0.54724   0.70779   0.18605   0.00000  Uiso   1.00
C230   C     0.59352   0.79212   0.19531   0.00000  Uiso   1.00
C231   C     0.90632   0.70767   0.13798   0.00000  Uiso   1.00
C232   C     0.90648   0.79212   0.13802   0.00000  Uiso   1.00
C233   C     0.59368   0.70767   0.19534   0.00000  Uiso   1.00
C234   C     0.61753   0.74995   0.18981   0.00000  Uiso   1.00
C235   C     0.88246   0.74995   0.14351   0.00000  Uiso   1.00
C236   C     0.52413   0.74975   0.17532   0.00000  Uiso   1.00
C237   C     0.97586   0.74975   0.15801   0.00000  Uiso   1.00
C238   C     0.72597   0.60170   0.13012   0.00000  Uiso   1.00
C239   C     0.77668   0.89820   0.20091   0.00000  Uiso   1.00
C240   C     0.77403   0.60170   0.20321   0.00000  Uiso   1.00
C241   C     0.72332   0.89820   0.13243   0.00000  Uiso   1.00
C242   C     0.72643   0.55268   0.12922   0.00000  Uiso   1.00
C243   C     0.77757   0.94722   0.20066   0.00000  Uiso   1.00
C244   C     0.77356   0.55268   0.20411   0.00000  Uiso   1.00
H245   H     0.52949   0.82453   0.18937   0.00000  Uiso   1.00
H246   H     0.85708   0.59094   0.13948   0.00000  Uiso   1.00
H247   H     0.82064   0.86142   0.06937   0.00000  Uiso   1.00
H248   H     0.64284   0.59090   0.19385   0.00000  Uiso   1.00
H249   H     0.97020   0.67492   0.14440   0.00000  Uiso   1.00
H250   H     0.97051   0.82453   0.14396   0.00000  Uiso   1.00
H251   H     0.52980   0.67492   0.18892   0.00000  Uiso   1.00
H252   H     0.70788   0.53601   0.09861   0.00000  Uiso   1.00
H253   H     0.80041   0.96386   0.22754   0.00000  Uiso   1.00
H254   H     0.79212   0.53601   0.23472   0.00000  Uiso   1.00
H255   H     0.69958   0.96386   0.10580   0.00000  Uiso   1.00
H256   H     0.67932   0.86143   0.26403   0.00000  Uiso   1.00
I257   I     0.68454   0.63333   0.07276   0.00000  Uiso   1.00
I258   I     0.81887   0.86601   0.25720   0.00000  Uiso   1.00
I259   I     0.81547   0.63333   0.26057   0.00000  Uiso   1.00
I260   I     0.68113   0.86601   0.07613   0.00000  Uiso   1.00
N261   N     0.75000   0.62623   0.16667   0.00000  Uiso   1.00
N262   N     0.75000   0.87376   0.16667   0.00000  Uiso   1.00
O263   O     0.68453   0.78974   0.16667   0.00000  Uiso   1.00
O264   O     0.58462   0.86666   0.25494   0.00000  Uiso   1.00
O265   O     0.66483   0.83085   0.25671   0.00000  Uiso   1.00
O266   O     0.83943   0.66780   0.08076   0.00000  Uiso   1.00
O267   O     0.91490   0.63384   0.07742   0.00000  Uiso   1.00
O268   O     0.87007   0.61859   0.15713   0.00000  Uiso   1.00
O269   O     0.87094   0.87679   0.15286   0.00000  Uiso   1.00
O270   O     0.91537   0.86666   0.07840   0.00000  Uiso   1.00
O271   O     0.83517   0.83085   0.07662   0.00000  Uiso   1.00
O272   O     0.66057   0.66780   0.25257   0.00000  Uiso   1.00
O273   O     0.58510   0.63383   0.25590   0.00000  Uiso   1.00
O274   O     0.81547   0.71026   0.16666   0.00000  Uiso   1.00
O275   O     0.62994   0.61860   0.17620   0.00000  Uiso   1.00
O276   O     0.81547   0.78974   0.16666   0.00000  Uiso   1.00
O277   O     0.68453   0.71026   0.16667   0.00000  Uiso   1.00
O278   O     0.75000   0.78973   0.09511   0.00000  Uiso   1.00
O279   O     0.75000   0.71027   0.23822   0.00000  Uiso   1.00
O280   O     0.75000   0.78973   0.23822   0.00000  Uiso   1.00
O281   O     0.75000   0.71027   0.09511   0.00000  Uiso   1.00
O282   O     0.62906   0.87679   0.18047   0.00000  Uiso   1.00
S283   S     0.61794   0.84355   0.22178   0.00000  Uiso   1.00
S284   S     0.88177   0.65639   0.11124   0.00000  Uiso   1.00
S285   S     0.88206   0.84355   0.11155   0.00000  Uiso   1.00
S286   S     0.61823   0.65638   0.22209   0.00000  Uiso   1.00
Zn287  Zn    0.75000   0.80307   0.16667   0.00000  Uiso   1.00
Zn288  Zn    0.75000   0.69693   0.16667   0.00000  Uiso   1.00
C289   C     0.16478   0.25000   0.50821   0.00000  Uiso   1.00
C290   C     0.22243   0.44722   0.46601   0.00000  Uiso   1.00
C291   C     0.24981   0.25000   0.40630   0.00000  Uiso   1.00
C292   C     0.25019   0.25000   0.59370   0.00000  Uiso   1.00
C293   C     0.25000   0.02660   0.50000   0.00000  Uiso   1.00
C294   C     0.25000   0.47330   0.50000   0.00000  Uiso   1.00
C295   C     0.24994   0.25001   0.35517   0.00000  Uiso   1.00
C296   C     0.25006   0.25001   0.64483   0.00000  Uiso   1.00
C297   C     0.04707   0.29177   0.51958   0.00000  Uiso   1.00
C298   C     0.45276   0.20779   0.48061   0.00000  Uiso   1.00
C299   C     0.45293   0.29177   0.48042   0.00000  Uiso   1.00
C300   C     0.33522   0.25000   0.49178   0.00000  Uiso   1.00
C301   C     0.04724   0.20779   0.51938   0.00000  Uiso   1.00
C302   C     0.09352   0.29212   0.52865   0.00000  Uiso   1.00
C303   C     0.40632   0.20767   0.47132   0.00000  Uiso   1.00
C304   C     0.40648   0.29212   0.47135   0.00000  Uiso   1.00
C305   C     0.09368   0.20767   0.52868   0.00000  Uiso   1.00
C306   C     0.11753   0.24995   0.52315   0.00000  Uiso   1.00
C307   C     0.38246   0.24995   0.47685   0.00000  Uiso   1.00
C308   C     0.02413   0.24975   0.50865   0.00000  Uiso   1.00
C309   C     0.47586   0.24975   0.49134   0.00000  Uiso   1.00
C310   C     0.22597   0.10170   0.46346   0.00000  Uiso   1.00
C311   C     0.27668   0.39820   0.53424   0.00000  Uiso   1.00
C312   C     0.27403   0.10170   0.53654   0.00000  Uiso   1.00
C313   C     0.22332   0.39820   0.46576   0.00000  Uiso   1.00
C314   C     0.22643   0.05268   0.46256   0.00000  Uiso   1.00
C315   C     0.27757   0.44722   0.53399   0.00000  Uiso   1.00
C316   C     0.27356   0.05268   0.53745   0.00000  Uiso   1.00
H317   H     0.02949   0.32453   0.52271   0.00000  Uiso   1.00
H318   H     0.35708   0.09094   0.47281   0.00000  Uiso   1.00
H319   H     0.32064   0.36142   0.40270   0.00000  Uiso   1.00
H320   H     0.14284   0.09090   0.52718   0.00000  Uiso   1.00
H321   H     0.47020   0.17492   0.47774   0.00000  Uiso   1.00
H322   H     0.47051   0.32453   0.47729   0.00000  Uiso   1.00
H323   H     0.02980   0.17492   0.52225   0.00000  Uiso   1.00
H324   H     0.20788   0.03601   0.43195   0.00000  Uiso   1.00
H325   H     0.30041   0.46386   0.56087   0.00000  Uiso   1.00
H326   H     0.29212   0.03601   0.56805   0.00000  Uiso   1.00
H327   H     0.19958   0.46386   0.43913   0.00000  Uiso   1.00
H328   H     0.17932   0.36143   0.59737   0.00000  Uiso   1.00
I329   I     0.18454   0.13333   0.40609   0.00000  Uiso   1.00
I330   I     0.31887   0.36601   0.59053   0.00000  Uiso   1.00
I331   I     0.31547   0.13333   0.59391   0.00000  Uiso   1.00
I332   I     0.18113   0.36601   0.40947   0.00000  Uiso   1.00
N333   N     0.25000   0.12623   0.50000   0.00000  Uiso   1.00
N334   N     0.25000   0.37376   0.50000   0.00000  Uiso   1.00
O335   O     0.18453   0.28974   0.50000   0.00000  Uiso   1.00
O336   O     0.08462   0.36666   0.58827   0.00000  Uiso   1.00
O337   O     0.16483   0.33085   0.59005   0.00000  Uiso   1.00
O338   O     0.33943   0.16780   0.41410   0.00000  Uiso   1.00
O339   O     0.41490   0.13384   0.41075   0.00000  Uiso   1.00
O340   O     0.37007   0.11859   0.49046   0.00000  Uiso   1.00
O341   O     0.37094   0.37679   0.48619   0.00000  Uiso   1.00
O342   O     0.41537   0.36666   0.41173   0.00000  Uiso   1.00
O343   O     0.33517   0.33085   0.40995   0.00000  Uiso   1.00
O344   O     0.16057   0.16780   0.58591   0.00000  Uiso   1.00
O345   O     0.08510   0.13383   0.58923   0.00000  Uiso   1.00
O346   O     0.31547   0.21026   0.50000   0.00000  Uiso   1.00
O347   O     0.12994   0.11860   0.50953   0.00000  Uiso   1.00
O348   O     0.31547   0.28974   0.50000   0.00000  Uiso   1.00
O349   O     0.18453   0.21026   0.50000   0.00000  Uiso   1.00
O350   O     0.25000   0.28973   0.42845   0.00000  Uiso   1.00
O351   O     0.25000   0.21027   0.57155   0.00000  Uiso   1.00
O352   O     0.25000   0.28973   0.57155   0.00000  Uiso   1.00
O353   O     0.25000   0.21027   0.42845   0.00000  Uiso   1.00
O354   O     0.12906   0.37679   0.51381   0.00000  Uiso   1.00
S355   S     0.11794   0.34355   0.55511   0.00000  Uiso   1.00
S356   S     0.38177   0.15639   0.44457   0.00000  Uiso   1.00
S357   S     0.38206   0.34355   0.44489   0.00000  Uiso   1.00
S358   S     0.11823   0.15638   0.55542   0.00000  Uiso   1.00
Zn359  Zn    0.25000   0.30307   0.50000   0.00000  Uiso   1.00
Zn360  Zn    0.25000   0.19693   0.50000   0.00000  Uiso   1.00
C361   C     0.66478   0.25000   0.50821   0.00000  Uiso   1.00
C362   C     0.72243   0.44722   0.46601   0.00000  Uiso   1.00
C363   C     0.74981   0.25000   0.40630   0.00000  Uiso   1.00
C364   C     0.75019   0.25000   0.59370   0.00000  Uiso   1.00
C365   C     0.75000   0.02660   0.50000   0.00000  Uiso   1.00
C366   C     0.75000   0.47330   0.50000   0.00000  Uiso   1.00
C367   C     0.74994   0.25001   0.35517   0.00000  Uiso   1.00
C368   C     0.75006   0.25001   0.64483   0.00000  Uiso   1.00
C369   C     0.54707   0.29177   0.51958   0.00000  Uiso   1.00
C370   C     0.95276   0.20779   0.48061   0.00000  Uiso   1.00
C371   C     0.95293   0.29177   0.48042   0.00000  Uiso   1.00
C372   C     0.83522   0.25000   0.49178   0.00000  Uiso   1.00
C373   C     0.54724   0.20779   0.51938   0.00000  Uiso   1.00
C374   C     0.59352   0.29212   0.52865   0.00000  Uiso   1.00
C375   C     0.90632   0.20767   0.47132   0.00000  Uiso   1.00
C376   C     0.90648   0.29212   0.47135   0.00000  Uiso   1.00
C377   C     0.59368   0.20767   0.52868   0.00000  Uiso   1.00
C378   C     0.61753   0.24995   0.52315   0.00000  Uiso   1.00
C379   C     0.88246   0.24995   0.47685   0.00000  Uiso   1.00
C380   C     0.52413   0.24975   0.50865   0.00000  Uiso   1.00
C381   C     0.97586   0.24975   0.49134   0.00000  Uiso   1.00
C382   C     0.72597   0.10170   0.46346   0.00000  Uiso   1.00
C383   C     0.77668   0.39820   0.53424   0.00000  Uiso   1.00
C384   C     0.77403   0.10170   0.53654   0.00000  Uiso   1.00
C385   C     0.72332   0.39820   0.46576   0.00000  Uiso   1.00
C386   C     0.72643   0.05268   0.46256   0.00000  Uiso   1.00
C387   C     0.77757   0.44722   0.53399   0.00000  Uiso   1.00
C388   C     0.77356   0.05268   0.53745   0.00000  Uiso   1.00
H389   H     0.52949   0.32453   0.52271   0.00000  Uiso   1.00
H390   H     0.85708   0.09094   0.47281   0.00000  Uiso   1.00
H391   H     0.82064   0.36142   0.40270   0.00000  Uiso   1.00
H392   H     0.64284   0.09090   0.52718   0.00000  Uiso   1.00
H393   H     0.97020   0.17492   0.47774   0.00000  Uiso   1.00
H394   H     0.97051   0.32453   0.47729   0.00000  Uiso   1.00
H395   H     0.52980   0.17492   0.52225   0.00000  Uiso   1.00
H396   H     0.70788   0.03601   0.43195   0.00000  Uiso   1.00
H397   H     0.80041   0.46386   0.56087   0.00000  Uiso   1.00
H398   H     0.79212   0.03601   0.56805   0.00000  Uiso   1.00
H399   H     0.69958   0.46386   0.43913   0.00000  Uiso   1.00
H400   H     0.67932   0.36143   0.59737   0.00000  Uiso   1.00
I401   I     0.68454   0.13333   0.40609   0.00000  Uiso   1.00
I402   I     0.81887   0.36601   0.59053   0.00000  Uiso   1.00
I403   I     0.81547   0.13333   0.59391   0.00000  Uiso   1.00
I404   I     0.68113   0.36601   0.40947   0.00000  Uiso   1.00
N405   N     0.75000   0.12623   0.50000   0.00000  Uiso   1.00
N406   N     0.75000   0.37376   0.50000   0.00000  Uiso   1.00
O407   O     0.68453   0.28974   0.50000   0.00000  Uiso   1.00
O408   O     0.58462   0.36666   0.58827   0.00000  Uiso   1.00
O409   O     0.66483   0.33085   0.59005   0.00000  Uiso   1.00
O410   O     0.83943   0.16780   0.41410   0.00000  Uiso   1.00
O411   O     0.91490   0.13384   0.41075   0.00000  Uiso   1.00
O412   O     0.87007   0.11859   0.49046   0.00000  Uiso   1.00
O413   O     0.87094   0.37679   0.48619   0.00000  Uiso   1.00
O414   O     0.91537   0.36666   0.41173   0.00000  Uiso   1.00
O415   O     0.83517   0.33085   0.40995   0.00000  Uiso   1.00
O416   O     0.66057   0.16780   0.58591   0.00000  Uiso   1.00
O417   O     0.58510   0.13383   0.58923   0.00000  Uiso   1.00
O418   O     0.81547   0.21026   0.50000   0.00000  Uiso   1.00
O419   O     0.62994   0.11860   0.50953   0.00000  Uiso   1.00
O420   O     0.81547   0.28974   0.50000   0.00000  Uiso   1.00
O421   O     0.68453   0.21026   0.50000   0.00000  Uiso   1.00
O422   O     0.75000   0.28973   0.42845   0.00000  Uiso   1.00
O423   O     0.75000   0.21027   0.57155   0.00000  Uiso   1.00
O424   O     0.75000   0.28973   0.57155   0.00000  Uiso   1.00
O425   O     0.75000   0.21027   0.42845   0.00000  Uiso   1.00
O426   O     0.62906   0.37679   0.51381   0.00000  Uiso   1.00
S427   S     0.61794   0.34355   0.55511   0.00000  Uiso   1.00
S428   S     0.88177   0.15639   0.44457   0.00000  Uiso   1.00
S429   S     0.88206   0.34355   0.44489   0.00000  Uiso   1.00
S430   S     0.61823   0.15638   0.55542   0.00000  Uiso   1.00
Zn431  Zn    0.75000   0.30307   0.50000   0.00000  Uiso   1.00
Zn432  Zn    0.75000   0.19693   0.50000   0.00000  Uiso   1.00
C433   C     0.16478   0.75000   0.50821   0.00000  Uiso   1.00
C434   C     0.22243   0.94722   0.46601   0.00000  Uiso   1.00
C435   C     0.24981   0.75000   0.40630   0.00000  Uiso   1.00
C436   C     0.25019   0.75000   0.59370   0.00000  Uiso   1.00
C437   C     0.25000   0.52660   0.50000   0.00000  Uiso   1.00
C438   C     0.25000   0.97330   0.50000   0.00000  Uiso   1.00
C439   C     0.24994   0.75001   0.35517   0.00000  Uiso   1.00
C440   C     0.25006   0.75001   0.64483   0.00000  Uiso   1.00
C441   C     0.04707   0.79177   0.51958   0.00000  Uiso   1.00
C442   C     0.45276   0.70779   0.48061   0.00000  Uiso   1.00
C443   C     0.45293   0.79177   0.48042   0.00000  Uiso   1.00
C444   C     0.33522   0.75000   0.49178   0.00000  Uiso   1.00
C445   C     0.04724   0.70779   0.51938   0.00000  Uiso   1.00
C446   C     0.09352   0.79212   0.52865   0.00000  Uiso   1.00
C447   C     0.40632   0.70767   0.47132   0.00000  Uiso   1.00
C448   C     0.40648   0.79212   0.47135   0.00000  Uiso   1.00
C449   C     0.09368   0.70767   0.52868   0.00000  Uiso   1.00
C450   C     0.11753   0.74995   0.52315   0.00000  Uiso   1.00
C451   C     0.38246   0.74995   0.47685   0.00000  Uiso   1.00
C452   C     0.02413   0.74975   0.50865   0.00000  Uiso   1.00
C453   C     0.47586   0.74975   0.49134   0.00000  Uiso   1.00
C454   C     0.22597   0.60170   0.46346   0.00000  Uiso   1.00
C455   C     0.27668   0.89820   0.53424   0.00000  Uiso   1.00
C456   C     0.27403   0.60170   0.53654   0.00000  Uiso   1.00
C457   C     0.22332   0.89820   0.46576   0.00000  Uiso   1.00
C458   C     0.22643   0.55268   0.46256   0.00000  Uiso   1.00
C459   C     0.27757   0.94722   0.53399   0.00000  Uiso   1.00
C460   C     0.27356   0.55268   0.53745   0.00000  Uiso   1.00
H461   H     0.02949   0.82453   0.52271   0.00000  Uiso   1.00
H462   H     0.35708   0.59094   0.47281   0.00000  Uiso   1.00
H463   H     0.32064   0.86142   0.40270   0.00000  Uiso   1.00
H464   H     0.14284   0.59090   0.52718   0.00000  Uiso   1.00
H465   H     0.47020   0.67492   0.47774   0.00000  Uiso   1.00
H466   H     0.47051   0.82453   0.47729   0.00000  Uiso   1.00
H467   H     0.02980   0.67492   0.52225   0.00000  Uiso   1.00
H468   H     0.20788   0.53601   0.43195   0.00000  Uiso   1.00
H469   H     0.30041   0.96386   0.56087   0.00000  Uiso   1.00
H470   H     0.29212   0.53601   0.56805   0.00000  Uiso   1.00
H471   H     0.19958   0.96386   0.43913   0.00000  Uiso   1.00
H472   H     0.17932   0.86143   0.59737   0.00000  Uiso   1.00
I473   I     0.18454   0.63333   0.40609   0.00000  Uiso   1.00
I474   I     0.31887   0.86601   0.59053   0.00000  Uiso   1.00
I475   I     0.31547   0.63333   0.59391   0.00000  Uiso   1.00
I476   I     0.18113   0.86601   0.40947   0.00000  Uiso   1.00
N477   N     0.25000   0.62623   0.50000   0.00000  Uiso   1.00
N478   N     0.25000   0.87376   0.50000   0.00000  Uiso   1.00
O479   O     0.18453   0.78974   0.50000   0.00000  Uiso   1.00
O480   O     0.08462   0.86666   0.58827   0.00000  Uiso   1.00
O481   O     0.16483   0.83085   0.59005   0.00000  Uiso   1.00
O482   O     0.33943   0.66780   0.41410   0.00000  Uiso   1.00
O483   O     0.41490   0.63384   0.41075   0.00000  Uiso   1.00
O484   O     0.37007   0.61859   0.49046   0.00000  Uiso   1.00
O485   O     0.37094   0.87679   0.48619   0.00000  Uiso   1.00
O486   O     0.41537   0.86666   0.41173   0.00000  Uiso   1.00
O487   O     0.33517   0.83085   0.40995   0.00000  Uiso   1.00
O488   O     0.16057   0.66780   0.58591   0.00000  Uiso   1.00
O489   O     0.08510   0.63383   0.58923   0.00000  Uiso   1.00
O490   O     0.31547   0.71026   0.50000   0.00000  Uiso   1.00
O491   O     0.12994   0.61860   0.50953   0.00000  Uiso   1.00
O492   O     0.31547   0.78974   0.50000   0.00000  Uiso   1.00
O493   O     0.18453   0.71026   0.50000   0.00000  Uiso   1.00
O494   O     0.25000   0.78973   0.42845   0.00000  Uiso   1.00
O495   O     0.25000   0.71027   0.57155   0.00000  Uiso   1.00
O496   O     0.25000   0.78973   0.57155   0.00000  Uiso   1.00
O497   O     0.25000   0.71027   0.42845   0.00000  Uiso   1.00
O498   O     0.12906   0.87679   0.51381   0.00000  Uiso   1.00
S499   S     0.11794   0.84355   0.55511   0.00000  Uiso   1.00
S500   S     0.38177   0.65639   0.44457   0.00000  Uiso   1.00
S501   S     0.38206   0.84355   0.44489   0.00000  Uiso   1.00
S502   S     0.11823   0.65638   0.55542   0.00000  Uiso   1.00
Zn503  Zn    0.25000   0.80307   0.50000   0.00000  Uiso   1.00
Zn504  Zn    0.25000   0.69693   0.50000   0.00000  Uiso   1.00
C505   C     0.66478   0.75000   0.50821   0.00000  Uiso   1.00
C506   C     0.72243   0.94722   0.46601   0.00000  Uiso   1.00
C507   C     0.74981   0.75000   0.40630   0.00000  Uiso   1.00
C508   C     0.75019   0.75000   0.59370   0.00000  Uiso   1.00
C509   C     0.75000   0.52660   0.50000   0.00000  Uiso   1.00
C510   C     0.75000   0.97330   0.50000   0.00000  Uiso   1.00
C511   C     0.74994   0.75001   0.35517   0.00000  Uiso   1.00
C512   C     0.75006   0.75001   0.64483   0.00000  Uiso   1.00
C513   C     0.54707   0.79177   0.51958   0.00000  Uiso   1.00
C514   C     0.95276   0.70779   0.48061   0.00000  Uiso   1.00
C515   C     0.95293   0.79177   0.48042   0.00000  Uiso   1.00
C516   C     0.83522   0.75000   0.49178   0.00000  Uiso   1.00
C517   C     0.54724   0.70779   0.51938   0.00000  Uiso   1.00
C518   C     0.59352   0.79212   0.52865   0.00000  Uiso   1.00
C519   C     0.90632   0.70767   0.47132   0.00000  Uiso   1.00
C520   C     0.90648   0.79212   0.47135   0.00000  Uiso   1.00
C521   C     0.59368   0.70767   0.52868   0.00000  Uiso   1.00
C522   C     0.61753   0.74995   0.52315   0.00000  Uiso   1.00
C523   C     0.88246   0.74995   0.47685   0.00000  Uiso   1.00
C524   C     0.52413   0.74975   0.50865   0.00000  Uiso   1.00
C525   C     0.97586   0.74975   0.49134   0.00000  Uiso   1.00
C526   C     0.72597   0.60170   0.46346   0.00000  Uiso   1.00
C527   C     0.77668   0.89820   0.53424   0.00000  Uiso   1.00
C528   C     0.77403   0.60170   0.53654   0.00000  Uiso   1.00
C529   C     0.72332   0.89820   0.46576   0.00000  Uiso   1.00
C530   C     0.72643   0.55268   0.46256   0.00000  Uiso   1.00
C531   C     0.77757   0.94722   0.53399   0.00000  Uiso   1.00
C532   C     0.77356   0.55268   0.53745   0.00000  Uiso   1.00
H533   H     0.52949   0.82453   0.52271   0.00000  Uiso   1.00
H534   H     0.85708   0.59094   0.47281   0.00000  Uiso   1.00
H535   H     0.82064   0.86142   0.40270   0.00000  Uiso   1.00
H536   H     0.64284   0.59090   0.52718   0.00000  Uiso   1.00
H537   H     0.97020   0.67492   0.47774   0.00000  Uiso   1.00
H538   H     0.97051   0.82453   0.47729   0.00000  Uiso   1.00
H539   H     0.52980   0.67492   0.52225   0.00000  Uiso   1.00
H540   H     0.70788   0.53601   0.43195   0.00000  Uiso   1.00
H541   H     0.80041   0.96386   0.56087   0.00000  Uiso   1.00
H542   H     0.79212   0.53601   0.56805   0.00000  Uiso   1.00
H543   H     0.69958   0.96386   0.43913   0.00000  Uiso   1.00
H544   H     0.67932   0.86143   0.59737   0.00000  Uiso   1.00
I545   I     0.68454   0.63333   0.40609   0.00000  Uiso   1.00
I546   I     0.81887   0.86601   0.59053   0.00000  Uiso   1.00
I547   I     0.81547   0.63333   0.59391   0.00000  Uiso   1.00
I548   I     0.68113   0.86601   0.40947   0.00000  Uiso   1.00
N549   N     0.75000   0.62623   0.50000   0.00000  Uiso   1.00
N550   N     0.75000   0.87376   0.50000   0.00000  Uiso   1.00
O551   O     0.68453   0.78974   0.50000   0.00000  Uiso   1.00
O552   O     0.58462   0.86666   0.58827   0.00000  Uiso   1.00
O553   O     0.66483   0.83085   0.59005   0.00000  Uiso   1.00
O554   O     0.83943   0.66780   0.41410   0.00000  Uiso   1.00
O555   O     0.91490   0.63384   0.41075   0.00000  Uiso   1.00
O556   O     0.87007   0.61859   0.49046   0.00000  Uiso   1.00
O557   O     0.87094   0.87679   0.48619   0.00000  Uiso   1.00
O558   O     0.91537   0.86666   0.41173   0.00000  Uiso   1.00
O559   O     0.83517   0.83085   0.40995   0.00000  Uiso   1.00
O560   O     0.66057   0.66780   0.58591   0.00000  Uiso   1.00
O561   O     0.58510   0.63383   0.58923   0.00000  Uiso   1.00
O562   O     0.81547   0.71026   0.50000   0.00000  Uiso   1.00
O563   O     0.62994   0.61860   0.50953   0.00000  Uiso   1.00
O564   O     0.81547   0.78974   0.50000   0.00000  Uiso   1.00
O565   O     0.68453   0.71026   0.50000   0.00000  Uiso   1.00
O566   O     0.75000   0.78973   0.42845   0.00000  Uiso   1.00
O567   O     0.75000   0.71027   0.57155   0.00000  Uiso   1.00
O568   O     0.75000   0.78973   0.57155   0.00000  Uiso   1.00
O569   O     0.75000   0.71027   0.42845   0.00000  Uiso   1.00
O570   O     0.62906   0.87679   0.51381   0.00000  Uiso   1.00
S571   S     0.61794   0.84355   0.55511   0.00000  Uiso   1.00
S572   S     0.88177   0.65639   0.44457   0.00000  Uiso   1.00
S573   S     0.88206   0.84355   0.44489   0.00000  Uiso   1.00
S574   S     0.61823   0.65638   0.55542   0.00000  Uiso   1.00
Zn575  Zn    0.75000   0.80307   0.50000   0.00000  Uiso   1.00
Zn576  Zn    0.75000   0.69693   0.50000   0.00000  Uiso   1.00
C577   C     0.16478   0.25000   0.84155   0.00000  Uiso   1.00
C578   C     0.22243   0.44722   0.79934   0.00000  Uiso   1.00
C579   C     0.24981   0.25000   0.73963   0.00000  Uiso   1.00
C580   C     0.25019   0.25000   0.92704   0.00000  Uiso   1.00
C581   C     0.25000   0.02660   0.83333   0.00000  Uiso   1.00
C582   C     0.25000   0.47330   0.83333   0.00000  Uiso   1.00
C583   C     0.24994   0.25001   0.68850   0.00000  Uiso   1.00
C584   C     0.25006   0.25001   0.97817   0.00000  Uiso   1.00
C585   C     0.04707   0.29177   0.85291   0.00000  Uiso   1.00
C586   C     0.45276   0.20779   0.81394   0.00000  Uiso   1.00
C587   C     0.45293   0.29177   0.81375   0.00000  Uiso   1.00
C588   C     0.33522   0.25000   0.82512   0.00000  Uiso   1.00
C589   C     0.04724   0.20779   0.85271   0.00000  Uiso   1.00
C590   C     0.09352   0.29212   0.86198   0.00000  Uiso   1.00
C591   C     0.40632   0.20767   0.80465   0.00000  Uiso   1.00
C592   C     0.40648   0.29212   0.80468   0.00000  Uiso   1.00
C593   C     0.09368   0.20767   0.86201   0.00000  Uiso   1.00
C594   C     0.11753   0.24995   0.85648   0.00000  Uiso   1.00
C595   C     0.38246   0.24995   0.81018   0.00000  Uiso   1.00
C596   C     0.02413   0.24975   0.84199   0.00000  Uiso   1.00
C597   C     0.47586   0.24975   0.82467   0.00000  Uiso   1.00
C598   C     0.22597   0.10170   0.79679   0.00000  Uiso   1.00
C599   C     0.27668   0.39820   0.86757   0.00000  Uiso   1.00
C600   C     0.27403   0.10170   0.86988   0.00000  Uiso   1.00
C601   C     0.22332   0.39820   0.79909   0.00000  Uiso   1.00
C602   C     0.22643   0.05268   0.79589   0.00000  Uiso   1.00
C603   C     0.27757   0.44722   0.86733   0.00000  Uiso   1.00
C604   C     0.27356   0.05268   0.87078   0.00000  Uiso   1.00
H605   H     0.02949   0.32453   0.85604   0.00000  Uiso   1.00
H606   H     0.35708   0.09094   0.80614   0.00000  Uiso   1.00
H607   H     0.32064   0.36142   0.73604   0.00000  Uiso   1.00
H608   H     0.14284   0.09090   0.86051   0.00000  Uiso   1.00
H609   H     0.47020   0.17492   0.81107   0.00000  Uiso   1.00
H610   H     0.47051   0.32453   0.81063   0.00000  Uiso   1.00
H611   H     0.02980   0.17492   0.85559   0.00000  Uiso   1.00
H612   H     0.20788   0.03601   0.76528   0.00000  Uiso   1.00
H613   H     0.30041   0.46386   0.89420   0.00000  Uiso   1.00
H614   H     0.29212   0.03601   0.90139   0.00000  Uiso   1.00
H615   H     0.19958   0.46386   0.77246   0.00000  Uiso   1.00
H616   H     0.17932   0.36143   0.93070   0.00000  Uiso   1.00
I617   I     0.18454   0.13333   0.73942   0.00000  Uiso   1.00
I618   I     0.31887   0.36601   0.92387   0.00000  Uiso   1.00
I619   I     0.31547   0.13333   0.92724   0.00000  Uiso   1.00
I620   I     0.18113   0.36601   0.74280   0.00000  Uiso   1.00
N621   N     0.25000   0.12623   0.83333   0.00000  Uiso   1.00
N622   N     0.25000   0.37376   0.83333   0.00000  Uiso   1.00
O623   O     0.18453   0.28974   0.83334   0.00000  Uiso   1.00
O624   O     0.08462   0.36666   0.92160   0.00000  Uiso   1.00
O625   O     0.16483   0.33085   0.92338   0.00000  Uiso   1.00
O626   O     0.33943   0.16780   0.74743   0.00000  Uiso   1.00
O627   O     0.41490   0.13384   0.74409   0.00000  Uiso   1.00
O628   O     0.37007   0.11859   0.82379   0.00000  Uiso   1.00
O629   O     0.37094   0.37679   0.81953   0.00000  Uiso   1.00
O630   O     0.41537   0.36666   0.74506   0.00000  Uiso   1.00
O631   O     0.33517   0.33085   0.74329   0.00000  Uiso   1.00
O632   O     0.16057   0.16780   0.91924   0.00000  Uiso   1.00
O633   O     0.08510   0.13383   0.92256   0.00000  Uiso   1.00
O634   O     0.31547   0.21026   0.83333   0.00000  Uiso   1.00
O635   O     0.12994   0.11860   0.84286   0.00000  Uiso   1.00
O636   O     0.31547   0.28974   0.83333   0.00000  Uiso   1.00
O637   O     0.18453   0.21026   0.83334   0.00000  Uiso   1.00
O638   O     0.25000   0.28973   0.76178   0.00000  Uiso   1.00
O639   O     0.25000   0.21027   0.90489   0.00000  Uiso   1.00
O640   O     0.25000   0.28973   0.90489   0.00000  Uiso   1.00
O641   O     0.25000   0.21027   0.76178   0.00000  Uiso   1.00
O642   O     0.12906   0.37679   0.84714   0.00000  Uiso   1.00
S643   S     0.11794   0.34355   0.88845   0.00000  Uiso   1.00
S644   S     0.38177   0.15639   0.77790   0.00000  Uiso   1.00
S645   S     0.38206   0.34355   0.77822   0.00000  Uiso   1.00
S646   S     0.11823   0.15638   0.88876   0.00000  Uiso   1.00
Zn647  Zn    0.25000   0.30307   0.83333   0.00000  Uiso   1.00
Zn648  Zn    0.25000   0.19693   0.83333   0.00000  Uiso   1.00
C649   C     0.66478   0.25000   0.84155   0.00000  Uiso   1.00
C650   C     0.72243   0.44722   0.79934   0.00000  Uiso   1.00
C651   C     0.74981   0.25000   0.73963   0.00000  Uiso   1.00
C652   C     0.75019   0.25000   0.92704   0.00000  Uiso   1.00
C653   C     0.75000   0.02660   0.83333   0.00000  Uiso   1.00
C654   C     0.75000   0.47330   0.83333   0.00000  Uiso   1.00
C655   C     0.74994   0.25001   0.68850   0.00000  Uiso   1.00
C656   C     0.75006   0.25001   0.97817   0.00000  Uiso   1.00
C657   C     0.54707   0.29177   0.85291   0.00000  Uiso   1.00
C658   C     0.95276   0.20779   0.81394   0.00000  Uiso   1.00
C659   C     0.95293   0.29177   0.81375   0.00000  Uiso   1.00
C660   C     0.83522   0.25000   0.82512   0.00000  Uiso   1.00
C661   C     0.54724   0.20779   0.85271   0.00000  Uiso   1.00
C662   C     0.59352   0.29212   0.86198   0.00000  Uiso   1.00
C663   C     0.90632   0.20767   0.80465   0.00000  Uiso   1.00
C664   C     0.90648   0.29212   0.80468   0.00000  Uiso   1.00
C665   C     0.59368   0.20767   0.86201   0.00000  Uiso   1.00
C666   C     0.61753   0.24995   0.85648   0.00000  Uiso   1.00
C667   C     0.88246   0.24995   0.81018   0.00000  Uiso   1.00
C668   C     0.52413   0.24975   0.84199   0.00000  Uiso   1.00
C669   C     0.97586   0.24975   0.82467   0.00000  Uiso   1.00
C670   C     0.72597   0.10170   0.79679   0.00000  Uiso   1.00
C671   C     0.77668   0.39820   0.86757   0.00000  Uiso   1.00
C672   C     0.77403   0.10170   0.86988   0.00000  Uiso   1.00
C673   C     0.72332   0.39820   0.79909   0.00000  Uiso   1.00
C674   C     0.72643   0.05268   0.79589   0.00000  Uiso   1.00
C675   C     0.77757   0.44722   0.86733   0.00000  Uiso   1.00
C676   C     0.77356   0.05268   0.87078   0.00000  Uiso   1.00
H677   H     0.52949   0.32453   0.85604   0.00000  Uiso   1.00
H678   H     0.85708   0.09094   0.80614   0.00000  Uiso   1.00
H679   H     0.82064   0.36142   0.73604   0.00000  Uiso   1.00
H680   H     0.64284   0.09090   0.86051   0.00000  Uiso   1.00
H681   H     0.97020   0.17492   0.81107   0.00000  Uiso   1.00
H682   H     0.97051   0.32453   0.81063   0.00000  Uiso   1.00
H683   H     0.52980   0.17492   0.85559   0.00000  Uiso   1.00
H684   H     0.70788   0.03601   0.76528   0.00000  Uiso   1.00
H685   H     0.80041   0.46386   0.89420   0.00000  Uiso   1.00
H686   H     0.79212   0.03601   0.90139   0.00000  Uiso   1.00
H687   H     0.69958   0.46386   0.77246   0.00000  Uiso   1.00
H688   H     0.67932   0.36143   0.93070   0.00000  Uiso   1.00
I689   I     0.68454   0.13333   0.73942   0.00000  Uiso   1.00
I690   I     0.81887   0.36601   0.92387   0.00000  Uiso   1.00
I691   I     0.81547   0.13333   0.92724   0.00000  Uiso   1.00
I692   I     0.68113   0.36601   0.74280   0.00000  Uiso   1.00
N693   N     0.75000   0.12623   0.83333   0.00000  Uiso   1.00
N694   N     0.75000   0.37376   0.83333   0.00000  Uiso   1.00
O695   O     0.68453   0.28974   0.83334   0.00000  Uiso   1.00
O696   O     0.58462   0.36666   0.92160   0.00000  Uiso   1.00
O697   O     0.66483   0.33085   0.92338   0.00000  Uiso   1.00
O698   O     0.83943   0.16780   0.74743   0.00000  Uiso   1.00
O699   O     0.91490   0.13384   0.74409   0.00000  Uiso   1.00
O700   O     0.87007   0.11859   0.82379   0.00000  Uiso   1.00
O701   O     0.87094   0.37679   0.81953   0.00000  Uiso   1.00
O702   O     0.91537   0.36666   0.74506   0.00000  Uiso   1.00
O703   O     0.83517   0.33085   0.74329   0.00000  Uiso   1.00
O704   O     0.66057   0.16780   0.91924   0.00000  Uiso   1.00
O705   O     0.58510   0.13383   0.92256   0.00000  Uiso   1.00
O706   O     0.81547   0.21026   0.83333   0.00000  Uiso   1.00
O707   O     0.62994   0.11860   0.84286   0.00000  Uiso   1.00
O708   O     0.81547   0.28974   0.83333   0.00000  Uiso   1.00
O709   O     0.68453   0.21026   0.83334   0.00000  Uiso   1.00
O710   O     0.75000   0.28973   0.76178   0.00000  Uiso   1.00
O711   O     0.75000   0.21027   0.90489   0.00000  Uiso   1.00
O712   O     0.75000   0.28973   0.90489   0.00000  Uiso   1.00
O713   O     0.75000   0.21027   0.76178   0.00000  Uiso   1.00
O714   O     0.62906   0.37679   0.84714   0.00000  Uiso   1.00
S715   S     0.61794   0.34355   0.88845   0.00000  Uiso   1.00
S716   S     0.88177   0.15639   0.77790   0.00000  Uiso   1.00
S717   S     0.88206   0.34355   0.77822   0.00000  Uiso   1.00
S718   S     0.61823   0.15638   0.88876   0.00000  Uiso   1.00
Zn719  Zn    0.75000   0.30307   0.83333   0.00000  Uiso   1.00
Zn720  Zn    0.75000   0.19693   0.83333   0.00000  Uiso   1.00
C721   C     0.16478   0.75000   0.84155   0.00000  Uiso   1.00
C722   C     0.22243   0.94722   0.79934   0.00000  Uiso   1.00
C723   C     0.24981   0.75000   0.73963   0.00000  Uiso   1.00
C724   C     0.25019   0.75000   0.92704   0.00000  Uiso   1.00
C725   C     0.25000   0.52660   0.83333   0.00000  Uiso   1.00
C726   C     0.25000   0.97330   0.83333   0.00000  Uiso   1.00
C727   C     0.24994   0.75001   0.68850   0.00000  Uiso   1.00
C728   C     0.25006   0.75001   0.97817   0.00000  Uiso   1.00
C729   C     0.04707   0.79177   0.85291   0.00000  Uiso   1.00
C730   C     0.45276   0.70779   0.81394   0.00000  Uiso   1.00
C731   C     0.45293   0.79177   0.81375   0.00000  Uiso   1.00
C732   C     0.33522   0.75000   0.82512   0.00000  Uiso   1.00
C733   C     0.04724   0.70779   0.85271   0.00000  Uiso   1.00
C734   C     0.09352   0.79212   0.86198   0.00000  Uiso   1.00
C735   C     0.40632   0.70767   0.80465   0.00000  Uiso   1.00
C736   C     0.40648   0.79212   0.80468   0.00000  Uiso   1.00
C737   C     0.09368   0.70767   0.86201   0.00000  Uiso   1.00
C738   C     0.11753   0.74995   0.85648   0.00000  Uiso   1.00
C739   C     0.38246   0.74995   0.81018   0.00000  Uiso   1.00
C740   C     0.02413   0.74975   0.84199   0.00000  Uiso   1.00
C741   C     0.47586   0.74975   0.82467   0.00000  Uiso   1.00
C742   C     0.22597   0.60170   0.79679   0.00000  Uiso   1.00
C743   C     0.27668   0.89820   0.86757   0.00000  Uiso   1.00
C744   C     0.27403   0.60170   0.86988   0.00000  Uiso   1.00
C745   C     0.22332   0.89820   0.79909   0.00000  Uiso   1.00
C746   C     0.22643   0.55268   0.79589   0.00000  Uiso   1.00
C747   C     0.27757   0.94722   0.86733   0.00000  Uiso   1.00
C748   C     0.27356   0.55268   0.87078   0.00000  Uiso   1.00
H749   H     0.02949   0.82453   0.85604   0.00000  Uiso   1.00
H750   H     0.35708   0.59094   0.80614   0.00000  Uiso   1.00
H751   H     0.32064   0.86142   0.73604   0.00000  Uiso   1.00
H752   H     0.14284   0.59090   0.86051   0.00000  Uiso   1.00
H753   H     0.47020   0.67492   0.81107   0.00000  Uiso   1.00
H754   H     0.47051   0.82453   0.81063   0.00000  Uiso   1.00
H755   H     0.02980   0.67492   0.85559   0.00000  Uiso   1.00
H756   H     0.20788   0.53601   0.76528   0.00000  Uiso   1.00
H757   H     0.30041   0.96386   0.89420   0.00000  Uiso   1.00
H758   H     0.29212   0.53601   0.90139   0.00000  Uiso   1.00
H759   H     0.19958   0.96386   0.77246   0.00000  Uiso   1.00
H760   H     0.17932   0.86143   0.93070   0.00000  Uiso   1.00
I761   I     0.18454   0.63333   0.73942   0.00000  Uiso   1.00
I762   I     0.31887   0.86601   0.92387   0.00000  Uiso   1.00
I763   I     0.31547   0.63333   0.92724   0.00000  Uiso   1.00
I764   I     0.18113   0.86601   0.74280   0.00000  Uiso   1.00
N765   N     0.25000   0.62623   0.83333   0.00000  Uiso   1.00
N766   N     0.25000   0.87376   0.83333   0.00000  Uiso   1.00
O767   O     0.18453   0.78974   0.83334   0.00000  Uiso   1.00
O768   O     0.08462   0.86666   0.92160   0.00000  Uiso   1.00
O769   O     0.16483   0.83085   0.92338   0.00000  Uiso   1.00
O770   O     0.33943   0.66780   0.74743   0.00000  Uiso   1.00
O771   O     0.41490   0.63384   0.74409   0.00000  Uiso   1.00
O772   O     0.37007   0.61859   0.82379   0.00000  Uiso   1.00
O773   O     0.37094   0.87679   0.81953   0.00000  Uiso   1.00
O774   O     0.41537   0.86666   0.74506   0.00000  Uiso   1.00
O775   O     0.33517   0.83085   0.74329   0.00000  Uiso   1.00
O776   O     0.16057   0.66780   0.91924   0.00000  Uiso   1.00
O777   O     0.08510   0.63383   0.92256   0.00000  Uiso   1.00
O778   O     0.31547   0.71026   0.83333   0.00000  Uiso   1.00
O779   O     0.12994   0.61860   0.84286   0.00000  Uiso   1.00
O780   O     0.31547   0.78974   0.83333   0.00000  Uiso   1.00
O781   O     0.18453   0.71026   0.83334   0.00000  Uiso   1.00
O782   O     0.25000   0.78973   0.76178   0.00000  Uiso   1.00
O783   O     0.25000   0.71027   0.90489   0.00000  Uiso   1.00
O784   O     0.25000   0.78973   0.90489   0.00000  Uiso   1.00
O785   O     0.25000   0.71027   0.76178   0.00000  Uiso   1.00
O786   O     0.12906   0.87679   0.84714   0.00000  Uiso   1.00
S787   S     0.11794   0.84355   0.88845   0.00000  Uiso   1.00
S788   S     0.38177   0.65639   0.77790   0.00000  Uiso   1.00
S789   S     0.38206   0.84355   0.77822   0.00000  Uiso   1.00
S790   S     0.11823   0.65638   0.88876   0.00000  Uiso   1.00
Zn791  Zn    0.25000   0.80307   0.83333   0.00000  Uiso   1.00
Zn792  Zn    0.25000   0.69693   0.83333   0.00000  Uiso   1.00
C793   C     0.66478   0.75000   0.84155   0.00000  Uiso   1.00
C794   C     0.72243   0.94722   0.79934   0.00000  Uiso   1.00
C795   C     0.74981   0.75000   0.73963   0.00000  Uiso   1.00
C796   C     0.75019   0.75000   0.92704   0.00000  Uiso   1.00
C797   C     0.75000   0.52660   0.83333   0.00000  Uiso   1.00
C798   C     0.75000   0.97330   0.83333   0.00000  Uiso   1.00
C799   C     0.74994   0.75001   0.68850   0.00000  Uiso   1.00
C800   C     0.75006   0.75001   0.97817   0.00000  Uiso   1.00
C801   C     0.54707   0.79177   0.85291   0.00000  Uiso   1.00
C802   C     0.95276   0.70779   0.81394   0.00000  Uiso   1.00
C803   C     0.95293   0.79177   0.81375   0.00000  Uiso   1.00
C804   C     0.83522   0.75000   0.82512   0.00000  Uiso   1.00
C805   C     0.54724   0.70779   0.85271   0.00000  Uiso   1.00
C806   C     0.59352   0.79212   0.86198   0.00000  Uiso   1.00
C807   C     0.90632   0.70767   0.80465   0.00000  Uiso   1.00
C808   C     0.90648   0.79212   0.80468   0.00000  Uiso   1.00
C809   C     0.59368   0.70767   0.86201   0.00000  Uiso   1.00
C810   C     0.61753   0.74995   0.85648   0.00000  Uiso   1.00
C811   C     0.88246   0.74995   0.81018   0.00000  Uiso   1.00
C812   C     0.52413   0.74975   0.84199   0.00000  Uiso   1.00
C813   C     0.97586   0.74975   0.82467   0.00000  Uiso   1.00
C814   C     0.72597   0.60170   0.79679   0.00000  Uiso   1.00
C815   C     0.77668   0.89820   0.86757   0.00000  Uiso   1.00
C816   C     0.77403   0.60170   0.86988   0.00000  Uiso   1.00
C817   C     0.72332   0.89820   0.79909   0.00000  Uiso   1.00
C818   C     0.72643   0.55268   0.79589   0.00000  Uiso   1.00
C819   C     0.77757   0.94722   0.86733   0.00000  Uiso   1.00
C820   C     0.77356   0.55268   0.87078   0.00000  Uiso   1.00
H821   H     0.52949   0.82453   0.85604   0.00000  Uiso   1.00
H822   H     0.85708   0.59094   0.80614   0.00000  Uiso   1.00
H823   H     0.82064   0.86142   0.73604   0.00000  Uiso   1.00
H824   H     0.64284   0.59090   0.86051   0.00000  Uiso   1.00
H825   H     0.97020   0.67492   0.81107   0.00000  Uiso   1.00
H826   H     0.97051   0.82453   0.81063   0.00000  Uiso   1.00
H827   H     0.52980   0.67492   0.85559   0.00000  Uiso   1.00
H828   H     0.70788   0.53601   0.76528   0.00000  Uiso   1.00
H829   H     0.80041   0.96386   0.89420   0.00000  Uiso   1.00
H830   H     0.79212   0.53601   0.90139   0.00000  Uiso   1.00
H831   H     0.69958   0.96386   0.77246   0.00000  Uiso   1.00
H832   H     0.67932   0.86143   0.93070   0.00000  Uiso   1.00
I833   I     0.68454   0.63333   0.73942   0.00000  Uiso   1.00
I834   I     0.81887   0.86601   0.92387   0.00000  Uiso   1.00
I835   I     0.81547   0.63333   0.92724   0.00000  Uiso   1.00
I836   I     0.68113   0.86601   0.74280   0.00000  Uiso   1.00
N837   N     0.75000   0.62623   0.83333   0.00000  Uiso   1.00
N838   N     0.75000   0.87376   0.83333   0.00000  Uiso   1.00
O839   O     0.68453   0.78974   0.83334   0.00000  Uiso   1.00
O840   O     0.58462   0.86666   0.92160   0.00000  Uiso   1.00
O841   O     0.66483   0.83085   0.92338   0.00000  Uiso   1.00
O842   O     0.83943   0.66780   0.74743   0.00000  Uiso   1.00
O843   O     0.91490   0.63384   0.74409   0.00000  Uiso   1.00
O844   O     0.87007   0.61859   0.82379   0.00000  Uiso   1.00
O845   O     0.87094   0.87679   0.81953   0.00000  Uiso   1.00
O846   O     0.91537   0.86666   0.74506   0.00000  Uiso   1.00
O847   O     0.83517   0.83085   0.74329   0.00000  Uiso   1.00
O848   O     0.66057   0.66780   0.91924   0.00000  Uiso   1.00
O849   O     0.58510   0.63383   0.92256   0.00000  Uiso   1.00
O850   O     0.81547   0.71026   0.83333   0.00000  Uiso   1.00
O851   O     0.62994   0.61860   0.84286   0.00000  Uiso   1.00
O852   O     0.81547   0.78974   0.83333   0.00000  Uiso   1.00
O853   O     0.68453   0.71026   0.83334   0.00000  Uiso   1.00
O854   O     0.75000   0.78973   0.76178   0.00000  Uiso   1.00
O855   O     0.75000   0.71027   0.90489   0.00000  Uiso   1.00
O856   O     0.75000   0.78973   0.90489   0.00000  Uiso   1.00
O857   O     0.75000   0.71027   0.76178   0.00000  Uiso   1.00
O858   O     0.62906   0.87679   0.84714   0.00000  Uiso   1.00
S859   S     0.61794   0.84355   0.88845   0.00000  Uiso   1.00
S860   S     0.88177   0.65639   0.77790   0.00000  Uiso   1.00
S861   S     0.88206   0.84355   0.77822   0.00000  Uiso   1.00
S862   S     0.61823   0.65638   0.88876   0.00000  Uiso   1.00
Zn863  Zn    0.75000   0.80307   0.83333   0.00000  Uiso   1.00
Zn864  Zn    0.75000   0.69693   0.83333   0.00000  Uiso   1.00
loop_
_geom_bond_atom_site_label_1
_geom_bond_atom_site_label_2
_geom_bond_distance
_geom_bond_site_symmetry_2
_ccdc_geom_bond_type
C1     C18     1.471   .     S
C1     O47     1.302   .     A
C1     O61     1.302   .     A
C2     C6      1.409   .     A
C2     C25     1.403   .     A
C2     H39     1.076   .     S
C3     C7      1.361   .     S
C3     O65     1.281   .     A
C3     O62     1.281   .     A
C4     C8      1.361   .     S
C4     O63     1.281   .     A
C4     O64     1.281   .     A
C5     C28     1.408   .     A
C5     C26     1.408   .     A
C5     C150    1.526   1_545 S
C6     C27     1.409   .     A
C6     C149    1.526   .     S
C7     C584    1.162   1_554 S
C8     C295    1.162   .     S
C9     C14     1.388   .     A
C9     C20     1.406   .     A
C9     H29     1.078   .     S
C10    H33     1.078   .     S
C10    C21     1.406   .     A
C10    C15     1.389   .     A
C11    C16     1.388   .     A
C11    C21     1.406   .     A
C11    H34     1.078   .     S
C12    O58     1.302   .     A
C12    C19     1.471   .     S
C12    O60     1.302   .     A
C13    C17     1.389   .     A
C13    H35     1.078   .     S
C13    C20     1.406   .     A
C14    C18     1.412   .     A
C14    S67     1.774   .     S
C15    C19     1.412   .     A
C15    S68     1.775   .     S
C16    C19     1.412   .     A
C16    S69     1.774   .     S
C17    C18     1.412   .     A
C17    S70     1.775   .     S
C20    C93     1.486   1_455 S
C21    C92     1.486   .     S
C22    I41     2.124   .     S
C22    N45     1.375   .     A
C22    C26     1.404   .     A
C23    N46     1.374   .     A
C23    I42     2.123   .     S
C23    C27     1.403   .     A
C24    N45     1.375   .     A
C24    C28     1.404   .     A
C24    I43     2.124   .     S
C25    N46     1.374   .     A
C25    I44     2.123   .     S
C26    H36     1.076   .     S
C27    H37     1.076   .     S
C28    H38     1.076   .     S
H30    O52     0.991   .     S
H31    O55     0.991   .     S
H32    O59     0.991   .     S
H40    O49     0.991   .     S
N45    Zn72    2.024   .     S
N46    Zn71    2.024   .     S
O47    Zn71    1.978   .     S
O48    S67     1.503   .     D
O49    S67     1.681   .     S
O50    S68     1.503   .     D
O51    S68     1.504   .     D
O52    S68     1.678   .     S
O53    S69     1.500   .     D
O54    S69     1.503   .     D
O55    S69     1.681   .     S
O56    S70     1.503   .     D
O57    S70     1.504   .     D
O58    Zn72    1.978   .     S
O59    S70     1.678   .     S
O60    Zn71    1.978   .     S
O61    Zn72    1.978   .     S
O62    Zn71    1.942   .     S
O63    Zn72    1.942   .     S
O64    Zn71    1.942   .     S
O65    Zn72    1.942   .     S
O66    S67     1.500   .     D
C73    C90     1.471   .     S
C73    O119    1.302   .     A
C73    O133    1.302   .     A
C74    C78     1.409   .     A
C74    C97     1.403   .     A
C74    H111    1.076   .     S
C75    C79     1.361   .     S
C75    O137    1.281   .     A
C75    O134    1.281   .     A
C76    C80     1.361   .     S
C76    O135    1.281   .     A
C76    O136    1.281   .     A
C77    C100    1.408   .     A
C77    C98     1.408   .     A
C77    C222    1.526   1_545 S
C78    C99     1.409   .     A
C78    C221    1.526   .     S
C79    C656    1.162   1_554 S
C80    C367    1.162   .     S
C81    C86     1.388   .     A
C81    C92     1.406   .     A
C81    H101    1.078   .     S
C82    H105    1.078   .     S
C82    C93     1.406   .     A
C82    C87     1.389   .     A
C83    C88     1.388   .     A
C83    C93     1.406   .     A
C83    H106    1.078   .     S
C84    O130    1.302   .     A
C84    C91     1.471   .     S
C84    O132    1.302   .     A
C85    C89     1.389   .     A
C85    H107    1.078   .     S
C85    C92     1.406   .     A
C86    C90     1.412   .     A
C86    S139    1.774   .     S
C87    C91     1.412   .     A
C87    S140    1.775   .     S
C88    C91     1.412   .     A
C88    S141    1.774   .     S
C89    C90     1.412   .     A
C89    S142    1.775   .     S
C93    C20     1.486   1_655 S
C94    I113    2.124   .     S
C94    N117    1.375   .     A
C94    C98     1.404   .     A
C95    N118    1.374   .     A
C95    I114    2.123   .     S
C95    C99     1.403   .     A
C96    N117    1.375   .     A
C96    C100    1.404   .     A
C96    I115    2.124   .     S
C97    N118    1.374   .     A
C97    I116    2.123   .     S
C98    H108    1.076   .     S
C99    H109    1.076   .     S
C100   H110    1.076   .     S
H102   O124    0.991   .     S
H103   O127    0.991   .     S
H104   O131    0.991   .     S
H112   O121    0.991   .     S
N117   Zn144   2.024   .     S
N118   Zn143   2.024   .     S
O119   Zn143   1.978   .     S
O120   S139    1.503   .     D
O121   S139    1.681   .     S
O122   S140    1.503   .     D
O123   S140    1.504   .     D
O124   S140    1.678   .     S
O125   S141    1.500   .     D
O126   S141    1.503   .     D
O127   S141    1.681   .     S
O128   S142    1.503   .     D
O129   S142    1.504   .     D
O130   Zn144   1.978   .     S
O131   S142    1.678   .     S
O132   Zn143   1.978   .     S
O133   Zn144   1.978   .     S
O134   Zn143   1.942   .     S
O135   Zn144   1.942   .     S
O136   Zn143   1.942   .     S
O137   Zn144   1.942   .     S
O138   S139    1.500   .     D
C145   C162    1.471   .     S
C145   O191    1.302   .     A
C145   O205    1.302   .     A
C146   C150    1.409   .     A
C146   C169    1.403   .     A
C146   H183    1.076   .     S
C147   C151    1.361   .     S
C147   O209    1.281   .     A
C147   O206    1.281   .     A
C148   C152    1.361   .     S
C148   O207    1.281   .     A
C148   O208    1.281   .     A
C149   C172    1.408   .     A
C149   C170    1.408   .     A
C150   C171    1.409   .     A
C150   C5      1.526   1_565 S
C151   C728    1.162   1_554 S
C152   C439    1.162   .     S
C153   C158    1.388   .     A
C153   C164    1.406   .     A
C153   H173    1.078   .     S
C154   H177    1.078   .     S
C154   C165    1.406   .     A
C154   C159    1.389   .     A
C155   C160    1.388   .     A
C155   C165    1.406   .     A
C155   H178    1.078   .     S
C156   O202    1.302   .     A
C156   C163    1.471   .     S
C156   O204    1.302   .     A
C157   C161    1.389   .     A
C157   H179    1.078   .     S
C157   C164    1.406   .     A
C158   C162    1.412   .     A
C158   S211    1.774   .     S
C159   C163    1.412   .     A
C159   S212    1.775   .     S
C160   C163    1.412   .     A
C160   S213    1.774   .     S
C161   C162    1.412   .     A
C161   S214    1.775   .     S
C164   C237    1.486   1_455 S
C165   C236    1.486   .     S
C166   I185    2.124   .     S
C166   N189    1.375   .     A
C166   C170    1.404   .     A
C167   N190    1.374   .     A
C167   I186    2.123   .     S
C167   C171    1.403   .     A
C168   N189    1.375   .     A
C168   C172    1.404   .     A
C168   I187    2.124   .     S
C169   N190    1.374   .     A
C169   I188    2.123   .     S
C170   H180    1.076   .     S
C171   H181    1.076   .     S
C172   H182    1.076   .     S
H174   O196    0.991   .     S
H175   O199    0.991   .     S
H176   O203    0.991   .     S
H184   O193    0.991   .     S
N189   Zn216   2.024   .     S
N190   Zn215   2.024   .     S
O191   Zn215   1.978   .     S
O192   S211    1.503   .     D
O193   S211    1.681   .     S
O194   S212    1.503   .     D
O195   S212    1.504   .     D
O196   S212    1.678   .     S
O197   S213    1.500   .     D
O198   S213    1.503   .     D
O199   S213    1.681   .     S
O200   S214    1.503   .     D
O201   S214    1.504   .     D
O202   Zn216   1.978   .     S
O203   S214    1.678   .     S
O204   Zn215   1.978   .     S
O205   Zn216   1.978   .     S
O206   Zn215   1.942   .     S
O207   Zn216   1.942   .     S
O208   Zn215   1.942   .     S
O209   Zn216   1.942   .     S
O210   S211    1.500   .     D
C217   C234    1.471   .     S
C217   O263    1.302   .     A
C217   O277    1.302   .     A
C218   C222    1.409   .     A
C218   C241    1.403   .     A
C218   H255    1.076   .     S
C219   C223    1.361   .     S
C219   O281    1.281   .     A
C219   O278    1.281   .     A
C220   C224    1.361   .     S
C220   O279    1.281   .     A
C220   O280    1.281   .     A
C221   C244    1.408   .     A
C221   C242    1.408   .     A
C222   C243    1.409   .     A
C222   C77     1.526   1_565 S
C223   C800    1.162   1_554 S
C224   C511    1.162   .     S
C225   C230    1.388   .     A
C225   C236    1.406   .     A
C225   H245    1.078   .     S
C226   H249    1.078   .     S
C226   C237    1.406   .     A
C226   C231    1.389   .     A
C227   C232    1.388   .     A
C227   C237    1.406   .     A
C227   H250    1.078   .     S
C228   O274    1.302   .     A
C228   C235    1.471   .     S
C228   O276    1.302   .     A
C229   C233    1.389   .     A
C229   H251    1.078   .     S
C229   C236    1.406   .     A
C230   C234    1.412   .     A
C230   S283    1.774   .     S
C231   C235    1.412   .     A
C231   S284    1.775   .     S
C232   C235    1.412   .     A
C232   S285    1.774   .     S
C233   C234    1.412   .     A
C233   S286    1.775   .     S
C237   C164    1.486   1_655 S
C238   I257    2.124   .     S
C238   N261    1.375   .     A
C238   C242    1.404   .     A
C239   N262    1.374   .     A
C239   I258    2.123   .     S
C239   C243    1.403   .     A
C240   N261    1.375   .     A
C240   C244    1.404   .     A
C240   I259    2.124   .     S
C241   N262    1.374   .     A
C241   I260    2.123   .     S
C242   H252    1.076   .     S
C243   H253    1.076   .     S
C244   H254    1.076   .     S
H246   O268    0.991   .     S
H247   O271    0.991   .     S
H248   O275    0.991   .     S
H256   O265    0.991   .     S
N261   Zn288   2.024   .     S
N262   Zn287   2.024   .     S
O263   Zn287   1.978   .     S
O264   S283    1.503   .     D
O265   S283    1.681   .     S
O266   S284    1.503   .     D
O267   S284    1.504   .     D
O268   S284    1.678   .     S
O269   S285    1.500   .     D
O270   S285    1.503   .     D
O271   S285    1.681   .     S
O272   S286    1.503   .     D
O273   S286    1.504   .     D
O274   Zn288   1.978   .     S
O275   S286    1.678   .     S
O276   Zn287   1.978   .     S
O277   Zn288   1.978   .     S
O278   Zn287   1.942   .     S
O279   Zn288   1.942   .     S
O280   Zn287   1.942   .     S
O281   Zn288   1.942   .     S
O282   S283    1.500   .     D
C289   C306    1.471   .     S
C289   O335    1.302   .     A
C289   O349    1.302   .     A
C290   C294    1.409   .     A
C290   C313    1.403   .     A
C290   H327    1.076   .     S
C291   C295    1.361   .     S
C291   O353    1.281   .     A
C291   O350    1.281   .     A
C292   C296    1.361   .     S
C292   O351    1.281   .     A
C292   O352    1.281   .     A
C293   C316    1.408   .     A
C293   C314    1.408   .     A
C293   C438    1.526   1_545 S
C294   C315    1.409   .     A
C294   C437    1.526   .     S
C296   C583    1.162   .     S
C297   C302    1.388   .     A
C297   C308    1.406   .     A
C297   H317    1.078   .     S
C298   H321    1.078   .     S
C298   C309    1.406   .     A
C298   C303    1.389   .     A
C299   C304    1.388   .     A
C299   C309    1.406   .     A
C299   H322    1.078   .     S
C300   O346    1.302   .     A
C300   C307    1.471   .     S
C300   O348    1.302   .     A
C301   C305    1.389   .     A
C301   H323    1.078   .     S
C301   C308    1.406   .     A
C302   C306    1.412   .     A
C302   S355    1.774   .     S
C303   C307    1.412   .     A
C303   S356    1.775   .     S
C304   C307    1.412   .     A
C304   S357    1.774   .     S
C305   C306    1.412   .     A
C305   S358    1.775   .     S
C308   C381    1.486   1_455 S
C309   C380    1.486   .     S
C310   I329    2.124   .     S
C310   N333    1.375   .     A
C310   C314    1.404   .     A
C311   N334    1.374   .     A
C311   I330    2.123   .     S
C311   C315    1.403   .     A
C312   N333    1.375   .     A
C312   C316    1.404   .     A
C312   I331    2.124   .     S
C313   N334    1.374   .     A
C313   I332    2.123   .     S
C314   H324    1.076   .     S
C315   H325    1.076   .     S
C316   H326    1.076   .     S
H318   O340    0.991   .     S
H319   O343    0.991   .     S
H320   O347    0.991   .     S
H328   O337    0.991   .     S
N333   Zn360   2.024   .     S
N334   Zn359   2.024   .     S
O335   Zn359   1.978   .     S
O336   S355    1.503   .     D
O337   S355    1.681   .     S
O338   S356    1.503   .     D
O339   S356    1.504   .     D
O340   S356    1.678   .     S
O341   S357    1.500   .     D
O342   S357    1.503   .     D
O343   S357    1.681   .     S
O344   S358    1.503   .     D
O345   S358    1.504   .     D
O346   Zn360   1.978   .     S
O347   S358    1.678   .     S
O348   Zn359   1.978   .     S
O349   Zn360   1.978   .     S
O350   Zn359   1.942   .     S
O351   Zn360   1.942   .     S
O352   Zn359   1.942   .     S
O353   Zn360   1.942   .     S
O354   S355    1.500   .     D
C361   C378    1.471   .     S
C361   O407    1.302   .     A
C361   O421    1.302   .     A
C362   C366    1.409   .     A
C362   C385    1.403   .     A
C362   H399    1.076   .     S
C363   C367    1.361   .     S
C363   O425    1.281   .     A
C363   O422    1.281   .     A
C364   C368    1.361   .     S
C364   O423    1.281   .     A
C364   O424    1.281   .     A
C365   C388    1.408   .     A
C365   C386    1.408   .     A
C365   C510    1.526   1_545 S
C366   C387    1.409   .     A
C366   C509    1.526   .     S
C368   C655    1.162   .     S
C369   C374    1.388   .     A
C369   C380    1.406   .     A
C369   H389    1.078   .     S
C370   H393    1.078   .     S
C370   C381    1.406   .     A
C370   C375    1.389   .     A
C371   C376    1.388   .     A
C371   C381    1.406   .     A
C371   H394    1.078   .     S
C372   O418    1.302   .     A
C372   C379    1.471   .     S
C372   O420    1.302   .     A
C373   C377    1.389   .     A
C373   H395    1.078   .     S
C373   C380    1.406   .     A
C374   C378    1.412   .     A
C374   S427    1.774   .     S
C375   C379    1.412   .     A
C375   S428    1.775   .     S
C376   C379    1.412   .     A
C376   S429    1.774   .     S
C377   C378    1.412   .     A
C377   S430    1.775   .     S
C381   C308    1.486   1_655 S
C382   I401    2.124   .     S
C382   N405    1.375   .     A
C382   C386    1.404   .     A
C383   N406    1.374   .     A
C383   I402    2.123   .     S
C383   C387    1.403   .     A
C384   N405    1.375   .     A
C384   C388    1.404   .     A
C384   I403    2.124   .     S
C385   N406    1.374   .     A
C385   I404    2.123   .     S
C386   H396    1.076   .     S
C387   H397    1.076   .     S
C388   H398    1.076   .     S
H390   O412    0.991   .     S
H391   O415    0.991   .     S
H392   O419    0.991   .     S
H400   O409    0.991   .     S
N405   Zn432   2.024   .     S
N406   Zn431   2.024   .     S
O407   Zn431   1.978   .     S
O408   S427    1.503   .     D
O409   S427    1.681   .     S
O410   S428    1.503   .     D
O411   S428    1.504   .     D
O412   S428    1.678   .     S
O413   S429    1.500   .     D
O414   S429    1.503   .     D
O415   S429    1.681   .     S
O416   S430    1.503   .     D
O417   S430    1.504   .     D
O418   Zn432   1.978   .     S
O419   S430    1.678   .     S
O420   Zn431   1.978   .     S
O421   Zn432   1.978   .     S
O422   Zn431   1.942   .     S
O423   Zn432   1.942   .     S
O424   Zn431   1.942   .     S
O425   Zn432   1.942   .     S
O426   S427    1.500   .     D
C433   C450    1.471   .     S
C433   O479    1.302   .     A
C433   O493    1.302   .     A
C434   C438    1.409   .     A
C434   C457    1.403   .     A
C434   H471    1.076   .     S
C435   C439    1.361   .     S
C435   O497    1.281   .     A
C435   O494    1.281   .     A
C436   C440    1.361   .     S
C436   O495    1.281   .     A
C436   O496    1.281   .     A
C437   C460    1.408   .     A
C437   C458    1.408   .     A
C438   C459    1.409   .     A
C438   C293    1.526   1_565 S
C440   C727    1.162   .     S
C441   C446    1.388   .     A
C441   C452    1.406   .     A
C441   H461    1.078   .     S
C442   H465    1.078   .     S
C442   C453    1.406   .     A
C442   C447    1.389   .     A
C443   C448    1.388   .     A
C443   C453    1.406   .     A
C443   H466    1.078   .     S
C444   O490    1.302   .     A
C444   C451    1.471   .     S
C444   O492    1.302   .     A
C445   C449    1.389   .     A
C445   H467    1.078   .     S
C445   C452    1.406   .     A
C446   C450    1.412   .     A
C446   S499    1.774   .     S
C447   C451    1.412   .     A
C447   S500    1.775   .     S
C448   C451    1.412   .     A
C448   S501    1.774   .     S
C449   C450    1.412   .     A
C449   S502    1.775   .     S
C452   C525    1.486   1_455 S
C453   C524    1.486   .     S
C454   I473    2.124   .     S
C454   N477    1.375   .     A
C454   C458    1.404   .     A
C455   N478    1.374   .     A
C455   I474    2.123   .     S
C455   C459    1.403   .     A
C456   N477    1.375   .     A
C456   C460    1.404   .     A
C456   I475    2.124   .     S
C457   N478    1.374   .     A
C457   I476    2.123   .     S
C458   H468    1.076   .     S
C459   H469    1.076   .     S
C460   H470    1.076   .     S
H462   O484    0.991   .     S
H463   O487    0.991   .     S
H464   O491    0.991   .     S
H472   O481    0.991   .     S
N477   Zn504   2.024   .     S
N478   Zn503   2.024   .     S
O479   Zn503   1.978   .     S
O480   S499    1.503   .     D
O481   S499    1.681   .     S
O482   S500    1.503   .     D
O483   S500    1.504   .     D
O484   S500    1.678   .     S
O485   S501    1.500   .     D
O486   S501    1.503   .     D
O487   S501    1.681   .     S
O488   S502    1.503   .     D
O489   S502    1.504   .     D
O490   Zn504   1.978   .     S
O491   S502    1.678   .     S
O492   Zn503   1.978   .     S
O493   Zn504   1.978   .     S
O494   Zn503   1.942   .     S
O495   Zn504   1.942   .     S
O496   Zn503   1.942   .     S
O497   Zn504   1.942   .     S
O498   S499    1.500   .     D
C505   C522    1.471   .     S
C505   O551    1.302   .     A
C505   O565    1.302   .     A
C506   C510    1.409   .     A
C506   C529    1.403   .     A
C506   H543    1.076   .     S
C507   C511    1.361   .     S
C507   O569    1.281   .     A
C507   O566    1.281   .     A
C508   C512    1.361   .     S
C508   O567    1.281   .     A
C508   O568    1.281   .     A
C509   C532    1.408   .     A
C509   C530    1.408   .     A
C510   C531    1.409   .     A
C510   C365    1.526   1_565 S
C512   C799    1.162   .     S
C513   C518    1.388   .     A
C513   C524    1.406   .     A
C513   H533    1.078   .     S
C514   H537    1.078   .     S
C514   C525    1.406   .     A
C514   C519    1.389   .     A
C515   C520    1.388   .     A
C515   C525    1.406   .     A
C515   H538    1.078   .     S
C516   O562    1.302   .     A
C516   C523    1.471   .     S
C516   O564    1.302   .     A
C517   C521    1.389   .     A
C517   H539    1.078   .     S
C517   C524    1.406   .     A
C518   C522    1.412   .     A
C518   S571    1.774   .     S
C519   C523    1.412   .     A
C519   S572    1.775   .     S
C520   C523    1.412   .     A
C520   S573    1.774   .     S
C521   C522    1.412   .     A
C521   S574    1.775   .     S
C525   C452    1.486   1_655 S
C526   I545    2.124   .     S
C526   N549    1.375   .     A
C526   C530    1.404   .     A
C527   N550    1.374   .     A
C527   I546    2.123   .     S
C527   C531    1.403   .     A
C528   N549    1.375   .     A
C528   C532    1.404   .     A
C528   I547    2.124   .     S
C529   N550    1.374   .     A
C529   I548    2.123   .     S
C530   H540    1.076   .     S
C531   H541    1.076   .     S
C532   H542    1.076   .     S
H534   O556    0.991   .     S
H535   O559    0.991   .     S
H536   O563    0.991   .     S
H544   O553    0.991   .     S
N549   Zn576   2.024   .     S
N550   Zn575   2.024   .     S
O551   Zn575   1.978   .     S
O552   S571    1.503   .     D
O553   S571    1.681   .     S
O554   S572    1.503   .     D
O555   S572    1.504   .     D
O556   S572    1.678   .     S
O557   S573    1.500   .     D
O558   S573    1.503   .     D
O559   S573    1.681   .     S
O560   S574    1.503   .     D
O561   S574    1.504   .     D
O562   Zn576   1.978   .     S
O563   S574    1.678   .     S
O564   Zn575   1.978   .     S
O565   Zn576   1.978   .     S
O566   Zn575   1.942   .     S
O567   Zn576   1.942   .     S
O568   Zn575   1.942   .     S
O569   Zn576   1.942   .     S
O570   S571    1.500   .     D
C577   C594    1.471   .     S
C577   O623    1.302   .     A
C577   O637    1.302   .     A
C578   C582    1.409   .     A
C578   C601    1.403   .     A
C578   H615    1.076   .     S
C579   C583    1.361   .     S
C579   O641    1.281   .     A
C579   O638    1.281   .     A
C580   C584    1.361   .     S
C580   O639    1.281   .     A
C580   O640    1.281   .     A
C581   C604    1.408   .     A
C581   C602    1.408   .     A
C581   C726    1.526   1_545 S
C582   C603    1.409   .     A
C582   C725    1.526   .     S
C584   C7      1.162   1_556 S
C585   C590    1.388   .     A
C585   C596    1.406   .     A
C585   H605    1.078   .     S
C586   H609    1.078   .     S
C586   C597    1.406   .     A
C586   C591    1.389   .     A
C587   C592    1.388   .     A
C587   C597    1.406   .     A
C587   H610    1.078   .     S
C588   O634    1.302   .     A
C588   C595    1.471   .     S
C588   O636    1.302   .     A
C589   C593    1.389   .     A
C589   H611    1.078   .     S
C589   C596    1.406   .     A
C590   C594    1.412   .     A
C590   S643    1.774   .     S
C591   C595    1.412   .     A
C591   S644    1.775   .     S
C592   C595    1.412   .     A
C592   S645    1.774   .     S
C593   C594    1.412   .     A
C593   S646    1.775   .     S
C596   C669    1.486   1_455 S
C597   C668    1.486   .     S
C598   I617    2.124   .     S
C598   N621    1.375   .     A
C598   C602    1.404   .     A
C599   N622    1.374   .     A
C599   I618    2.123   .     S
C599   C603    1.403   .     A
C600   N621    1.375   .     A
C600   C604    1.404   .     A
C600   I619    2.124   .     S
C601   N622    1.374   .     A
C601   I620    2.123   .     S
C602   H612    1.076   .     S
C603   H613    1.076   .     S
C604   H614    1.076   .     S
H606   O628    0.991   .     S
H607   O631    0.991   .     S
H608   O635    0.991   .     S
H616   O625    0.991   .     S
N621   Zn648   2.024   .     S
N622   Zn647   2.024   .     S
O623   Zn647   1.978   .     S
O624   S643    1.503   .     D
O625   S643    1.681   .     S
O626   S644    1.503   .     D
O627   S644    1.504   .     D
O628   S644    1.678   .     S
O629   S645    1.500   .     D
O630   S645    1.503   .     D
O631   S645    1.681   .     S
O632   S646    1.503   .     D
O633   S646    1.504   .     D
O634   Zn648   1.978   .     S
O635   S646    1.678   .     S
O636   Zn647   1.978   .     S
O637   Zn648   1.978   .     S
O638   Zn647   1.942   .     S
O639   Zn648   1.942   .     S
O640   Zn647   1.942   .     S
O641   Zn648   1.942   .     S
O642   S643    1.500   .     D
C649   C666    1.471   .     S
C649   O695    1.302   .     A
C649   O709    1.302   .     A
C650   C654    1.409   .     A
C650   C673    1.403   .     A
C650   H687    1.076   .     S
C651   C655    1.361   .     S
C651   O713    1.281   .     A
C651   O710    1.281   .     A
C652   C656    1.361   .     S
C652   O711    1.281   .     A
C652   O712    1.281   .     A
C653   C676    1.408   .     A
C653   C674    1.408   .     A
C653   C798    1.526   1_545 S
C654   C675    1.409   .     A
C654   C797    1.526   .     S
C656   C79     1.162   1_556 S
C657   C662    1.388   .     A
C657   C668    1.406   .     A
C657   H677    1.078   .     S
C658   H681    1.078   .     S
C658   C669    1.406   .     A
C658   C663    1.389   .     A
C659   C664    1.388   .     A
C659   C669    1.406   .     A
C659   H682    1.078   .     S
C660   O706    1.302   .     A
C660   C667    1.471   .     S
C660   O708    1.302   .     A
C661   C665    1.389   .     A
C661   H683    1.078   .     S
C661   C668    1.406   .     A
C662   C666    1.412   .     A
C662   S715    1.774   .     S
C663   C667    1.412   .     A
C663   S716    1.775   .     S
C664   C667    1.412   .     A
C664   S717    1.774   .     S
C665   C666    1.412   .     A
C665   S718    1.775   .     S
C669   C596    1.486   1_655 S
C670   I689    2.124   .     S
C670   N693    1.375   .     A
C670   C674    1.404   .     A
C671   N694    1.374   .     A
C671   I690    2.123   .     S
C671   C675    1.403   .     A
C672   N693    1.375   .     A
C672   C676    1.404   .     A
C672   I691    2.124   .     S
C673   N694    1.374   .     A
C673   I692    2.123   .     S
C674   H684    1.076   .     S
C675   H685    1.076   .     S
C676   H686    1.076   .     S
H678   O700    0.991   .     S
H679   O703    0.991   .     S
H680   O707    0.991   .     S
H688   O697    0.991   .     S
N693   Zn720   2.024   .     S
N694   Zn719   2.024   .     S
O695   Zn719   1.978   .     S
O696   S715    1.503   .     D
O697   S715    1.681   .     S
O698   S716    1.503   .     D
O699   S716    1.504   .     D
O700   S716    1.678   .     S
O701   S717    1.500   .     D
O702   S717    1.503   .     D
O703   S717    1.681   .     S
O704   S718    1.503   .     D
O705   S718    1.504   .     D
O706   Zn720   1.978   .     S
O707   S718    1.678   .     S
O708   Zn719   1.978   .     S
O709   Zn720   1.978   .     S
O710   Zn719   1.942   .     S
O711   Zn720   1.942   .     S
O712   Zn719   1.942   .     S
O713   Zn720   1.942   .     S
O714   S715    1.500   .     D
C721   C738    1.471   .     S
C721   O767    1.302   .     A
C721   O781    1.302   .     A
C722   C726    1.409   .     A
C722   C745    1.403   .     A
C722   H759    1.076   .     S
C723   C727    1.361   .     S
C723   O785    1.281   .     A
C723   O782    1.281   .     A
C724   C728    1.361   .     S
C724   O783    1.281   .     A
C724   O784    1.281   .     A
C725   C748    1.408   .     A
C725   C746    1.408   .     A
C726   C747    1.409   .     A
C726   C581    1.526   1_565 S
C728   C151    1.162   1_556 S
C729   C734    1.388   .     A
C729   C740    1.406   .     A
C729   H749    1.078   .     S
C730   H753    1.078   .     S
C730   C741    1.406   .     A
C730   C735    1.389   .     A
C731   C736    1.388   .     A
C731   C741    1.406   .     A
C731   H754    1.078   .     S
C732   O778    1.302   .     A
C732   C739    1.471   .     S
C732   O780    1.302   .     A
C733   C737    1.389   .     A
C733   H755    1.078   .     S
C733   C740    1.406   .     A
C734   C738    1.412   .     A
C734   S787    1.774   .     S
C735   C739    1.412   .     A
C735   S788    1.775   .     S
C736   C739    1.412   .     A
C736   S789    1.774   .     S
C737   C738    1.412   .     A
C737   S790    1.775   .     S
C740   C813    1.486   1_455 S
C741   C812    1.486   .     S
C742   I761    2.124   .     S
C742   N765    1.375   .     A
C742   C746    1.404   .     A
C743   N766    1.374   .     A
C743   I762    2.123   .     S
C743   C747    1.403   .     A
C744   N765    1.375   .     A
C744   C748    1.404   .     A
C744   I763    2.124   .     S
C745   N766    1.374   .     A
C745   I764    2.123   .     S
C746   H756    1.076   .     S
C747   H757    1.076   .     S
C748   H758    1.076   .     S
H750   O772    0.991   .     S
H751   O775    0.991   .     S
H752   O779    0.991   .     S
H760   O769    0.991   .     S
N765   Zn792   2.024   .     S
N766   Zn791   2.024   .     S
O767   Zn791   1.978   .     S
O768   S787    1.503   .     D
O769   S787    1.681   .     S
O770   S788    1.503   .     D
O771   S788    1.504   .     D
O772   S788    1.678   .     S
O773   S789    1.500   .     D
O774   S789    1.503   .     D
O775   S789    1.681   .     S
O776   S790    1.503   .     D
O777   S790    1.504   .     D
O778   Zn792   1.978   .     S
O779   S790    1.678   .     S
O780   Zn791   1.978   .     S
O781   Zn792   1.978   .     S
O782   Zn791   1.942   .     S
O783   Zn792   1.942   .     S
O784   Zn791   1.942   .     S
O785   Zn792   1.942   .     S
O786   S787    1.500   .     D
C793   C810    1.471   .     S
C793   O839    1.302   .     A
C793   O853    1.302   .     A
C794   C798    1.409   .     A
C794   C817    1.403   .     A
C794   H831    1.076   .     S
C795   C799    1.361   .     S
C795   O857    1.281   .     A
C795   O854    1.281   .     A
C796   C800    1.361   .     S
C796   O855    1.281   .     A
C796   O856    1.281   .     A
C797   C820    1.408   .     A
C797   C818    1.408   .     A
C798   C819    1.409   .     A
C798   C653    1.526   1_565 S
C800   C223    1.162   1_556 S
C801   C806    1.388   .     A
C801   C812    1.406   .     A
C801   H821    1.078   .     S
C802   H825    1.078   .     S
C802   C813    1.406   .     A
C802   C807    1.389   .     A
C803   C808    1.388   .     A
C803   C813    1.406   .     A
C803   H826    1.078   .     S
C804   O850    1.302   .     A
C804   C811    1.471   .     S
C804   O852    1.302   .     A
C805   C809    1.389   .     A
C805   H827    1.078   .     S
C805   C812    1.406   .     A
C806   C810    1.412   .     A
C806   S859    1.774   .     S
C807   C811    1.412   .     A
C807   S860    1.775   .     S
C808   C811    1.412   .     A
C808   S861    1.774   .     S
C809   C810    1.412   .     A
C809   S862    1.775   .     S
C813   C740    1.486   1_655 S
C814   I833    2.124   .     S
C814   N837    1.375   .     A
C814   C818    1.404   .     A
C815   N838    1.374   .     A
C815   I834    2.123   .     S
C815   C819    1.403   .     A
C816   N837    1.375   .     A
C816   C820    1.404   .     A
C816   I835    2.124   .     S
C817   N838    1.374   .     A
C817   I836    2.123   .     S
C818   H828    1.076   .     S
C819   H829    1.076   .     S
C820   H830    1.076   .     S
H822   O844    0.991   .     S
H823   O847    0.991   .     S
H824   O851    0.991   .     S
H832   O841    0.991   .     S
N837   Zn864   2.024   .     S
N838   Zn863   2.024   .     S
O839   Zn863   1.978   .     S
O840   S859    1.503   .     D
O841   S859    1.681   .     S
O842   S860    1.503   .     D
O843   S860    1.504   .     D
O844   S860    1.678   .     S
O845   S861    1.500   .     D
O846   S861    1.503   .     D
O847   S861    1.681   .     S
O848   S862    1.503   .     D
O849   S862    1.504   .     D
O850   Zn864   1.978   .     S
O851   S862    1.678   .     S
O852   Zn863   1.978   .     S
O853   Zn864   1.978   .     S
O854   Zn863   1.942   .     S
O855   Zn864   1.942   .     S
O856   Zn863   1.942   .     S
O857   Zn864   1.942   .     S
O858   S859    1.500   .     D
