data_str_m3_o2_o5_pcu_sym.49
_audit_creation_date              2020-01-03
_audit_creation_method            'Materials Studio'
_symmetry_space_group_name_H-M    'P1'
_symmetry_Int_Tables_number       1
_symmetry_cell_setting            triclinic
loop_
_symmetry_equiv_pos_as_xyz
  x,y,z
_cell_length_a                    29.8304
_cell_length_b                    28.8435
_cell_length_c                    26.7179
_cell_angle_alpha                 89.9996
_cell_angle_beta                  93.1100
_cell_angle_gamma                 90.0001
loop_
_atom_site_label
_atom_site_type_symbol
_atom_site_fract_x
_atom_site_fract_y
_atom_site_fract_z
_atom_site_U_iso_or_equiv
_atom_site_adp_type
_atom_site_occupancy
C1     C     0.16405   0.24987   0.16646   0.00000  Uiso   1.00
C2     C     0.21008   0.44847   0.16365   0.00000  Uiso   1.00
C3     C     0.24989   0.25000   0.07304   0.00000  Uiso   1.00
C4     C     0.25011   0.25000   0.26030   0.00000  Uiso   1.00
C5     C     0.25000   0.02681   0.16667   0.00000  Uiso   1.00
C6     C     0.25000   0.47397   0.16667   0.00000  Uiso   1.00
C7     C     0.24996   0.25000   0.02183   0.00000  Uiso   1.00
C8     C     0.25004   0.25000   0.31150   0.00000  Uiso   1.00
C9     C     0.04419   0.27733   0.13569   0.00000  Uiso   1.00
C10    C     0.45092   0.21425   0.13704   0.00000  Uiso   1.00
C11    C     0.45581   0.27733   0.19765   0.00000  Uiso   1.00
C12    C     0.33595   0.24987   0.16687   0.00000  Uiso   1.00
C13    C     0.04908   0.21425   0.19629   0.00000  Uiso   1.00
C14    C     0.09043   0.27908   0.13584   0.00000  Uiso   1.00
C15    C     0.40459   0.21620   0.13666   0.00000  Uiso   1.00
C16    C     0.40957   0.27908   0.19750   0.00000  Uiso   1.00
C17    C     0.09541   0.21620   0.19667   0.00000  Uiso   1.00
C18    C     0.11599   0.24890   0.16672   0.00000  Uiso   1.00
C19    C     0.38401   0.24890   0.16661   0.00000  Uiso   1.00
C20    C     0.02388   0.24504   0.16599   0.00000  Uiso   1.00
C21    C     0.47612   0.24504   0.16734   0.00000  Uiso   1.00
C22    C     0.18494   0.12513   0.10133   0.00000  Uiso   1.00
C23    C     0.22085   0.10154   0.13450   0.00000  Uiso   1.00
C24    C     0.13836   0.11737   0.12104   0.00000  Uiso   1.00
C25    C     0.33095   0.37979   0.20498   0.00000  Uiso   1.00
C26    C     0.32248   0.35855   0.25623   0.00000  Uiso   1.00
C27    C     0.31506   0.12513   0.23200   0.00000  Uiso   1.00
C28    C     0.36164   0.11737   0.21229   0.00000  Uiso   1.00
C29    C     0.16905   0.37979   0.12835   0.00000  Uiso   1.00
C30    C     0.17752   0.35855   0.07710   0.00000  Uiso   1.00
C31    C     0.22309   0.01853   0.05475   0.00000  Uiso   1.00
C32    C     0.34619   0.46769   0.11994   0.00000  Uiso   1.00
C33    C     0.27691   0.01853   0.27858   0.00000  Uiso   1.00
C34    C     0.28881   0.39963   0.17859   0.00000  Uiso   1.00
C35    C     0.15381   0.46769   0.21339   0.00000  Uiso   1.00
C36    C     0.27914   0.10154   0.19883   0.00000  Uiso   1.00
C37    C     0.21118   0.39963   0.15474   0.00000  Uiso   1.00
C38    C     0.22304   0.05231   0.13158   0.00000  Uiso   1.00
C39    C     0.28992   0.44847   0.16969   0.00000  Uiso   1.00
C40    C     0.27696   0.05231   0.20176   0.00000  Uiso   1.00
H41    H     0.02421   0.30093   0.11210   0.00000  Uiso   1.00
H42    H     0.11316   0.13811   0.09860   0.00000  Uiso   1.00
H43    H     0.12864   0.08028   0.11820   0.00000  Uiso   1.00
H44    H     0.19009   0.16233   0.09796   0.00000  Uiso   1.00
H45    H     0.18554   0.11176   0.06238   0.00000  Uiso   1.00
H46    H     0.28940   0.36919   0.26967   0.00000  Uiso   1.00
H47    H     0.32473   0.32035   0.25497   0.00000  Uiso   1.00
H48    H     0.34871   0.37019   0.28462   0.00000  Uiso   1.00
H49    H     0.34949   0.35765   0.17981   0.00000  Uiso   1.00
H50    H     0.35604   0.40749   0.21345   0.00000  Uiso   1.00
H51    H     0.36214   0.12830   0.17249   0.00000  Uiso   1.00
H52    H     0.46709   0.18943   0.11349   0.00000  Uiso   1.00
H53    H     0.38684   0.13811   0.23473   0.00000  Uiso   1.00
H54    H     0.37136   0.08028   0.21513   0.00000  Uiso   1.00
H55    H     0.30991   0.16233   0.23537   0.00000  Uiso   1.00
H56    H     0.31446   0.11176   0.27095   0.00000  Uiso   1.00
H57    H     0.21060   0.36919   0.06367   0.00000  Uiso   1.00
H58    H     0.17527   0.32035   0.07837   0.00000  Uiso   1.00
H59    H     0.15130   0.37019   0.04871   0.00000  Uiso   1.00
H60    H     0.15051   0.35765   0.15352   0.00000  Uiso   1.00
H61    H     0.14396   0.40749   0.11989   0.00000  Uiso   1.00
H62    H     0.24475   0.48807   0.06381   0.00000  Uiso   1.00
H63    H     0.47579   0.30093   0.22123   0.00000  Uiso   1.00
H64    H     0.24386   0.04848   0.04349   0.00000  Uiso   1.00
H65    H     0.20045   0.00906   0.02204   0.00000  Uiso   1.00
H66    H     0.32307   0.48501   0.09173   0.00000  Uiso   1.00
H67    H     0.35138   0.43078   0.10952   0.00000  Uiso   1.00
H68    H     0.37915   0.48541   0.11927   0.00000  Uiso   1.00
H69    H     0.25524   0.48806   0.26952   0.00000  Uiso   1.00
H70    H     0.25613   0.04848   0.28985   0.00000  Uiso   1.00
H71    H     0.29954   0.00905   0.31130   0.00000  Uiso   1.00
H72    H     0.17693   0.48499   0.24160   0.00000  Uiso   1.00
H73    H     0.14861   0.43077   0.22380   0.00000  Uiso   1.00
H74    H     0.03291   0.18943   0.21985   0.00000  Uiso   1.00
H75    H     0.12085   0.48540   0.21407   0.00000  Uiso   1.00
H76    H     0.10590   0.30314   0.11115   0.00000  Uiso   1.00
H77    H     0.38485   0.19268   0.11275   0.00000  Uiso   1.00
H78    H     0.39410   0.30314   0.22219   0.00000  Uiso   1.00
H79    H     0.11515   0.19268   0.22058   0.00000  Uiso   1.00
H80    H     0.13786   0.12830   0.16084   0.00000  Uiso   1.00
N81    N     0.25000   0.12623   0.16667   0.00000  Uiso   1.00
N82    N     0.25000   0.37376   0.16667   0.00000  Uiso   1.00
O83    O     0.18453   0.28974   0.16667   0.00000  Uiso   1.00
O84    O     0.33038   0.47184   0.16848   0.00000  Uiso   1.00
O85    O     0.30341   0.02946   0.23813   0.00000  Uiso   1.00
O86    O     0.16962   0.47184   0.16485   0.00000  Uiso   1.00
O87    O     0.31547   0.21026   0.16666   0.00000  Uiso   1.00
O88    O     0.31547   0.28974   0.16666   0.00000  Uiso   1.00
O89    O     0.18453   0.21026   0.16667   0.00000  Uiso   1.00
O90    O     0.25000   0.28973   0.09511   0.00000  Uiso   1.00
O91    O     0.25000   0.21027   0.23822   0.00000  Uiso   1.00
O92    O     0.25000   0.28973   0.23822   0.00000  Uiso   1.00
O93    O     0.25000   0.21027   0.09511   0.00000  Uiso   1.00
O94    O     0.19659   0.02946   0.09520   0.00000  Uiso   1.00
Zn95   Zn    0.25000   0.30307   0.16667   0.00000  Uiso   1.00
Zn96   Zn    0.25000   0.19693   0.16667   0.00000  Uiso   1.00
C97    C     0.66405   0.24987   0.16646   0.00000  Uiso   1.00
C98    C     0.71008   0.44847   0.16365   0.00000  Uiso   1.00
C99    C     0.74989   0.25000   0.07304   0.00000  Uiso   1.00
C100   C     0.75011   0.25000   0.26030   0.00000  Uiso   1.00
C101   C     0.75000   0.02681   0.16667   0.00000  Uiso   1.00
C102   C     0.75000   0.47397   0.16667   0.00000  Uiso   1.00
C103   C     0.74996   0.25000   0.02183   0.00000  Uiso   1.00
C104   C     0.75004   0.25000   0.31150   0.00000  Uiso   1.00
C105   C     0.54419   0.27733   0.13569   0.00000  Uiso   1.00
C106   C     0.95092   0.21425   0.13704   0.00000  Uiso   1.00
C107   C     0.95581   0.27733   0.19765   0.00000  Uiso   1.00
C108   C     0.83595   0.24987   0.16687   0.00000  Uiso   1.00
C109   C     0.54908   0.21425   0.19629   0.00000  Uiso   1.00
C110   C     0.59043   0.27908   0.13584   0.00000  Uiso   1.00
C111   C     0.90459   0.21620   0.13666   0.00000  Uiso   1.00
C112   C     0.90957   0.27908   0.19750   0.00000  Uiso   1.00
C113   C     0.59541   0.21620   0.19667   0.00000  Uiso   1.00
C114   C     0.61599   0.24890   0.16672   0.00000  Uiso   1.00
C115   C     0.88401   0.24890   0.16661   0.00000  Uiso   1.00
C116   C     0.52388   0.24504   0.16599   0.00000  Uiso   1.00
C117   C     0.97612   0.24504   0.16734   0.00000  Uiso   1.00
C118   C     0.68494   0.12513   0.10133   0.00000  Uiso   1.00
C119   C     0.72085   0.10154   0.13450   0.00000  Uiso   1.00
C120   C     0.63836   0.11737   0.12104   0.00000  Uiso   1.00
C121   C     0.83095   0.37979   0.20498   0.00000  Uiso   1.00
C122   C     0.82248   0.35855   0.25623   0.00000  Uiso   1.00
C123   C     0.81506   0.12513   0.23200   0.00000  Uiso   1.00
C124   C     0.86164   0.11737   0.21229   0.00000  Uiso   1.00
C125   C     0.66905   0.37979   0.12835   0.00000  Uiso   1.00
C126   C     0.67752   0.35855   0.07710   0.00000  Uiso   1.00
C127   C     0.72309   0.01853   0.05475   0.00000  Uiso   1.00
C128   C     0.84619   0.46769   0.11994   0.00000  Uiso   1.00
C129   C     0.77691   0.01853   0.27858   0.00000  Uiso   1.00
C130   C     0.78881   0.39963   0.17859   0.00000  Uiso   1.00
C131   C     0.65381   0.46769   0.21339   0.00000  Uiso   1.00
C132   C     0.77914   0.10154   0.19883   0.00000  Uiso   1.00
C133   C     0.71118   0.39963   0.15474   0.00000  Uiso   1.00
C134   C     0.72304   0.05231   0.13158   0.00000  Uiso   1.00
C135   C     0.78992   0.44847   0.16969   0.00000  Uiso   1.00
C136   C     0.77696   0.05231   0.20176   0.00000  Uiso   1.00
H137   H     0.52421   0.30093   0.11210   0.00000  Uiso   1.00
H138   H     0.61316   0.13811   0.09860   0.00000  Uiso   1.00
H139   H     0.62864   0.08028   0.11820   0.00000  Uiso   1.00
H140   H     0.69009   0.16233   0.09796   0.00000  Uiso   1.00
H141   H     0.68554   0.11176   0.06238   0.00000  Uiso   1.00
H142   H     0.78940   0.36919   0.26967   0.00000  Uiso   1.00
H143   H     0.82473   0.32035   0.25497   0.00000  Uiso   1.00
H144   H     0.84871   0.37019   0.28462   0.00000  Uiso   1.00
H145   H     0.84949   0.35765   0.17981   0.00000  Uiso   1.00
H146   H     0.85604   0.40749   0.21345   0.00000  Uiso   1.00
H147   H     0.86214   0.12830   0.17249   0.00000  Uiso   1.00
H148   H     0.96709   0.18943   0.11349   0.00000  Uiso   1.00
H149   H     0.88684   0.13811   0.23473   0.00000  Uiso   1.00
H150   H     0.87136   0.08028   0.21513   0.00000  Uiso   1.00
H151   H     0.80991   0.16233   0.23537   0.00000  Uiso   1.00
H152   H     0.81446   0.11176   0.27095   0.00000  Uiso   1.00
H153   H     0.71060   0.36919   0.06367   0.00000  Uiso   1.00
H154   H     0.67527   0.32035   0.07837   0.00000  Uiso   1.00
H155   H     0.65130   0.37019   0.04871   0.00000  Uiso   1.00
H156   H     0.65051   0.35765   0.15352   0.00000  Uiso   1.00
H157   H     0.64396   0.40749   0.11989   0.00000  Uiso   1.00
H158   H     0.74475   0.48807   0.06381   0.00000  Uiso   1.00
H159   H     0.97579   0.30093   0.22123   0.00000  Uiso   1.00
H160   H     0.74386   0.04848   0.04349   0.00000  Uiso   1.00
H161   H     0.70045   0.00906   0.02204   0.00000  Uiso   1.00
H162   H     0.82307   0.48501   0.09173   0.00000  Uiso   1.00
H163   H     0.85138   0.43078   0.10952   0.00000  Uiso   1.00
H164   H     0.87915   0.48541   0.11927   0.00000  Uiso   1.00
H165   H     0.75524   0.48806   0.26952   0.00000  Uiso   1.00
H166   H     0.75613   0.04848   0.28985   0.00000  Uiso   1.00
H167   H     0.79954   0.00905   0.31130   0.00000  Uiso   1.00
H168   H     0.67693   0.48499   0.24160   0.00000  Uiso   1.00
H169   H     0.64861   0.43077   0.22380   0.00000  Uiso   1.00
H170   H     0.53291   0.18943   0.21985   0.00000  Uiso   1.00
H171   H     0.62085   0.48540   0.21407   0.00000  Uiso   1.00
H172   H     0.60590   0.30314   0.11115   0.00000  Uiso   1.00
H173   H     0.88485   0.19268   0.11275   0.00000  Uiso   1.00
H174   H     0.89410   0.30314   0.22219   0.00000  Uiso   1.00
H175   H     0.61515   0.19268   0.22058   0.00000  Uiso   1.00
H176   H     0.63786   0.12830   0.16084   0.00000  Uiso   1.00
N177   N     0.75000   0.12623   0.16667   0.00000  Uiso   1.00
N178   N     0.75000   0.37376   0.16667   0.00000  Uiso   1.00
O179   O     0.68453   0.28974   0.16667   0.00000  Uiso   1.00
O180   O     0.83038   0.47184   0.16848   0.00000  Uiso   1.00
O181   O     0.80341   0.02946   0.23813   0.00000  Uiso   1.00
O182   O     0.66962   0.47184   0.16485   0.00000  Uiso   1.00
O183   O     0.81547   0.21026   0.16666   0.00000  Uiso   1.00
O184   O     0.81547   0.28974   0.16666   0.00000  Uiso   1.00
O185   O     0.68453   0.21026   0.16667   0.00000  Uiso   1.00
O186   O     0.75000   0.28973   0.09511   0.00000  Uiso   1.00
O187   O     0.75000   0.21027   0.23822   0.00000  Uiso   1.00
O188   O     0.75000   0.28973   0.23822   0.00000  Uiso   1.00
O189   O     0.75000   0.21027   0.09511   0.00000  Uiso   1.00
O190   O     0.69659   0.02946   0.09520   0.00000  Uiso   1.00
Zn191  Zn    0.75000   0.30307   0.16667   0.00000  Uiso   1.00
Zn192  Zn    0.75000   0.19693   0.16667   0.00000  Uiso   1.00
C193   C     0.16405   0.74987   0.16646   0.00000  Uiso   1.00
C194   C     0.21008   0.94847   0.16365   0.00000  Uiso   1.00
C195   C     0.24989   0.75000   0.07304   0.00000  Uiso   1.00
C196   C     0.25011   0.75000   0.26030   0.00000  Uiso   1.00
C197   C     0.25000   0.52681   0.16667   0.00000  Uiso   1.00
C198   C     0.25000   0.97397   0.16667   0.00000  Uiso   1.00
C199   C     0.24996   0.75000   0.02183   0.00000  Uiso   1.00
C200   C     0.25004   0.75000   0.31150   0.00000  Uiso   1.00
C201   C     0.04419   0.77733   0.13569   0.00000  Uiso   1.00
C202   C     0.45092   0.71425   0.13704   0.00000  Uiso   1.00
C203   C     0.45581   0.77733   0.19765   0.00000  Uiso   1.00
C204   C     0.33595   0.74987   0.16687   0.00000  Uiso   1.00
C205   C     0.04908   0.71425   0.19629   0.00000  Uiso   1.00
C206   C     0.09043   0.77908   0.13584   0.00000  Uiso   1.00
C207   C     0.40459   0.71620   0.13666   0.00000  Uiso   1.00
C208   C     0.40957   0.77908   0.19750   0.00000  Uiso   1.00
C209   C     0.09541   0.71620   0.19667   0.00000  Uiso   1.00
C210   C     0.11599   0.74890   0.16672   0.00000  Uiso   1.00
C211   C     0.38401   0.74890   0.16661   0.00000  Uiso   1.00
C212   C     0.02388   0.74504   0.16599   0.00000  Uiso   1.00
C213   C     0.47612   0.74504   0.16734   0.00000  Uiso   1.00
C214   C     0.18494   0.62513   0.10133   0.00000  Uiso   1.00
C215   C     0.22085   0.60154   0.13450   0.00000  Uiso   1.00
C216   C     0.13836   0.61737   0.12104   0.00000  Uiso   1.00
C217   C     0.33095   0.87979   0.20498   0.00000  Uiso   1.00
C218   C     0.32248   0.85855   0.25623   0.00000  Uiso   1.00
C219   C     0.31506   0.62513   0.23200   0.00000  Uiso   1.00
C220   C     0.36164   0.61737   0.21229   0.00000  Uiso   1.00
C221   C     0.16905   0.87979   0.12835   0.00000  Uiso   1.00
C222   C     0.17752   0.85855   0.07710   0.00000  Uiso   1.00
C223   C     0.22309   0.51853   0.05475   0.00000  Uiso   1.00
C224   C     0.34619   0.96769   0.11994   0.00000  Uiso   1.00
C225   C     0.27691   0.51853   0.27858   0.00000  Uiso   1.00
C226   C     0.28881   0.89963   0.17859   0.00000  Uiso   1.00
C227   C     0.15381   0.96769   0.21339   0.00000  Uiso   1.00
C228   C     0.27914   0.60154   0.19883   0.00000  Uiso   1.00
C229   C     0.21118   0.89963   0.15474   0.00000  Uiso   1.00
C230   C     0.22304   0.55231   0.13158   0.00000  Uiso   1.00
C231   C     0.28992   0.94847   0.16969   0.00000  Uiso   1.00
C232   C     0.27696   0.55231   0.20176   0.00000  Uiso   1.00
H233   H     0.02421   0.80093   0.11210   0.00000  Uiso   1.00
H234   H     0.11316   0.63811   0.09860   0.00000  Uiso   1.00
H235   H     0.12864   0.58028   0.11820   0.00000  Uiso   1.00
H236   H     0.19009   0.66233   0.09796   0.00000  Uiso   1.00
H237   H     0.18554   0.61176   0.06238   0.00000  Uiso   1.00
H238   H     0.28940   0.86919   0.26967   0.00000  Uiso   1.00
H239   H     0.32473   0.82035   0.25497   0.00000  Uiso   1.00
H240   H     0.34871   0.87019   0.28462   0.00000  Uiso   1.00
H241   H     0.34949   0.85765   0.17981   0.00000  Uiso   1.00
H242   H     0.35604   0.90749   0.21345   0.00000  Uiso   1.00
H243   H     0.36214   0.62830   0.17249   0.00000  Uiso   1.00
H244   H     0.46709   0.68943   0.11349   0.00000  Uiso   1.00
H245   H     0.38684   0.63811   0.23473   0.00000  Uiso   1.00
H246   H     0.37136   0.58028   0.21513   0.00000  Uiso   1.00
H247   H     0.30991   0.66233   0.23537   0.00000  Uiso   1.00
H248   H     0.31446   0.61176   0.27095   0.00000  Uiso   1.00
H249   H     0.21060   0.86919   0.06367   0.00000  Uiso   1.00
H250   H     0.17527   0.82035   0.07837   0.00000  Uiso   1.00
H251   H     0.15130   0.87019   0.04871   0.00000  Uiso   1.00
H252   H     0.15051   0.85765   0.15352   0.00000  Uiso   1.00
H253   H     0.14396   0.90749   0.11989   0.00000  Uiso   1.00
H254   H     0.24475   0.98807   0.06381   0.00000  Uiso   1.00
H255   H     0.47579   0.80093   0.22123   0.00000  Uiso   1.00
H256   H     0.24386   0.54848   0.04349   0.00000  Uiso   1.00
H257   H     0.20045   0.50906   0.02204   0.00000  Uiso   1.00
H258   H     0.32307   0.98501   0.09173   0.00000  Uiso   1.00
H259   H     0.35138   0.93078   0.10952   0.00000  Uiso   1.00
H260   H     0.37915   0.98541   0.11927   0.00000  Uiso   1.00
H261   H     0.25524   0.98806   0.26952   0.00000  Uiso   1.00
H262   H     0.25613   0.54848   0.28985   0.00000  Uiso   1.00
H263   H     0.29954   0.50905   0.31130   0.00000  Uiso   1.00
H264   H     0.17693   0.98499   0.24160   0.00000  Uiso   1.00
H265   H     0.14861   0.93077   0.22380   0.00000  Uiso   1.00
H266   H     0.03291   0.68943   0.21985   0.00000  Uiso   1.00
H267   H     0.12085   0.98540   0.21407   0.00000  Uiso   1.00
H268   H     0.10590   0.80314   0.11115   0.00000  Uiso   1.00
H269   H     0.38485   0.69268   0.11275   0.00000  Uiso   1.00
H270   H     0.39410   0.80314   0.22219   0.00000  Uiso   1.00
H271   H     0.11515   0.69268   0.22058   0.00000  Uiso   1.00
H272   H     0.13786   0.62830   0.16084   0.00000  Uiso   1.00
N273   N     0.25000   0.62623   0.16667   0.00000  Uiso   1.00
N274   N     0.25000   0.87376   0.16667   0.00000  Uiso   1.00
O275   O     0.18453   0.78974   0.16667   0.00000  Uiso   1.00
O276   O     0.33038   0.97184   0.16848   0.00000  Uiso   1.00
O277   O     0.30341   0.52946   0.23813   0.00000  Uiso   1.00
O278   O     0.16962   0.97184   0.16485   0.00000  Uiso   1.00
O279   O     0.31547   0.71026   0.16666   0.00000  Uiso   1.00
O280   O     0.31547   0.78974   0.16666   0.00000  Uiso   1.00
O281   O     0.18453   0.71026   0.16667   0.00000  Uiso   1.00
O282   O     0.25000   0.78973   0.09511   0.00000  Uiso   1.00
O283   O     0.25000   0.71027   0.23822   0.00000  Uiso   1.00
O284   O     0.25000   0.78973   0.23822   0.00000  Uiso   1.00
O285   O     0.25000   0.71027   0.09511   0.00000  Uiso   1.00
O286   O     0.19659   0.52946   0.09520   0.00000  Uiso   1.00
Zn287  Zn    0.25000   0.80307   0.16667   0.00000  Uiso   1.00
Zn288  Zn    0.25000   0.69693   0.16667   0.00000  Uiso   1.00
C289   C     0.66405   0.74987   0.16646   0.00000  Uiso   1.00
C290   C     0.71008   0.94847   0.16365   0.00000  Uiso   1.00
C291   C     0.74989   0.75000   0.07304   0.00000  Uiso   1.00
C292   C     0.75011   0.75000   0.26030   0.00000  Uiso   1.00
C293   C     0.75000   0.52681   0.16667   0.00000  Uiso   1.00
C294   C     0.75000   0.97397   0.16667   0.00000  Uiso   1.00
C295   C     0.74996   0.75000   0.02183   0.00000  Uiso   1.00
C296   C     0.75004   0.75000   0.31150   0.00000  Uiso   1.00
C297   C     0.54419   0.77733   0.13569   0.00000  Uiso   1.00
C298   C     0.95092   0.71425   0.13704   0.00000  Uiso   1.00
C299   C     0.95581   0.77733   0.19765   0.00000  Uiso   1.00
C300   C     0.83595   0.74987   0.16687   0.00000  Uiso   1.00
C301   C     0.54908   0.71425   0.19629   0.00000  Uiso   1.00
C302   C     0.59043   0.77908   0.13584   0.00000  Uiso   1.00
C303   C     0.90459   0.71620   0.13666   0.00000  Uiso   1.00
C304   C     0.90957   0.77908   0.19750   0.00000  Uiso   1.00
C305   C     0.59541   0.71620   0.19667   0.00000  Uiso   1.00
C306   C     0.61599   0.74890   0.16672   0.00000  Uiso   1.00
C307   C     0.88401   0.74890   0.16661   0.00000  Uiso   1.00
C308   C     0.52388   0.74504   0.16599   0.00000  Uiso   1.00
C309   C     0.97612   0.74504   0.16734   0.00000  Uiso   1.00
C310   C     0.68494   0.62513   0.10133   0.00000  Uiso   1.00
C311   C     0.72085   0.60154   0.13450   0.00000  Uiso   1.00
C312   C     0.63836   0.61737   0.12104   0.00000  Uiso   1.00
C313   C     0.83095   0.87979   0.20498   0.00000  Uiso   1.00
C314   C     0.82248   0.85855   0.25623   0.00000  Uiso   1.00
C315   C     0.81506   0.62513   0.23200   0.00000  Uiso   1.00
C316   C     0.86164   0.61737   0.21229   0.00000  Uiso   1.00
C317   C     0.66905   0.87979   0.12835   0.00000  Uiso   1.00
C318   C     0.67752   0.85855   0.07710   0.00000  Uiso   1.00
C319   C     0.72309   0.51853   0.05475   0.00000  Uiso   1.00
C320   C     0.84619   0.96769   0.11994   0.00000  Uiso   1.00
C321   C     0.77691   0.51853   0.27858   0.00000  Uiso   1.00
C322   C     0.78881   0.89963   0.17859   0.00000  Uiso   1.00
C323   C     0.65381   0.96769   0.21339   0.00000  Uiso   1.00
C324   C     0.77914   0.60154   0.19883   0.00000  Uiso   1.00
C325   C     0.71118   0.89963   0.15474   0.00000  Uiso   1.00
C326   C     0.72304   0.55231   0.13158   0.00000  Uiso   1.00
C327   C     0.78992   0.94847   0.16969   0.00000  Uiso   1.00
C328   C     0.77696   0.55231   0.20176   0.00000  Uiso   1.00
H329   H     0.52421   0.80093   0.11210   0.00000  Uiso   1.00
H330   H     0.61316   0.63811   0.09860   0.00000  Uiso   1.00
H331   H     0.62864   0.58028   0.11820   0.00000  Uiso   1.00
H332   H     0.69009   0.66233   0.09796   0.00000  Uiso   1.00
H333   H     0.68554   0.61176   0.06238   0.00000  Uiso   1.00
H334   H     0.78940   0.86919   0.26967   0.00000  Uiso   1.00
H335   H     0.82473   0.82035   0.25497   0.00000  Uiso   1.00
H336   H     0.84871   0.87019   0.28462   0.00000  Uiso   1.00
H337   H     0.84949   0.85765   0.17981   0.00000  Uiso   1.00
H338   H     0.85604   0.90749   0.21345   0.00000  Uiso   1.00
H339   H     0.86214   0.62830   0.17249   0.00000  Uiso   1.00
H340   H     0.96709   0.68943   0.11349   0.00000  Uiso   1.00
H341   H     0.88684   0.63811   0.23473   0.00000  Uiso   1.00
H342   H     0.87136   0.58028   0.21513   0.00000  Uiso   1.00
H343   H     0.80991   0.66233   0.23537   0.00000  Uiso   1.00
H344   H     0.81446   0.61176   0.27095   0.00000  Uiso   1.00
H345   H     0.71060   0.86919   0.06367   0.00000  Uiso   1.00
H346   H     0.67527   0.82035   0.07837   0.00000  Uiso   1.00
H347   H     0.65130   0.87019   0.04871   0.00000  Uiso   1.00
H348   H     0.65051   0.85765   0.15352   0.00000  Uiso   1.00
H349   H     0.64396   0.90749   0.11989   0.00000  Uiso   1.00
H350   H     0.74475   0.98807   0.06381   0.00000  Uiso   1.00
H351   H     0.97579   0.80093   0.22123   0.00000  Uiso   1.00
H352   H     0.74386   0.54848   0.04349   0.00000  Uiso   1.00
H353   H     0.70045   0.50906   0.02204   0.00000  Uiso   1.00
H354   H     0.82307   0.98501   0.09173   0.00000  Uiso   1.00
H355   H     0.85138   0.93078   0.10952   0.00000  Uiso   1.00
H356   H     0.87915   0.98541   0.11927   0.00000  Uiso   1.00
H357   H     0.75524   0.98806   0.26952   0.00000  Uiso   1.00
H358   H     0.75613   0.54848   0.28985   0.00000  Uiso   1.00
H359   H     0.79954   0.50905   0.31130   0.00000  Uiso   1.00
H360   H     0.67693   0.98499   0.24160   0.00000  Uiso   1.00
H361   H     0.64861   0.93077   0.22380   0.00000  Uiso   1.00
H362   H     0.53291   0.68943   0.21985   0.00000  Uiso   1.00
H363   H     0.62085   0.98540   0.21407   0.00000  Uiso   1.00
H364   H     0.60590   0.80314   0.11115   0.00000  Uiso   1.00
H365   H     0.88485   0.69268   0.11275   0.00000  Uiso   1.00
H366   H     0.89410   0.80314   0.22219   0.00000  Uiso   1.00
H367   H     0.61515   0.69268   0.22058   0.00000  Uiso   1.00
H368   H     0.63786   0.62830   0.16084   0.00000  Uiso   1.00
N369   N     0.75000   0.62623   0.16667   0.00000  Uiso   1.00
N370   N     0.75000   0.87376   0.16667   0.00000  Uiso   1.00
O371   O     0.68453   0.78974   0.16667   0.00000  Uiso   1.00
O372   O     0.83038   0.97184   0.16848   0.00000  Uiso   1.00
O373   O     0.80341   0.52946   0.23813   0.00000  Uiso   1.00
O374   O     0.66962   0.97184   0.16485   0.00000  Uiso   1.00
O375   O     0.81547   0.71026   0.16666   0.00000  Uiso   1.00
O376   O     0.81547   0.78974   0.16666   0.00000  Uiso   1.00
O377   O     0.68453   0.71026   0.16667   0.00000  Uiso   1.00
O378   O     0.75000   0.78973   0.09511   0.00000  Uiso   1.00
O379   O     0.75000   0.71027   0.23822   0.00000  Uiso   1.00
O380   O     0.75000   0.78973   0.23822   0.00000  Uiso   1.00
O381   O     0.75000   0.71027   0.09511   0.00000  Uiso   1.00
O382   O     0.69659   0.52946   0.09520   0.00000  Uiso   1.00
Zn383  Zn    0.75000   0.80307   0.16667   0.00000  Uiso   1.00
Zn384  Zn    0.75000   0.69693   0.16667   0.00000  Uiso   1.00
C385   C     0.16405   0.24987   0.49979   0.00000  Uiso   1.00
C386   C     0.21008   0.44847   0.49698   0.00000  Uiso   1.00
C387   C     0.24989   0.25000   0.40637   0.00000  Uiso   1.00
C388   C     0.25011   0.25000   0.59363   0.00000  Uiso   1.00
C389   C     0.25000   0.02681   0.50000   0.00000  Uiso   1.00
C390   C     0.25000   0.47397   0.50000   0.00000  Uiso   1.00
C391   C     0.24996   0.25000   0.35516   0.00000  Uiso   1.00
C392   C     0.25004   0.25000   0.64484   0.00000  Uiso   1.00
C393   C     0.04419   0.27733   0.46902   0.00000  Uiso   1.00
C394   C     0.45092   0.21425   0.47038   0.00000  Uiso   1.00
C395   C     0.45581   0.27733   0.53098   0.00000  Uiso   1.00
C396   C     0.33595   0.24987   0.50021   0.00000  Uiso   1.00
C397   C     0.04908   0.21425   0.52962   0.00000  Uiso   1.00
C398   C     0.09043   0.27908   0.46917   0.00000  Uiso   1.00
C399   C     0.40459   0.21620   0.46999   0.00000  Uiso   1.00
C400   C     0.40957   0.27908   0.53083   0.00000  Uiso   1.00
C401   C     0.09541   0.21620   0.53001   0.00000  Uiso   1.00
C402   C     0.11599   0.24890   0.50006   0.00000  Uiso   1.00
C403   C     0.38401   0.24890   0.49994   0.00000  Uiso   1.00
C404   C     0.02388   0.24504   0.49932   0.00000  Uiso   1.00
C405   C     0.47612   0.24504   0.50068   0.00000  Uiso   1.00
C406   C     0.18494   0.12513   0.43466   0.00000  Uiso   1.00
C407   C     0.22085   0.10154   0.46783   0.00000  Uiso   1.00
C408   C     0.13836   0.11737   0.45437   0.00000  Uiso   1.00
C409   C     0.33095   0.37979   0.53831   0.00000  Uiso   1.00
C410   C     0.32248   0.35855   0.58957   0.00000  Uiso   1.00
C411   C     0.31506   0.12513   0.56534   0.00000  Uiso   1.00
C412   C     0.36164   0.11737   0.54563   0.00000  Uiso   1.00
C413   C     0.16905   0.37979   0.46168   0.00000  Uiso   1.00
C414   C     0.17752   0.35855   0.41043   0.00000  Uiso   1.00
C415   C     0.22309   0.01853   0.38808   0.00000  Uiso   1.00
C416   C     0.34619   0.46769   0.45328   0.00000  Uiso   1.00
C417   C     0.27691   0.01853   0.61192   0.00000  Uiso   1.00
C418   C     0.28881   0.39963   0.51193   0.00000  Uiso   1.00
C419   C     0.15381   0.46769   0.54672   0.00000  Uiso   1.00
C420   C     0.27914   0.10154   0.53217   0.00000  Uiso   1.00
C421   C     0.21118   0.39963   0.48807   0.00000  Uiso   1.00
C422   C     0.22304   0.05231   0.46491   0.00000  Uiso   1.00
C423   C     0.28992   0.44847   0.50302   0.00000  Uiso   1.00
C424   C     0.27696   0.05231   0.53509   0.00000  Uiso   1.00
H425   H     0.02421   0.30093   0.44544   0.00000  Uiso   1.00
H426   H     0.11316   0.13811   0.43194   0.00000  Uiso   1.00
H427   H     0.12864   0.08028   0.45153   0.00000  Uiso   1.00
H428   H     0.19009   0.16233   0.43129   0.00000  Uiso   1.00
H429   H     0.18554   0.11176   0.39572   0.00000  Uiso   1.00
H430   H     0.28940   0.36919   0.60300   0.00000  Uiso   1.00
H431   H     0.32473   0.32035   0.58830   0.00000  Uiso   1.00
H432   H     0.34871   0.37019   0.61795   0.00000  Uiso   1.00
H433   H     0.34949   0.35765   0.51315   0.00000  Uiso   1.00
H434   H     0.35604   0.40749   0.54678   0.00000  Uiso   1.00
H435   H     0.36214   0.12830   0.50583   0.00000  Uiso   1.00
H436   H     0.46709   0.18943   0.44682   0.00000  Uiso   1.00
H437   H     0.38684   0.13811   0.56806   0.00000  Uiso   1.00
H438   H     0.37136   0.08028   0.54847   0.00000  Uiso   1.00
H439   H     0.30991   0.16233   0.56871   0.00000  Uiso   1.00
H440   H     0.31446   0.11176   0.60428   0.00000  Uiso   1.00
H441   H     0.21060   0.36919   0.39700   0.00000  Uiso   1.00
H442   H     0.17527   0.32035   0.41170   0.00000  Uiso   1.00
H443   H     0.15130   0.37019   0.38205   0.00000  Uiso   1.00
H444   H     0.15051   0.35765   0.48685   0.00000  Uiso   1.00
H445   H     0.14396   0.40749   0.45322   0.00000  Uiso   1.00
H446   H     0.24475   0.48807   0.39715   0.00000  Uiso   1.00
H447   H     0.47579   0.30093   0.55456   0.00000  Uiso   1.00
H448   H     0.24386   0.04848   0.37682   0.00000  Uiso   1.00
H449   H     0.20045   0.00906   0.35537   0.00000  Uiso   1.00
H450   H     0.32307   0.48501   0.42507   0.00000  Uiso   1.00
H451   H     0.35138   0.43078   0.44286   0.00000  Uiso   1.00
H452   H     0.37915   0.48541   0.45260   0.00000  Uiso   1.00
H453   H     0.25524   0.48806   0.60285   0.00000  Uiso   1.00
H454   H     0.25613   0.04848   0.62318   0.00000  Uiso   1.00
H455   H     0.29954   0.00905   0.64463   0.00000  Uiso   1.00
H456   H     0.17693   0.48499   0.57494   0.00000  Uiso   1.00
H457   H     0.14861   0.43077   0.55713   0.00000  Uiso   1.00
H458   H     0.03291   0.18943   0.55318   0.00000  Uiso   1.00
H459   H     0.12085   0.48540   0.54740   0.00000  Uiso   1.00
H460   H     0.10590   0.30314   0.44448   0.00000  Uiso   1.00
H461   H     0.38485   0.19268   0.44609   0.00000  Uiso   1.00
H462   H     0.39410   0.30314   0.55552   0.00000  Uiso   1.00
H463   H     0.11515   0.19268   0.55391   0.00000  Uiso   1.00
H464   H     0.13786   0.12830   0.49417   0.00000  Uiso   1.00
N465   N     0.25000   0.12623   0.50000   0.00000  Uiso   1.00
N466   N     0.25000   0.37376   0.50000   0.00000  Uiso   1.00
O467   O     0.18453   0.28974   0.50000   0.00000  Uiso   1.00
O468   O     0.33038   0.47184   0.50182   0.00000  Uiso   1.00
O469   O     0.30341   0.02946   0.57146   0.00000  Uiso   1.00
O470   O     0.16962   0.47184   0.49819   0.00000  Uiso   1.00
O471   O     0.31547   0.21026   0.50000   0.00000  Uiso   1.00
O472   O     0.31547   0.28974   0.50000   0.00000  Uiso   1.00
O473   O     0.18453   0.21026   0.50000   0.00000  Uiso   1.00
O474   O     0.25000   0.28973   0.42845   0.00000  Uiso   1.00
O475   O     0.25000   0.21027   0.57155   0.00000  Uiso   1.00
O476   O     0.25000   0.28973   0.57155   0.00000  Uiso   1.00
O477   O     0.25000   0.21027   0.42845   0.00000  Uiso   1.00
O478   O     0.19659   0.02946   0.42854   0.00000  Uiso   1.00
Zn479  Zn    0.25000   0.30307   0.50000   0.00000  Uiso   1.00
Zn480  Zn    0.25000   0.19693   0.50000   0.00000  Uiso   1.00
C481   C     0.66405   0.24987   0.49979   0.00000  Uiso   1.00
C482   C     0.71008   0.44847   0.49698   0.00000  Uiso   1.00
C483   C     0.74989   0.25000   0.40637   0.00000  Uiso   1.00
C484   C     0.75011   0.25000   0.59363   0.00000  Uiso   1.00
C485   C     0.75000   0.02681   0.50000   0.00000  Uiso   1.00
C486   C     0.75000   0.47397   0.50000   0.00000  Uiso   1.00
C487   C     0.74996   0.25000   0.35516   0.00000  Uiso   1.00
C488   C     0.75004   0.25000   0.64484   0.00000  Uiso   1.00
C489   C     0.54419   0.27733   0.46902   0.00000  Uiso   1.00
C490   C     0.95092   0.21425   0.47038   0.00000  Uiso   1.00
C491   C     0.95581   0.27733   0.53098   0.00000  Uiso   1.00
C492   C     0.83595   0.24987   0.50021   0.00000  Uiso   1.00
C493   C     0.54908   0.21425   0.52962   0.00000  Uiso   1.00
C494   C     0.59043   0.27908   0.46917   0.00000  Uiso   1.00
C495   C     0.90459   0.21620   0.46999   0.00000  Uiso   1.00
C496   C     0.90957   0.27908   0.53083   0.00000  Uiso   1.00
C497   C     0.59541   0.21620   0.53001   0.00000  Uiso   1.00
C498   C     0.61599   0.24890   0.50006   0.00000  Uiso   1.00
C499   C     0.88401   0.24890   0.49994   0.00000  Uiso   1.00
C500   C     0.52388   0.24504   0.49932   0.00000  Uiso   1.00
C501   C     0.97612   0.24504   0.50068   0.00000  Uiso   1.00
C502   C     0.68494   0.12513   0.43466   0.00000  Uiso   1.00
C503   C     0.72085   0.10154   0.46783   0.00000  Uiso   1.00
C504   C     0.63836   0.11737   0.45437   0.00000  Uiso   1.00
C505   C     0.83095   0.37979   0.53831   0.00000  Uiso   1.00
C506   C     0.82248   0.35855   0.58957   0.00000  Uiso   1.00
C507   C     0.81506   0.12513   0.56534   0.00000  Uiso   1.00
C508   C     0.86164   0.11737   0.54563   0.00000  Uiso   1.00
C509   C     0.66905   0.37979   0.46168   0.00000  Uiso   1.00
C510   C     0.67752   0.35855   0.41043   0.00000  Uiso   1.00
C511   C     0.72309   0.01853   0.38808   0.00000  Uiso   1.00
C512   C     0.84619   0.46769   0.45328   0.00000  Uiso   1.00
C513   C     0.77691   0.01853   0.61192   0.00000  Uiso   1.00
C514   C     0.78881   0.39963   0.51193   0.00000  Uiso   1.00
C515   C     0.65381   0.46769   0.54672   0.00000  Uiso   1.00
C516   C     0.77914   0.10154   0.53217   0.00000  Uiso   1.00
C517   C     0.71118   0.39963   0.48807   0.00000  Uiso   1.00
C518   C     0.72304   0.05231   0.46491   0.00000  Uiso   1.00
C519   C     0.78992   0.44847   0.50302   0.00000  Uiso   1.00
C520   C     0.77696   0.05231   0.53509   0.00000  Uiso   1.00
H521   H     0.52421   0.30093   0.44544   0.00000  Uiso   1.00
H522   H     0.61316   0.13811   0.43194   0.00000  Uiso   1.00
H523   H     0.62864   0.08028   0.45153   0.00000  Uiso   1.00
H524   H     0.69009   0.16233   0.43129   0.00000  Uiso   1.00
H525   H     0.68554   0.11176   0.39572   0.00000  Uiso   1.00
H526   H     0.78940   0.36919   0.60300   0.00000  Uiso   1.00
H527   H     0.82473   0.32035   0.58830   0.00000  Uiso   1.00
H528   H     0.84871   0.37019   0.61795   0.00000  Uiso   1.00
H529   H     0.84949   0.35765   0.51315   0.00000  Uiso   1.00
H530   H     0.85604   0.40749   0.54678   0.00000  Uiso   1.00
H531   H     0.86214   0.12830   0.50583   0.00000  Uiso   1.00
H532   H     0.96709   0.18943   0.44682   0.00000  Uiso   1.00
H533   H     0.88684   0.13811   0.56806   0.00000  Uiso   1.00
H534   H     0.87136   0.08028   0.54847   0.00000  Uiso   1.00
H535   H     0.80991   0.16233   0.56871   0.00000  Uiso   1.00
H536   H     0.81446   0.11176   0.60428   0.00000  Uiso   1.00
H537   H     0.71060   0.36919   0.39700   0.00000  Uiso   1.00
H538   H     0.67527   0.32035   0.41170   0.00000  Uiso   1.00
H539   H     0.65130   0.37019   0.38205   0.00000  Uiso   1.00
H540   H     0.65051   0.35765   0.48685   0.00000  Uiso   1.00
H541   H     0.64396   0.40749   0.45322   0.00000  Uiso   1.00
H542   H     0.74475   0.48807   0.39715   0.00000  Uiso   1.00
H543   H     0.97579   0.30093   0.55456   0.00000  Uiso   1.00
H544   H     0.74386   0.04848   0.37682   0.00000  Uiso   1.00
H545   H     0.70045   0.00906   0.35537   0.00000  Uiso   1.00
H546   H     0.82307   0.48501   0.42507   0.00000  Uiso   1.00
H547   H     0.85138   0.43078   0.44286   0.00000  Uiso   1.00
H548   H     0.87915   0.48541   0.45260   0.00000  Uiso   1.00
H549   H     0.75524   0.48806   0.60285   0.00000  Uiso   1.00
H550   H     0.75613   0.04848   0.62318   0.00000  Uiso   1.00
H551   H     0.79954   0.00905   0.64463   0.00000  Uiso   1.00
H552   H     0.67693   0.48499   0.57494   0.00000  Uiso   1.00
H553   H     0.64861   0.43077   0.55713   0.00000  Uiso   1.00
H554   H     0.53291   0.18943   0.55318   0.00000  Uiso   1.00
H555   H     0.62085   0.48540   0.54740   0.00000  Uiso   1.00
H556   H     0.60590   0.30314   0.44448   0.00000  Uiso   1.00
H557   H     0.88485   0.19268   0.44609   0.00000  Uiso   1.00
H558   H     0.89410   0.30314   0.55552   0.00000  Uiso   1.00
H559   H     0.61515   0.19268   0.55391   0.00000  Uiso   1.00
H560   H     0.63786   0.12830   0.49417   0.00000  Uiso   1.00
N561   N     0.75000   0.12623   0.50000   0.00000  Uiso   1.00
N562   N     0.75000   0.37376   0.50000   0.00000  Uiso   1.00
O563   O     0.68453   0.28974   0.50000   0.00000  Uiso   1.00
O564   O     0.83038   0.47184   0.50182   0.00000  Uiso   1.00
O565   O     0.80341   0.02946   0.57146   0.00000  Uiso   1.00
O566   O     0.66962   0.47184   0.49819   0.00000  Uiso   1.00
O567   O     0.81547   0.21026   0.50000   0.00000  Uiso   1.00
O568   O     0.81547   0.28974   0.50000   0.00000  Uiso   1.00
O569   O     0.68453   0.21026   0.50000   0.00000  Uiso   1.00
O570   O     0.75000   0.28973   0.42845   0.00000  Uiso   1.00
O571   O     0.75000   0.21027   0.57155   0.00000  Uiso   1.00
O572   O     0.75000   0.28973   0.57155   0.00000  Uiso   1.00
O573   O     0.75000   0.21027   0.42845   0.00000  Uiso   1.00
O574   O     0.69659   0.02946   0.42854   0.00000  Uiso   1.00
Zn575  Zn    0.75000   0.30307   0.50000   0.00000  Uiso   1.00
Zn576  Zn    0.75000   0.19693   0.50000   0.00000  Uiso   1.00
C577   C     0.16405   0.74987   0.49979   0.00000  Uiso   1.00
C578   C     0.21008   0.94847   0.49698   0.00000  Uiso   1.00
C579   C     0.24989   0.75000   0.40637   0.00000  Uiso   1.00
C580   C     0.25011   0.75000   0.59363   0.00000  Uiso   1.00
C581   C     0.25000   0.52681   0.50000   0.00000  Uiso   1.00
C582   C     0.25000   0.97397   0.50000   0.00000  Uiso   1.00
C583   C     0.24996   0.75000   0.35516   0.00000  Uiso   1.00
C584   C     0.25004   0.75000   0.64484   0.00000  Uiso   1.00
C585   C     0.04419   0.77733   0.46902   0.00000  Uiso   1.00
C586   C     0.45092   0.71425   0.47038   0.00000  Uiso   1.00
C587   C     0.45581   0.77733   0.53098   0.00000  Uiso   1.00
C588   C     0.33595   0.74987   0.50021   0.00000  Uiso   1.00
C589   C     0.04908   0.71425   0.52962   0.00000  Uiso   1.00
C590   C     0.09043   0.77908   0.46917   0.00000  Uiso   1.00
C591   C     0.40459   0.71620   0.46999   0.00000  Uiso   1.00
C592   C     0.40957   0.77908   0.53083   0.00000  Uiso   1.00
C593   C     0.09541   0.71620   0.53001   0.00000  Uiso   1.00
C594   C     0.11599   0.74890   0.50006   0.00000  Uiso   1.00
C595   C     0.38401   0.74890   0.49994   0.00000  Uiso   1.00
C596   C     0.02388   0.74504   0.49932   0.00000  Uiso   1.00
C597   C     0.47612   0.74504   0.50068   0.00000  Uiso   1.00
C598   C     0.18494   0.62513   0.43466   0.00000  Uiso   1.00
C599   C     0.22085   0.60154   0.46783   0.00000  Uiso   1.00
C600   C     0.13836   0.61737   0.45437   0.00000  Uiso   1.00
C601   C     0.33095   0.87979   0.53831   0.00000  Uiso   1.00
C602   C     0.32248   0.85855   0.58957   0.00000  Uiso   1.00
C603   C     0.31506   0.62513   0.56534   0.00000  Uiso   1.00
C604   C     0.36164   0.61737   0.54563   0.00000  Uiso   1.00
C605   C     0.16905   0.87979   0.46168   0.00000  Uiso   1.00
C606   C     0.17752   0.85855   0.41043   0.00000  Uiso   1.00
C607   C     0.22309   0.51853   0.38808   0.00000  Uiso   1.00
C608   C     0.34619   0.96769   0.45328   0.00000  Uiso   1.00
C609   C     0.27691   0.51853   0.61192   0.00000  Uiso   1.00
C610   C     0.28881   0.89963   0.51193   0.00000  Uiso   1.00
C611   C     0.15381   0.96769   0.54672   0.00000  Uiso   1.00
C612   C     0.27914   0.60154   0.53217   0.00000  Uiso   1.00
C613   C     0.21118   0.89963   0.48807   0.00000  Uiso   1.00
C614   C     0.22304   0.55231   0.46491   0.00000  Uiso   1.00
C615   C     0.28992   0.94847   0.50302   0.00000  Uiso   1.00
C616   C     0.27696   0.55231   0.53509   0.00000  Uiso   1.00
H617   H     0.02421   0.80093   0.44544   0.00000  Uiso   1.00
H618   H     0.11316   0.63811   0.43194   0.00000  Uiso   1.00
H619   H     0.12864   0.58028   0.45153   0.00000  Uiso   1.00
H620   H     0.19009   0.66233   0.43129   0.00000  Uiso   1.00
H621   H     0.18554   0.61176   0.39572   0.00000  Uiso   1.00
H622   H     0.28940   0.86919   0.60300   0.00000  Uiso   1.00
H623   H     0.32473   0.82035   0.58830   0.00000  Uiso   1.00
H624   H     0.34871   0.87019   0.61795   0.00000  Uiso   1.00
H625   H     0.34949   0.85765   0.51315   0.00000  Uiso   1.00
H626   H     0.35604   0.90749   0.54678   0.00000  Uiso   1.00
H627   H     0.36214   0.62830   0.50583   0.00000  Uiso   1.00
H628   H     0.46709   0.68943   0.44682   0.00000  Uiso   1.00
H629   H     0.38684   0.63811   0.56806   0.00000  Uiso   1.00
H630   H     0.37136   0.58028   0.54847   0.00000  Uiso   1.00
H631   H     0.30991   0.66233   0.56871   0.00000  Uiso   1.00
H632   H     0.31446   0.61176   0.60428   0.00000  Uiso   1.00
H633   H     0.21060   0.86919   0.39700   0.00000  Uiso   1.00
H634   H     0.17527   0.82035   0.41170   0.00000  Uiso   1.00
H635   H     0.15130   0.87019   0.38205   0.00000  Uiso   1.00
H636   H     0.15051   0.85765   0.48685   0.00000  Uiso   1.00
H637   H     0.14396   0.90749   0.45322   0.00000  Uiso   1.00
H638   H     0.24475   0.98807   0.39715   0.00000  Uiso   1.00
H639   H     0.47579   0.80093   0.55456   0.00000  Uiso   1.00
H640   H     0.24386   0.54848   0.37682   0.00000  Uiso   1.00
H641   H     0.20045   0.50906   0.35537   0.00000  Uiso   1.00
H642   H     0.32307   0.98501   0.42507   0.00000  Uiso   1.00
H643   H     0.35138   0.93078   0.44286   0.00000  Uiso   1.00
H644   H     0.37915   0.98541   0.45260   0.00000  Uiso   1.00
H645   H     0.25524   0.98806   0.60285   0.00000  Uiso   1.00
H646   H     0.25613   0.54848   0.62318   0.00000  Uiso   1.00
H647   H     0.29954   0.50905   0.64463   0.00000  Uiso   1.00
H648   H     0.17693   0.98499   0.57494   0.00000  Uiso   1.00
H649   H     0.14861   0.93077   0.55713   0.00000  Uiso   1.00
H650   H     0.03291   0.68943   0.55318   0.00000  Uiso   1.00
H651   H     0.12085   0.98540   0.54740   0.00000  Uiso   1.00
H652   H     0.10590   0.80314   0.44448   0.00000  Uiso   1.00
H653   H     0.38485   0.69268   0.44609   0.00000  Uiso   1.00
H654   H     0.39410   0.80314   0.55552   0.00000  Uiso   1.00
H655   H     0.11515   0.69268   0.55391   0.00000  Uiso   1.00
H656   H     0.13786   0.62830   0.49417   0.00000  Uiso   1.00
N657   N     0.25000   0.62623   0.50000   0.00000  Uiso   1.00
N658   N     0.25000   0.87376   0.50000   0.00000  Uiso   1.00
O659   O     0.18453   0.78974   0.50000   0.00000  Uiso   1.00
O660   O     0.33038   0.97184   0.50182   0.00000  Uiso   1.00
O661   O     0.30341   0.52946   0.57146   0.00000  Uiso   1.00
O662   O     0.16962   0.97184   0.49819   0.00000  Uiso   1.00
O663   O     0.31547   0.71026   0.50000   0.00000  Uiso   1.00
O664   O     0.31547   0.78974   0.50000   0.00000  Uiso   1.00
O665   O     0.18453   0.71026   0.50000   0.00000  Uiso   1.00
O666   O     0.25000   0.78973   0.42845   0.00000  Uiso   1.00
O667   O     0.25000   0.71027   0.57155   0.00000  Uiso   1.00
O668   O     0.25000   0.78973   0.57155   0.00000  Uiso   1.00
O669   O     0.25000   0.71027   0.42845   0.00000  Uiso   1.00
O670   O     0.19659   0.52946   0.42854   0.00000  Uiso   1.00
Zn671  Zn    0.25000   0.80307   0.50000   0.00000  Uiso   1.00
Zn672  Zn    0.25000   0.69693   0.50000   0.00000  Uiso   1.00
C673   C     0.66405   0.74987   0.49979   0.00000  Uiso   1.00
C674   C     0.71008   0.94847   0.49698   0.00000  Uiso   1.00
C675   C     0.74989   0.75000   0.40637   0.00000  Uiso   1.00
C676   C     0.75011   0.75000   0.59363   0.00000  Uiso   1.00
C677   C     0.75000   0.52681   0.50000   0.00000  Uiso   1.00
C678   C     0.75000   0.97397   0.50000   0.00000  Uiso   1.00
C679   C     0.74996   0.75000   0.35516   0.00000  Uiso   1.00
C680   C     0.75004   0.75000   0.64484   0.00000  Uiso   1.00
C681   C     0.54419   0.77733   0.46902   0.00000  Uiso   1.00
C682   C     0.95092   0.71425   0.47038   0.00000  Uiso   1.00
C683   C     0.95581   0.77733   0.53098   0.00000  Uiso   1.00
C684   C     0.83595   0.74987   0.50021   0.00000  Uiso   1.00
C685   C     0.54908   0.71425   0.52962   0.00000  Uiso   1.00
C686   C     0.59043   0.77908   0.46917   0.00000  Uiso   1.00
C687   C     0.90459   0.71620   0.46999   0.00000  Uiso   1.00
C688   C     0.90957   0.77908   0.53083   0.00000  Uiso   1.00
C689   C     0.59541   0.71620   0.53001   0.00000  Uiso   1.00
C690   C     0.61599   0.74890   0.50006   0.00000  Uiso   1.00
C691   C     0.88401   0.74890   0.49994   0.00000  Uiso   1.00
C692   C     0.52388   0.74504   0.49932   0.00000  Uiso   1.00
C693   C     0.97612   0.74504   0.50068   0.00000  Uiso   1.00
C694   C     0.68494   0.62513   0.43466   0.00000  Uiso   1.00
C695   C     0.72085   0.60154   0.46783   0.00000  Uiso   1.00
C696   C     0.63836   0.61737   0.45437   0.00000  Uiso   1.00
C697   C     0.83095   0.87979   0.53831   0.00000  Uiso   1.00
C698   C     0.82248   0.85855   0.58957   0.00000  Uiso   1.00
C699   C     0.81506   0.62513   0.56534   0.00000  Uiso   1.00
C700   C     0.86164   0.61737   0.54563   0.00000  Uiso   1.00
C701   C     0.66905   0.87979   0.46168   0.00000  Uiso   1.00
C702   C     0.67752   0.85855   0.41043   0.00000  Uiso   1.00
C703   C     0.72309   0.51853   0.38808   0.00000  Uiso   1.00
C704   C     0.84619   0.96769   0.45328   0.00000  Uiso   1.00
C705   C     0.77691   0.51853   0.61192   0.00000  Uiso   1.00
C706   C     0.78881   0.89963   0.51193   0.00000  Uiso   1.00
C707   C     0.65381   0.96769   0.54672   0.00000  Uiso   1.00
C708   C     0.77914   0.60154   0.53217   0.00000  Uiso   1.00
C709   C     0.71118   0.89963   0.48807   0.00000  Uiso   1.00
C710   C     0.72304   0.55231   0.46491   0.00000  Uiso   1.00
C711   C     0.78992   0.94847   0.50302   0.00000  Uiso   1.00
C712   C     0.77696   0.55231   0.53509   0.00000  Uiso   1.00
H713   H     0.52421   0.80093   0.44544   0.00000  Uiso   1.00
H714   H     0.61316   0.63811   0.43194   0.00000  Uiso   1.00
H715   H     0.62864   0.58028   0.45153   0.00000  Uiso   1.00
H716   H     0.69009   0.66233   0.43129   0.00000  Uiso   1.00
H717   H     0.68554   0.61176   0.39572   0.00000  Uiso   1.00
H718   H     0.78940   0.86919   0.60300   0.00000  Uiso   1.00
H719   H     0.82473   0.82035   0.58830   0.00000  Uiso   1.00
H720   H     0.84871   0.87019   0.61795   0.00000  Uiso   1.00
H721   H     0.84949   0.85765   0.51315   0.00000  Uiso   1.00
H722   H     0.85604   0.90749   0.54678   0.00000  Uiso   1.00
H723   H     0.86214   0.62830   0.50583   0.00000  Uiso   1.00
H724   H     0.96709   0.68943   0.44682   0.00000  Uiso   1.00
H725   H     0.88684   0.63811   0.56806   0.00000  Uiso   1.00
H726   H     0.87136   0.58028   0.54847   0.00000  Uiso   1.00
H727   H     0.80991   0.66233   0.56871   0.00000  Uiso   1.00
H728   H     0.81446   0.61176   0.60428   0.00000  Uiso   1.00
H729   H     0.71060   0.86919   0.39700   0.00000  Uiso   1.00
H730   H     0.67527   0.82035   0.41170   0.00000  Uiso   1.00
H731   H     0.65130   0.87019   0.38205   0.00000  Uiso   1.00
H732   H     0.65051   0.85765   0.48685   0.00000  Uiso   1.00
H733   H     0.64396   0.90749   0.45322   0.00000  Uiso   1.00
H734   H     0.74475   0.98807   0.39715   0.00000  Uiso   1.00
H735   H     0.97579   0.80093   0.55456   0.00000  Uiso   1.00
H736   H     0.74386   0.54848   0.37682   0.00000  Uiso   1.00
H737   H     0.70045   0.50906   0.35537   0.00000  Uiso   1.00
H738   H     0.82307   0.98501   0.42507   0.00000  Uiso   1.00
H739   H     0.85138   0.93078   0.44286   0.00000  Uiso   1.00
H740   H     0.87915   0.98541   0.45260   0.00000  Uiso   1.00
H741   H     0.75524   0.98806   0.60285   0.00000  Uiso   1.00
H742   H     0.75613   0.54848   0.62318   0.00000  Uiso   1.00
H743   H     0.79954   0.50905   0.64463   0.00000  Uiso   1.00
H744   H     0.67693   0.98499   0.57494   0.00000  Uiso   1.00
H745   H     0.64861   0.93077   0.55713   0.00000  Uiso   1.00
H746   H     0.53291   0.68943   0.55318   0.00000  Uiso   1.00
H747   H     0.62085   0.98540   0.54740   0.00000  Uiso   1.00
H748   H     0.60590   0.80314   0.44448   0.00000  Uiso   1.00
H749   H     0.88485   0.69268   0.44609   0.00000  Uiso   1.00
H750   H     0.89410   0.80314   0.55552   0.00000  Uiso   1.00
H751   H     0.61515   0.69268   0.55391   0.00000  Uiso   1.00
H752   H     0.63786   0.62830   0.49417   0.00000  Uiso   1.00
N753   N     0.75000   0.62623   0.50000   0.00000  Uiso   1.00
N754   N     0.75000   0.87376   0.50000   0.00000  Uiso   1.00
O755   O     0.68453   0.78974   0.50000   0.00000  Uiso   1.00
O756   O     0.83038   0.97184   0.50182   0.00000  Uiso   1.00
O757   O     0.80341   0.52946   0.57146   0.00000  Uiso   1.00
O758   O     0.66962   0.97184   0.49819   0.00000  Uiso   1.00
O759   O     0.81547   0.71026   0.50000   0.00000  Uiso   1.00
O760   O     0.81547   0.78974   0.50000   0.00000  Uiso   1.00
O761   O     0.68453   0.71026   0.50000   0.00000  Uiso   1.00
O762   O     0.75000   0.78973   0.42845   0.00000  Uiso   1.00
O763   O     0.75000   0.71027   0.57155   0.00000  Uiso   1.00
O764   O     0.75000   0.78973   0.57155   0.00000  Uiso   1.00
O765   O     0.75000   0.71027   0.42845   0.00000  Uiso   1.00
O766   O     0.69659   0.52946   0.42854   0.00000  Uiso   1.00
Zn767  Zn    0.75000   0.80307   0.50000   0.00000  Uiso   1.00
Zn768  Zn    0.75000   0.69693   0.50000   0.00000  Uiso   1.00
C769   C     0.16405   0.24987   0.83313   0.00000  Uiso   1.00
C770   C     0.21008   0.44847   0.83031   0.00000  Uiso   1.00
C771   C     0.24989   0.25000   0.73970   0.00000  Uiso   1.00
C772   C     0.25011   0.25000   0.92696   0.00000  Uiso   1.00
C773   C     0.25000   0.02681   0.83333   0.00000  Uiso   1.00
C774   C     0.25000   0.47397   0.83333   0.00000  Uiso   1.00
C775   C     0.24996   0.25000   0.68850   0.00000  Uiso   1.00
C776   C     0.25004   0.25000   0.97817   0.00000  Uiso   1.00
C777   C     0.04419   0.27733   0.80235   0.00000  Uiso   1.00
C778   C     0.45092   0.21425   0.80371   0.00000  Uiso   1.00
C779   C     0.45581   0.27733   0.86431   0.00000  Uiso   1.00
C780   C     0.33595   0.24987   0.83354   0.00000  Uiso   1.00
C781   C     0.04908   0.21425   0.86296   0.00000  Uiso   1.00
C782   C     0.09043   0.27908   0.80250   0.00000  Uiso   1.00
C783   C     0.40459   0.21620   0.80333   0.00000  Uiso   1.00
C784   C     0.40957   0.27908   0.86416   0.00000  Uiso   1.00
C785   C     0.09541   0.21620   0.86334   0.00000  Uiso   1.00
C786   C     0.11599   0.24890   0.83339   0.00000  Uiso   1.00
C787   C     0.38401   0.24890   0.83328   0.00000  Uiso   1.00
C788   C     0.02388   0.24504   0.83266   0.00000  Uiso   1.00
C789   C     0.47612   0.24504   0.83401   0.00000  Uiso   1.00
C790   C     0.18494   0.12513   0.76800   0.00000  Uiso   1.00
C791   C     0.22085   0.10154   0.80117   0.00000  Uiso   1.00
C792   C     0.13836   0.11737   0.78771   0.00000  Uiso   1.00
C793   C     0.33095   0.37979   0.87165   0.00000  Uiso   1.00
C794   C     0.32248   0.35855   0.92290   0.00000  Uiso   1.00
C795   C     0.31506   0.12513   0.89867   0.00000  Uiso   1.00
C796   C     0.36164   0.11737   0.87896   0.00000  Uiso   1.00
C797   C     0.16905   0.37979   0.79502   0.00000  Uiso   1.00
C798   C     0.17752   0.35855   0.74377   0.00000  Uiso   1.00
C799   C     0.22309   0.01853   0.72142   0.00000  Uiso   1.00
C800   C     0.34619   0.46769   0.78661   0.00000  Uiso   1.00
C801   C     0.27691   0.01853   0.94525   0.00000  Uiso   1.00
C802   C     0.28881   0.39963   0.84526   0.00000  Uiso   1.00
C803   C     0.15381   0.46769   0.88006   0.00000  Uiso   1.00
C804   C     0.27914   0.10154   0.86550   0.00000  Uiso   1.00
C805   C     0.21118   0.39963   0.82141   0.00000  Uiso   1.00
C806   C     0.22304   0.05231   0.79824   0.00000  Uiso   1.00
C807   C     0.28992   0.44847   0.83636   0.00000  Uiso   1.00
C808   C     0.27696   0.05231   0.86842   0.00000  Uiso   1.00
H809   H     0.02421   0.30093   0.77877   0.00000  Uiso   1.00
H810   H     0.11316   0.13811   0.76527   0.00000  Uiso   1.00
H811   H     0.12864   0.08028   0.78487   0.00000  Uiso   1.00
H812   H     0.19009   0.16233   0.76463   0.00000  Uiso   1.00
H813   H     0.18554   0.11176   0.72905   0.00000  Uiso   1.00
H814   H     0.28940   0.36919   0.93634   0.00000  Uiso   1.00
H815   H     0.32473   0.32035   0.92163   0.00000  Uiso   1.00
H816   H     0.34871   0.37019   0.95129   0.00000  Uiso   1.00
H817   H     0.34949   0.35765   0.84648   0.00000  Uiso   1.00
H818   H     0.35604   0.40749   0.88011   0.00000  Uiso   1.00
H819   H     0.36214   0.12830   0.83916   0.00000  Uiso   1.00
H820   H     0.46709   0.18943   0.78015   0.00000  Uiso   1.00
H821   H     0.38684   0.13811   0.90140   0.00000  Uiso   1.00
H822   H     0.37136   0.08028   0.88180   0.00000  Uiso   1.00
H823   H     0.30991   0.16233   0.90204   0.00000  Uiso   1.00
H824   H     0.31446   0.11176   0.93762   0.00000  Uiso   1.00
H825   H     0.21060   0.36919   0.73033   0.00000  Uiso   1.00
H826   H     0.17527   0.32035   0.74503   0.00000  Uiso   1.00
H827   H     0.15130   0.37019   0.71538   0.00000  Uiso   1.00
H828   H     0.15051   0.35765   0.82019   0.00000  Uiso   1.00
H829   H     0.14396   0.40749   0.78655   0.00000  Uiso   1.00
H830   H     0.24475   0.48807   0.73048   0.00000  Uiso   1.00
H831   H     0.47579   0.30093   0.88790   0.00000  Uiso   1.00
H832   H     0.24386   0.04848   0.71015   0.00000  Uiso   1.00
H833   H     0.20045   0.00906   0.68870   0.00000  Uiso   1.00
H834   H     0.32307   0.48501   0.75840   0.00000  Uiso   1.00
H835   H     0.35138   0.43078   0.77619   0.00000  Uiso   1.00
H836   H     0.37915   0.48541   0.78593   0.00000  Uiso   1.00
H837   H     0.25524   0.48806   0.93618   0.00000  Uiso   1.00
H838   H     0.25613   0.04848   0.95651   0.00000  Uiso   1.00
H839   H     0.29954   0.00905   0.97796   0.00000  Uiso   1.00
H840   H     0.17693   0.48499   0.90827   0.00000  Uiso   1.00
H841   H     0.14861   0.43077   0.89047   0.00000  Uiso   1.00
H842   H     0.03291   0.18943   0.88651   0.00000  Uiso   1.00
H843   H     0.12085   0.48540   0.88073   0.00000  Uiso   1.00
H844   H     0.10590   0.30314   0.77781   0.00000  Uiso   1.00
H845   H     0.38485   0.19268   0.77942   0.00000  Uiso   1.00
H846   H     0.39410   0.30314   0.88885   0.00000  Uiso   1.00
H847   H     0.11515   0.19268   0.88725   0.00000  Uiso   1.00
H848   H     0.13786   0.12830   0.82751   0.00000  Uiso   1.00
N849   N     0.25000   0.12623   0.83333   0.00000  Uiso   1.00
N850   N     0.25000   0.37376   0.83333   0.00000  Uiso   1.00
O851   O     0.18453   0.28974   0.83334   0.00000  Uiso   1.00
O852   O     0.33038   0.47184   0.83515   0.00000  Uiso   1.00
O853   O     0.30341   0.02946   0.90480   0.00000  Uiso   1.00
O854   O     0.16962   0.47184   0.83152   0.00000  Uiso   1.00
O855   O     0.31547   0.21026   0.83333   0.00000  Uiso   1.00
O856   O     0.31547   0.28974   0.83333   0.00000  Uiso   1.00
O857   O     0.18453   0.21026   0.83334   0.00000  Uiso   1.00
O858   O     0.25000   0.28973   0.76178   0.00000  Uiso   1.00
O859   O     0.25000   0.21027   0.90489   0.00000  Uiso   1.00
O860   O     0.25000   0.28973   0.90489   0.00000  Uiso   1.00
O861   O     0.25000   0.21027   0.76178   0.00000  Uiso   1.00
O862   O     0.19659   0.02946   0.76187   0.00000  Uiso   1.00
Zn863  Zn    0.25000   0.30307   0.83333   0.00000  Uiso   1.00
Zn864  Zn    0.25000   0.19693   0.83333   0.00000  Uiso   1.00
C865   C     0.66405   0.24987   0.83313   0.00000  Uiso   1.00
C866   C     0.71008   0.44847   0.83031   0.00000  Uiso   1.00
C867   C     0.74989   0.25000   0.73970   0.00000  Uiso   1.00
C868   C     0.75011   0.25000   0.92696   0.00000  Uiso   1.00
C869   C     0.75000   0.02681   0.83333   0.00000  Uiso   1.00
C870   C     0.75000   0.47397   0.83333   0.00000  Uiso   1.00
C871   C     0.74996   0.25000   0.68850   0.00000  Uiso   1.00
C872   C     0.75004   0.25000   0.97817   0.00000  Uiso   1.00
C873   C     0.54419   0.27733   0.80235   0.00000  Uiso   1.00
C874   C     0.95092   0.21425   0.80371   0.00000  Uiso   1.00
C875   C     0.95581   0.27733   0.86431   0.00000  Uiso   1.00
C876   C     0.83595   0.24987   0.83354   0.00000  Uiso   1.00
C877   C     0.54908   0.21425   0.86296   0.00000  Uiso   1.00
C878   C     0.59043   0.27908   0.80250   0.00000  Uiso   1.00
C879   C     0.90459   0.21620   0.80333   0.00000  Uiso   1.00
C880   C     0.90957   0.27908   0.86416   0.00000  Uiso   1.00
C881   C     0.59541   0.21620   0.86334   0.00000  Uiso   1.00
C882   C     0.61599   0.24890   0.83339   0.00000  Uiso   1.00
C883   C     0.88401   0.24890   0.83328   0.00000  Uiso   1.00
C884   C     0.52388   0.24504   0.83266   0.00000  Uiso   1.00
C885   C     0.97612   0.24504   0.83401   0.00000  Uiso   1.00
C886   C     0.68494   0.12513   0.76800   0.00000  Uiso   1.00
C887   C     0.72085   0.10154   0.80117   0.00000  Uiso   1.00
C888   C     0.63836   0.11737   0.78771   0.00000  Uiso   1.00
C889   C     0.83095   0.37979   0.87165   0.00000  Uiso   1.00
C890   C     0.82248   0.35855   0.92290   0.00000  Uiso   1.00
C891   C     0.81506   0.12513   0.89867   0.00000  Uiso   1.00
C892   C     0.86164   0.11737   0.87896   0.00000  Uiso   1.00
C893   C     0.66905   0.37979   0.79502   0.00000  Uiso   1.00
C894   C     0.67752   0.35855   0.74377   0.00000  Uiso   1.00
C895   C     0.72309   0.01853   0.72142   0.00000  Uiso   1.00
C896   C     0.84619   0.46769   0.78661   0.00000  Uiso   1.00
C897   C     0.77691   0.01853   0.94525   0.00000  Uiso   1.00
C898   C     0.78881   0.39963   0.84526   0.00000  Uiso   1.00
C899   C     0.65381   0.46769   0.88006   0.00000  Uiso   1.00
C900   C     0.77914   0.10154   0.86550   0.00000  Uiso   1.00
C901   C     0.71118   0.39963   0.82141   0.00000  Uiso   1.00
C902   C     0.72304   0.05231   0.79824   0.00000  Uiso   1.00
C903   C     0.78992   0.44847   0.83636   0.00000  Uiso   1.00
C904   C     0.77696   0.05231   0.86842   0.00000  Uiso   1.00
H905   H     0.52421   0.30093   0.77877   0.00000  Uiso   1.00
H906   H     0.61316   0.13811   0.76527   0.00000  Uiso   1.00
H907   H     0.62864   0.08028   0.78487   0.00000  Uiso   1.00
H908   H     0.69009   0.16233   0.76463   0.00000  Uiso   1.00
H909   H     0.68554   0.11176   0.72905   0.00000  Uiso   1.00
H910   H     0.78940   0.36919   0.93634   0.00000  Uiso   1.00
H911   H     0.82473   0.32035   0.92163   0.00000  Uiso   1.00
H912   H     0.84871   0.37019   0.95129   0.00000  Uiso   1.00
H913   H     0.84949   0.35765   0.84648   0.00000  Uiso   1.00
H914   H     0.85604   0.40749   0.88011   0.00000  Uiso   1.00
H915   H     0.86214   0.12830   0.83916   0.00000  Uiso   1.00
H916   H     0.96709   0.18943   0.78015   0.00000  Uiso   1.00
H917   H     0.88684   0.13811   0.90140   0.00000  Uiso   1.00
H918   H     0.87136   0.08028   0.88180   0.00000  Uiso   1.00
H919   H     0.80991   0.16233   0.90204   0.00000  Uiso   1.00
H920   H     0.81446   0.11176   0.93762   0.00000  Uiso   1.00
H921   H     0.71060   0.36919   0.73033   0.00000  Uiso   1.00
H922   H     0.67527   0.32035   0.74503   0.00000  Uiso   1.00
H923   H     0.65130   0.37019   0.71538   0.00000  Uiso   1.00
H924   H     0.65051   0.35765   0.82019   0.00000  Uiso   1.00
H925   H     0.64396   0.40749   0.78655   0.00000  Uiso   1.00
H926   H     0.74475   0.48807   0.73048   0.00000  Uiso   1.00
H927   H     0.97579   0.30093   0.88790   0.00000  Uiso   1.00
H928   H     0.74386   0.04848   0.71015   0.00000  Uiso   1.00
H929   H     0.70045   0.00906   0.68870   0.00000  Uiso   1.00
H930   H     0.82307   0.48501   0.75840   0.00000  Uiso   1.00
H931   H     0.85138   0.43078   0.77619   0.00000  Uiso   1.00
H932   H     0.87915   0.48541   0.78593   0.00000  Uiso   1.00
H933   H     0.75524   0.48806   0.93618   0.00000  Uiso   1.00
H934   H     0.75613   0.04848   0.95651   0.00000  Uiso   1.00
H935   H     0.79954   0.00905   0.97796   0.00000  Uiso   1.00
H936   H     0.67693   0.48499   0.90827   0.00000  Uiso   1.00
H937   H     0.64861   0.43077   0.89047   0.00000  Uiso   1.00
H938   H     0.53291   0.18943   0.88651   0.00000  Uiso   1.00
H939   H     0.62085   0.48540   0.88073   0.00000  Uiso   1.00
H940   H     0.60590   0.30314   0.77781   0.00000  Uiso   1.00
H941   H     0.88485   0.19268   0.77942   0.00000  Uiso   1.00
H942   H     0.89410   0.30314   0.88885   0.00000  Uiso   1.00
H943   H     0.61515   0.19268   0.88725   0.00000  Uiso   1.00
H944   H     0.63786   0.12830   0.82751   0.00000  Uiso   1.00
N945   N     0.75000   0.12623   0.83333   0.00000  Uiso   1.00
N946   N     0.75000   0.37376   0.83333   0.00000  Uiso   1.00
O947   O     0.68453   0.28974   0.83334   0.00000  Uiso   1.00
O948   O     0.83038   0.47184   0.83515   0.00000  Uiso   1.00
O949   O     0.80341   0.02946   0.90480   0.00000  Uiso   1.00
O950   O     0.66962   0.47184   0.83152   0.00000  Uiso   1.00
O951   O     0.81547   0.21026   0.83333   0.00000  Uiso   1.00
O952   O     0.81547   0.28974   0.83333   0.00000  Uiso   1.00
O953   O     0.68453   0.21026   0.83334   0.00000  Uiso   1.00
O954   O     0.75000   0.28973   0.76178   0.00000  Uiso   1.00
O955   O     0.75000   0.21027   0.90489   0.00000  Uiso   1.00
O956   O     0.75000   0.28973   0.90489   0.00000  Uiso   1.00
O957   O     0.75000   0.21027   0.76178   0.00000  Uiso   1.00
O958   O     0.69659   0.02946   0.76187   0.00000  Uiso   1.00
Zn959  Zn    0.75000   0.30307   0.83333   0.00000  Uiso   1.00
Zn960  Zn    0.75000   0.19693   0.83333   0.00000  Uiso   1.00
C961   C     0.16405   0.74987   0.83313   0.00000  Uiso   1.00
C962   C     0.21008   0.94847   0.83031   0.00000  Uiso   1.00
C963   C     0.24989   0.75000   0.73970   0.00000  Uiso   1.00
C964   C     0.25011   0.75000   0.92696   0.00000  Uiso   1.00
C965   C     0.25000   0.52681   0.83333   0.00000  Uiso   1.00
C966   C     0.25000   0.97397   0.83333   0.00000  Uiso   1.00
C967   C     0.24996   0.75000   0.68850   0.00000  Uiso   1.00
C968   C     0.25004   0.75000   0.97817   0.00000  Uiso   1.00
C969   C     0.04419   0.77733   0.80235   0.00000  Uiso   1.00
C970   C     0.45092   0.71425   0.80371   0.00000  Uiso   1.00
C971   C     0.45581   0.77733   0.86431   0.00000  Uiso   1.00
C972   C     0.33595   0.74987   0.83354   0.00000  Uiso   1.00
C973   C     0.04908   0.71425   0.86296   0.00000  Uiso   1.00
C974   C     0.09043   0.77908   0.80250   0.00000  Uiso   1.00
C975   C     0.40459   0.71620   0.80333   0.00000  Uiso   1.00
C976   C     0.40957   0.77908   0.86416   0.00000  Uiso   1.00
C977   C     0.09541   0.71620   0.86334   0.00000  Uiso   1.00
C978   C     0.11599   0.74890   0.83339   0.00000  Uiso   1.00
C979   C     0.38401   0.74890   0.83328   0.00000  Uiso   1.00
C980   C     0.02388   0.74504   0.83266   0.00000  Uiso   1.00
C981   C     0.47612   0.74504   0.83401   0.00000  Uiso   1.00
C982   C     0.18494   0.62513   0.76800   0.00000  Uiso   1.00
C983   C     0.22085   0.60154   0.80117   0.00000  Uiso   1.00
C984   C     0.13836   0.61737   0.78771   0.00000  Uiso   1.00
C985   C     0.33095   0.87979   0.87165   0.00000  Uiso   1.00
C986   C     0.32248   0.85855   0.92290   0.00000  Uiso   1.00
C987   C     0.31506   0.62513   0.89867   0.00000  Uiso   1.00
C988   C     0.36164   0.61737   0.87896   0.00000  Uiso   1.00
C989   C     0.16905   0.87979   0.79502   0.00000  Uiso   1.00
C990   C     0.17752   0.85855   0.74377   0.00000  Uiso   1.00
C991   C     0.22309   0.51853   0.72142   0.00000  Uiso   1.00
C992   C     0.34619   0.96769   0.78661   0.00000  Uiso   1.00
C993   C     0.27691   0.51853   0.94525   0.00000  Uiso   1.00
C994   C     0.28881   0.89963   0.84526   0.00000  Uiso   1.00
C995   C     0.15381   0.96769   0.88006   0.00000  Uiso   1.00
C996   C     0.27914   0.60154   0.86550   0.00000  Uiso   1.00
C997   C     0.21118   0.89963   0.82141   0.00000  Uiso   1.00
C998   C     0.22304   0.55231   0.79824   0.00000  Uiso   1.00
C999   C     0.28992   0.94847   0.83636   0.00000  Uiso   1.00
C1000  C     0.27696   0.55231   0.86842   0.00000  Uiso   1.00
H1001  H     0.02421   0.80093   0.77877   0.00000  Uiso   1.00
H1002  H     0.11316   0.63811   0.76527   0.00000  Uiso   1.00
H1003  H     0.12864   0.58028   0.78487   0.00000  Uiso   1.00
H1004  H     0.19009   0.66233   0.76463   0.00000  Uiso   1.00
H1005  H     0.18554   0.61176   0.72905   0.00000  Uiso   1.00
H1006  H     0.28940   0.86919   0.93634   0.00000  Uiso   1.00
H1007  H     0.32473   0.82035   0.92163   0.00000  Uiso   1.00
H1008  H     0.34871   0.87019   0.95129   0.00000  Uiso   1.00
H1009  H     0.34949   0.85765   0.84648   0.00000  Uiso   1.00
H1010  H     0.35604   0.90749   0.88011   0.00000  Uiso   1.00
H1011  H     0.36214   0.62830   0.83916   0.00000  Uiso   1.00
H1012  H     0.46709   0.68943   0.78015   0.00000  Uiso   1.00
H1013  H     0.38684   0.63811   0.90140   0.00000  Uiso   1.00
H1014  H     0.37136   0.58028   0.88180   0.00000  Uiso   1.00
H1015  H     0.30991   0.66233   0.90204   0.00000  Uiso   1.00
H1016  H     0.31446   0.61176   0.93762   0.00000  Uiso   1.00
H1017  H     0.21060   0.86919   0.73033   0.00000  Uiso   1.00
H1018  H     0.17527   0.82035   0.74503   0.00000  Uiso   1.00
H1019  H     0.15130   0.87019   0.71538   0.00000  Uiso   1.00
H1020  H     0.15051   0.85765   0.82019   0.00000  Uiso   1.00
H1021  H     0.14396   0.90749   0.78655   0.00000  Uiso   1.00
H1022  H     0.24475   0.98807   0.73048   0.00000  Uiso   1.00
H1023  H     0.47579   0.80093   0.88790   0.00000  Uiso   1.00
H1024  H     0.24386   0.54848   0.71015   0.00000  Uiso   1.00
H1025  H     0.20045   0.50906   0.68870   0.00000  Uiso   1.00
H1026  H     0.32307   0.98501   0.75840   0.00000  Uiso   1.00
H1027  H     0.35138   0.93078   0.77619   0.00000  Uiso   1.00
H1028  H     0.37915   0.98541   0.78593   0.00000  Uiso   1.00
H1029  H     0.25524   0.98806   0.93618   0.00000  Uiso   1.00
H1030  H     0.25613   0.54848   0.95651   0.00000  Uiso   1.00
H1031  H     0.29954   0.50905   0.97796   0.00000  Uiso   1.00
H1032  H     0.17693   0.98499   0.90827   0.00000  Uiso   1.00
H1033  H     0.14861   0.93077   0.89047   0.00000  Uiso   1.00
H1034  H     0.03291   0.68943   0.88651   0.00000  Uiso   1.00
H1035  H     0.12085   0.98540   0.88073   0.00000  Uiso   1.00
H1036  H     0.10590   0.80314   0.77781   0.00000  Uiso   1.00
H1037  H     0.38485   0.69268   0.77942   0.00000  Uiso   1.00
H1038  H     0.39410   0.80314   0.88885   0.00000  Uiso   1.00
H1039  H     0.11515   0.69268   0.88725   0.00000  Uiso   1.00
H1040  H     0.13786   0.62830   0.82751   0.00000  Uiso   1.00
N1041  N     0.25000   0.62623   0.83333   0.00000  Uiso   1.00
N1042  N     0.25000   0.87376   0.83333   0.00000  Uiso   1.00
O1043  O     0.18453   0.78974   0.83334   0.00000  Uiso   1.00
O1044  O     0.33038   0.97184   0.83515   0.00000  Uiso   1.00
O1045  O     0.30341   0.52946   0.90480   0.00000  Uiso   1.00
O1046  O     0.16962   0.97184   0.83152   0.00000  Uiso   1.00
O1047  O     0.31547   0.71026   0.83333   0.00000  Uiso   1.00
O1048  O     0.31547   0.78974   0.83333   0.00000  Uiso   1.00
O1049  O     0.18453   0.71026   0.83334   0.00000  Uiso   1.00
O1050  O     0.25000   0.78973   0.76178   0.00000  Uiso   1.00
O1051  O     0.25000   0.71027   0.90489   0.00000  Uiso   1.00
O1052  O     0.25000   0.78973   0.90489   0.00000  Uiso   1.00
O1053  O     0.25000   0.71027   0.76178   0.00000  Uiso   1.00
O1054  O     0.19659   0.52946   0.76187   0.00000  Uiso   1.00
Zn1055 Zn    0.25000   0.80307   0.83333   0.00000  Uiso   1.00
Zn1056 Zn    0.25000   0.69693   0.83333   0.00000  Uiso   1.00
C1057  C     0.66405   0.74987   0.83313   0.00000  Uiso   1.00
C1058  C     0.71008   0.94847   0.83031   0.00000  Uiso   1.00
C1059  C     0.74989   0.75000   0.73970   0.00000  Uiso   1.00
C1060  C     0.75011   0.75000   0.92696   0.00000  Uiso   1.00
C1061  C     0.75000   0.52681   0.83333   0.00000  Uiso   1.00
C1062  C     0.75000   0.97397   0.83333   0.00000  Uiso   1.00
C1063  C     0.74996   0.75000   0.68850   0.00000  Uiso   1.00
C1064  C     0.75004   0.75000   0.97817   0.00000  Uiso   1.00
C1065  C     0.54419   0.77733   0.80235   0.00000  Uiso   1.00
C1066  C     0.95092   0.71425   0.80371   0.00000  Uiso   1.00
C1067  C     0.95581   0.77733   0.86431   0.00000  Uiso   1.00
C1068  C     0.83595   0.74987   0.83354   0.00000  Uiso   1.00
C1069  C     0.54908   0.71425   0.86296   0.00000  Uiso   1.00
C1070  C     0.59043   0.77908   0.80250   0.00000  Uiso   1.00
C1071  C     0.90459   0.71620   0.80333   0.00000  Uiso   1.00
C1072  C     0.90957   0.77908   0.86416   0.00000  Uiso   1.00
C1073  C     0.59541   0.71620   0.86334   0.00000  Uiso   1.00
C1074  C     0.61599   0.74890   0.83339   0.00000  Uiso   1.00
C1075  C     0.88401   0.74890   0.83328   0.00000  Uiso   1.00
C1076  C     0.52388   0.74504   0.83266   0.00000  Uiso   1.00
C1077  C     0.97612   0.74504   0.83401   0.00000  Uiso   1.00
C1078  C     0.68494   0.62513   0.76800   0.00000  Uiso   1.00
C1079  C     0.72085   0.60154   0.80117   0.00000  Uiso   1.00
C1080  C     0.63836   0.61737   0.78771   0.00000  Uiso   1.00
C1081  C     0.83095   0.87979   0.87165   0.00000  Uiso   1.00
C1082  C     0.82248   0.85855   0.92290   0.00000  Uiso   1.00
C1083  C     0.81506   0.62513   0.89867   0.00000  Uiso   1.00
C1084  C     0.86164   0.61737   0.87896   0.00000  Uiso   1.00
C1085  C     0.66905   0.87979   0.79502   0.00000  Uiso   1.00
C1086  C     0.67752   0.85855   0.74377   0.00000  Uiso   1.00
C1087  C     0.72309   0.51853   0.72142   0.00000  Uiso   1.00
C1088  C     0.84619   0.96769   0.78661   0.00000  Uiso   1.00
C1089  C     0.77691   0.51853   0.94525   0.00000  Uiso   1.00
C1090  C     0.78881   0.89963   0.84526   0.00000  Uiso   1.00
C1091  C     0.65381   0.96769   0.88006   0.00000  Uiso   1.00
C1092  C     0.77914   0.60154   0.86550   0.00000  Uiso   1.00
C1093  C     0.71118   0.89963   0.82141   0.00000  Uiso   1.00
C1094  C     0.72304   0.55231   0.79824   0.00000  Uiso   1.00
C1095  C     0.78992   0.94847   0.83636   0.00000  Uiso   1.00
C1096  C     0.77696   0.55231   0.86842   0.00000  Uiso   1.00
H1097  H     0.52421   0.80093   0.77877   0.00000  Uiso   1.00
H1098  H     0.61316   0.63811   0.76527   0.00000  Uiso   1.00
H1099  H     0.62864   0.58028   0.78487   0.00000  Uiso   1.00
H1100  H     0.69009   0.66233   0.76463   0.00000  Uiso   1.00
H1101  H     0.68554   0.61176   0.72905   0.00000  Uiso   1.00
H1102  H     0.78940   0.86919   0.93634   0.00000  Uiso   1.00
H1103  H     0.82473   0.82035   0.92163   0.00000  Uiso   1.00
H1104  H     0.84871   0.87019   0.95129   0.00000  Uiso   1.00
H1105  H     0.84949   0.85765   0.84648   0.00000  Uiso   1.00
H1106  H     0.85604   0.90749   0.88011   0.00000  Uiso   1.00
H1107  H     0.86214   0.62830   0.83916   0.00000  Uiso   1.00
H1108  H     0.96709   0.68943   0.78015   0.00000  Uiso   1.00
H1109  H     0.88684   0.63811   0.90140   0.00000  Uiso   1.00
H1110  H     0.87136   0.58028   0.88180   0.00000  Uiso   1.00
H1111  H     0.80991   0.66233   0.90204   0.00000  Uiso   1.00
H1112  H     0.81446   0.61176   0.93762   0.00000  Uiso   1.00
H1113  H     0.71060   0.86919   0.73033   0.00000  Uiso   1.00
H1114  H     0.67527   0.82035   0.74503   0.00000  Uiso   1.00
H1115  H     0.65130   0.87019   0.71538   0.00000  Uiso   1.00
H1116  H     0.65051   0.85765   0.82019   0.00000  Uiso   1.00
H1117  H     0.64396   0.90749   0.78655   0.00000  Uiso   1.00
H1118  H     0.74475   0.98807   0.73048   0.00000  Uiso   1.00
H1119  H     0.97579   0.80093   0.88790   0.00000  Uiso   1.00
H1120  H     0.74386   0.54848   0.71015   0.00000  Uiso   1.00
H1121  H     0.70045   0.50906   0.68870   0.00000  Uiso   1.00
H1122  H     0.82307   0.98501   0.75840   0.00000  Uiso   1.00
H1123  H     0.85138   0.93078   0.77619   0.00000  Uiso   1.00
H1124  H     0.87915   0.98541   0.78593   0.00000  Uiso   1.00
H1125  H     0.75524   0.98806   0.93618   0.00000  Uiso   1.00
H1126  H     0.75613   0.54848   0.95651   0.00000  Uiso   1.00
H1127  H     0.79954   0.50905   0.97796   0.00000  Uiso   1.00
H1128  H     0.67693   0.98499   0.90827   0.00000  Uiso   1.00
H1129  H     0.64861   0.93077   0.89047   0.00000  Uiso   1.00
H1130  H     0.53291   0.68943   0.88651   0.00000  Uiso   1.00
H1131  H     0.62085   0.98540   0.88073   0.00000  Uiso   1.00
H1132  H     0.60590   0.80314   0.77781   0.00000  Uiso   1.00
H1133  H     0.88485   0.69268   0.77942   0.00000  Uiso   1.00
H1134  H     0.89410   0.80314   0.88885   0.00000  Uiso   1.00
H1135  H     0.61515   0.69268   0.88725   0.00000  Uiso   1.00
H1136  H     0.63786   0.62830   0.82751   0.00000  Uiso   1.00
N1137  N     0.75000   0.62623   0.83333   0.00000  Uiso   1.00
N1138  N     0.75000   0.87376   0.83333   0.00000  Uiso   1.00
O1139  O     0.68453   0.78974   0.83334   0.00000  Uiso   1.00
O1140  O     0.83038   0.97184   0.83515   0.00000  Uiso   1.00
O1141  O     0.80341   0.52946   0.90480   0.00000  Uiso   1.00
O1142  O     0.66962   0.97184   0.83152   0.00000  Uiso   1.00
O1143  O     0.81547   0.71026   0.83333   0.00000  Uiso   1.00
O1144  O     0.81547   0.78974   0.83333   0.00000  Uiso   1.00
O1145  O     0.68453   0.71026   0.83334   0.00000  Uiso   1.00
O1146  O     0.75000   0.78973   0.76178   0.00000  Uiso   1.00
O1147  O     0.75000   0.71027   0.90489   0.00000  Uiso   1.00
O1148  O     0.75000   0.78973   0.90489   0.00000  Uiso   1.00
O1149  O     0.75000   0.71027   0.76178   0.00000  Uiso   1.00
O1150  O     0.69659   0.52946   0.76187   0.00000  Uiso   1.00
Zn1151 Zn    0.75000   0.80307   0.83333   0.00000  Uiso   1.00
Zn1152 Zn    0.75000   0.69693   0.83333   0.00000  Uiso   1.00
loop_
_geom_bond_atom_site_label_1
_geom_bond_atom_site_label_2
_geom_bond_distance
_geom_bond_site_symmetry_2
_ccdc_geom_bond_type
C1     C18     1.434   .     S
C1     O89     1.296   .     A
C1     O83     1.302   .     A
C2     C6      1.398   .     A
C2     C37     1.429   .     A
C2     O86     1.384   .     S
C3     O90     1.289   .     A
C3     C7      1.368   .     S
C3     O93     1.289   .     A
C4     C8      1.368   .     S
C4     O91     1.289   .     A
C4     O92     1.289   .     A
C5     C38     1.409   .     A
C5     C40     1.409   .     A
C5     C198    1.524   1_545 S
C6     C39     1.398   .     A
C6     C197    1.524   .     S
C7     C776    1.167   1_554 S
C8     C391    1.167   .     S
C9     C14     1.380   .     A
C9     C20     1.394   .     A
C9     H41     1.084   .     S
C10    H52     1.084   .     S
C10    C15     1.382   .     A
C10    C21     1.394   .     A
C11    C21     1.394   .     A
C11    C16     1.380   .     A
C11    H63     1.084   .     S
C12    O88     1.302   .     A
C12    O87     1.296   .     A
C12    C19     1.434   .     S
C13    C20     1.394   .     A
C13    C17     1.382   .     A
C13    H74     1.084   .     S
C14    C18     1.397   .     A
C14    H76     1.078   .     S
C15    C19     1.400   .     A
C15    H77     1.084   .     S
C16    C19     1.397   .     A
C16    H78     1.078   .     S
C17    H79     1.084   .     S
C17    C18     1.400   .     A
C20    C117    1.427   1_455 S
C21    C116    1.427   .     S
C22    H44     1.088   .     S
C22    C24     1.529   .     S
C22    C23     1.514   .     S
C22    H45     1.111   .     S
C23    C38     1.424   .     A
C23    N81     1.386   .     A
C24    H42     1.111   .     S
C24    H80     1.110   .     S
C24    H43     1.110   .     S
C25    H50     1.110   .     S
C25    C34     1.519   .     S
C25    C26     1.534   .     S
C25    H49     1.098   .     S
C26    H46     1.111   .     S
C26    H48     1.112   .     S
C26    H47     1.105   .     S
C27    H55     1.088   .     S
C27    H56     1.111   .     S
C27    C36     1.514   .     S
C27    C28     1.529   .     S
C28    H51     1.110   .     S
C28    H54     1.110   .     S
C28    H53     1.111   .     S
C29    H61     1.110   .     S
C29    C30     1.534   .     S
C29    H60     1.098   .     S
C29    C37     1.519   .     S
C30    H57     1.111   .     S
C30    H59     1.112   .     S
C30    H58     1.105   .     S
C31    H65     1.109   .     S
C31    H64     1.114   .     S
C31    O94     1.409   .     S
C31    H254    1.110   1_545 S
C32    H68     1.109   .     S
C32    O84     1.409   .     S
C32    H67     1.113   .     S
C32    H66     1.112   .     S
C33    O85     1.409   .     S
C33    H70     1.114   .     S
C33    H71     1.109   .     S
C33    H261    1.110   1_545 S
C34    C39     1.429   .     A
C34    N82     1.400   .     A
C35    H75     1.109   .     S
C35    H72     1.112   .     S
C35    H73     1.113   .     S
C35    O86     1.409   .     S
C36    C40     1.424   .     A
C36    N81     1.386   .     A
C37    N82     1.400   .     A
C38    O94     1.385   .     S
C39    O84     1.384   .     S
C40    O85     1.385   .     S
H62    C223    1.110   .     S
H69    C225    1.110   .     S
N81    Zn96    2.039   .     S
N82    Zn95    2.039   .     S
O83    Zn95    1.990   .     S
O87    Zn96    1.990   .     S
O88    Zn95    1.990   .     S
O89    Zn96    1.990   .     S
O90    Zn95    1.950   .     S
O91    Zn96    1.950   .     S
O92    Zn95    1.950   .     S
O93    Zn96    1.950   .     S
C97    C114    1.434   .     S
C97    O185    1.296   .     A
C97    O179    1.302   .     A
C98    C102    1.398   .     A
C98    C133    1.429   .     A
C98    O182    1.384   .     S
C99    O186    1.289   .     A
C99    C103    1.368   .     S
C99    O189    1.289   .     A
C100   C104    1.368   .     S
C100   O187    1.289   .     A
C100   O188    1.289   .     A
C101   C134    1.409   .     A
C101   C136    1.409   .     A
C101   C294    1.524   1_545 S
C102   C135    1.398   .     A
C102   C293    1.524   .     S
C103   C872    1.167   1_554 S
C104   C487    1.167   .     S
C105   C110    1.380   .     A
C105   C116    1.394   .     A
C105   H137    1.084   .     S
C106   H148    1.084   .     S
C106   C111    1.382   .     A
C106   C117    1.394   .     A
C107   C117    1.394   .     A
C107   C112    1.380   .     A
C107   H159    1.084   .     S
C108   O184    1.302   .     A
C108   O183    1.296   .     A
C108   C115    1.434   .     S
C109   C116    1.394   .     A
C109   C113    1.382   .     A
C109   H170    1.084   .     S
C110   C114    1.397   .     A
C110   H172    1.078   .     S
C111   C115    1.400   .     A
C111   H173    1.084   .     S
C112   C115    1.397   .     A
C112   H174    1.078   .     S
C113   H175    1.084   .     S
C113   C114    1.400   .     A
C117   C20     1.427   1_655 S
C118   H140    1.088   .     S
C118   C120    1.529   .     S
C118   C119    1.514   .     S
C118   H141    1.111   .     S
C119   C134    1.424   .     A
C119   N177    1.386   .     A
C120   H138    1.111   .     S
C120   H176    1.110   .     S
C120   H139    1.110   .     S
C121   H146    1.110   .     S
C121   C130    1.519   .     S
C121   C122    1.534   .     S
C121   H145    1.098   .     S
C122   H142    1.111   .     S
C122   H144    1.112   .     S
C122   H143    1.105   .     S
C123   H151    1.088   .     S
C123   H152    1.111   .     S
C123   C132    1.514   .     S
C123   C124    1.529   .     S
C124   H147    1.110   .     S
C124   H150    1.110   .     S
C124   H149    1.111   .     S
C125   H157    1.110   .     S
C125   C126    1.534   .     S
C125   H156    1.098   .     S
C125   C133    1.519   .     S
C126   H153    1.111   .     S
C126   H155    1.112   .     S
C126   H154    1.105   .     S
C127   H161    1.109   .     S
C127   H160    1.114   .     S
C127   O190    1.409   .     S
C127   H350    1.110   1_545 S
C128   H164    1.109   .     S
C128   O180    1.409   .     S
C128   H163    1.113   .     S
C128   H162    1.112   .     S
C129   O181    1.409   .     S
C129   H166    1.114   .     S
C129   H167    1.109   .     S
C129   H357    1.110   1_545 S
C130   C135    1.429   .     A
C130   N178    1.400   .     A
C131   H171    1.109   .     S
C131   H168    1.112   .     S
C131   H169    1.113   .     S
C131   O182    1.409   .     S
C132   C136    1.424   .     A
C132   N177    1.386   .     A
C133   N178    1.400   .     A
C134   O190    1.385   .     S
C135   O180    1.384   .     S
C136   O181    1.385   .     S
H158   C319    1.110   .     S
H165   C321    1.110   .     S
N177   Zn192   2.039   .     S
N178   Zn191   2.039   .     S
O179   Zn191   1.990   .     S
O183   Zn192   1.990   .     S
O184   Zn191   1.990   .     S
O185   Zn192   1.990   .     S
O186   Zn191   1.950   .     S
O187   Zn192   1.950   .     S
O188   Zn191   1.950   .     S
O189   Zn192   1.950   .     S
C193   C210    1.434   .     S
C193   O281    1.296   .     A
C193   O275    1.302   .     A
C194   C198    1.398   .     A
C194   C229    1.429   .     A
C194   O278    1.384   .     S
C195   O282    1.289   .     A
C195   C199    1.368   .     S
C195   O285    1.289   .     A
C196   C200    1.368   .     S
C196   O283    1.289   .     A
C196   O284    1.289   .     A
C197   C230    1.409   .     A
C197   C232    1.409   .     A
C198   C231    1.398   .     A
C198   C5      1.524   1_565 S
C199   C968    1.167   1_554 S
C200   C583    1.167   .     S
C201   C206    1.380   .     A
C201   C212    1.394   .     A
C201   H233    1.084   .     S
C202   H244    1.084   .     S
C202   C207    1.382   .     A
C202   C213    1.394   .     A
C203   C213    1.394   .     A
C203   C208    1.380   .     A
C203   H255    1.084   .     S
C204   O280    1.302   .     A
C204   O279    1.296   .     A
C204   C211    1.434   .     S
C205   C212    1.394   .     A
C205   C209    1.382   .     A
C205   H266    1.084   .     S
C206   C210    1.397   .     A
C206   H268    1.078   .     S
C207   C211    1.400   .     A
C207   H269    1.084   .     S
C208   C211    1.397   .     A
C208   H270    1.078   .     S
C209   H271    1.084   .     S
C209   C210    1.400   .     A
C212   C309    1.427   1_455 S
C213   C308    1.427   .     S
C214   H236    1.088   .     S
C214   C216    1.529   .     S
C214   C215    1.514   .     S
C214   H237    1.111   .     S
C215   C230    1.424   .     A
C215   N273    1.386   .     A
C216   H234    1.111   .     S
C216   H272    1.110   .     S
C216   H235    1.110   .     S
C217   H242    1.110   .     S
C217   C226    1.519   .     S
C217   C218    1.534   .     S
C217   H241    1.098   .     S
C218   H238    1.111   .     S
C218   H240    1.112   .     S
C218   H239    1.105   .     S
C219   H247    1.088   .     S
C219   H248    1.111   .     S
C219   C228    1.514   .     S
C219   C220    1.529   .     S
C220   H243    1.110   .     S
C220   H246    1.110   .     S
C220   H245    1.111   .     S
C221   H253    1.110   .     S
C221   C222    1.534   .     S
C221   H252    1.098   .     S
C221   C229    1.519   .     S
C222   H249    1.111   .     S
C222   H251    1.112   .     S
C222   H250    1.105   .     S
C223   H257    1.109   .     S
C223   H256    1.114   .     S
C223   O286    1.409   .     S
C224   H260    1.109   .     S
C224   O276    1.409   .     S
C224   H259    1.113   .     S
C224   H258    1.112   .     S
C225   O277    1.409   .     S
C225   H262    1.114   .     S
C225   H263    1.109   .     S
C226   C231    1.429   .     A
C226   N274    1.400   .     A
C227   H267    1.109   .     S
C227   H264    1.112   .     S
C227   H265    1.113   .     S
C227   O278    1.409   .     S
C228   C232    1.424   .     A
C228   N273    1.386   .     A
C229   N274    1.400   .     A
C230   O286    1.385   .     S
C231   O276    1.384   .     S
C232   O277    1.385   .     S
H254   C31     1.110   1_565 S
H261   C33     1.110   1_565 S
N273   Zn288   2.039   .     S
N274   Zn287   2.039   .     S
O275   Zn287   1.990   .     S
O279   Zn288   1.990   .     S
O280   Zn287   1.990   .     S
O281   Zn288   1.990   .     S
O282   Zn287   1.950   .     S
O283   Zn288   1.950   .     S
O284   Zn287   1.950   .     S
O285   Zn288   1.950   .     S
C289   C306    1.434   .     S
C289   O377    1.296   .     A
C289   O371    1.302   .     A
C290   C294    1.398   .     A
C290   C325    1.429   .     A
C290   O374    1.384   .     S
C291   O378    1.289   .     A
C291   C295    1.368   .     S
C291   O381    1.289   .     A
C292   C296    1.368   .     S
C292   O379    1.289   .     A
C292   O380    1.289   .     A
C293   C326    1.409   .     A
C293   C328    1.409   .     A
C294   C327    1.398   .     A
C294   C101    1.524   1_565 S
C295   C1064   1.167   1_554 S
C296   C679    1.167   .     S
C297   C302    1.380   .     A
C297   C308    1.394   .     A
C297   H329    1.084   .     S
C298   H340    1.084   .     S
C298   C303    1.382   .     A
C298   C309    1.394   .     A
C299   C309    1.394   .     A
C299   C304    1.380   .     A
C299   H351    1.084   .     S
C300   O376    1.302   .     A
C300   O375    1.296   .     A
C300   C307    1.434   .     S
C301   C308    1.394   .     A
C301   C305    1.382   .     A
C301   H362    1.084   .     S
C302   C306    1.397   .     A
C302   H364    1.078   .     S
C303   C307    1.400   .     A
C303   H365    1.084   .     S
C304   C307    1.397   .     A
C304   H366    1.078   .     S
C305   H367    1.084   .     S
C305   C306    1.400   .     A
C309   C212    1.427   1_655 S
C310   H332    1.088   .     S
C310   C312    1.529   .     S
C310   C311    1.514   .     S
C310   H333    1.111   .     S
C311   C326    1.424   .     A
C311   N369    1.386   .     A
C312   H330    1.111   .     S
C312   H368    1.110   .     S
C312   H331    1.110   .     S
C313   H338    1.110   .     S
C313   C322    1.519   .     S
C313   C314    1.534   .     S
C313   H337    1.098   .     S
C314   H334    1.111   .     S
C314   H336    1.112   .     S
C314   H335    1.105   .     S
C315   H343    1.088   .     S
C315   H344    1.111   .     S
C315   C324    1.514   .     S
C315   C316    1.529   .     S
C316   H339    1.110   .     S
C316   H342    1.110   .     S
C316   H341    1.111   .     S
C317   H349    1.110   .     S
C317   C318    1.534   .     S
C317   H348    1.098   .     S
C317   C325    1.519   .     S
C318   H345    1.111   .     S
C318   H347    1.112   .     S
C318   H346    1.105   .     S
C319   H353    1.109   .     S
C319   H352    1.114   .     S
C319   O382    1.409   .     S
C320   H356    1.109   .     S
C320   O372    1.409   .     S
C320   H355    1.113   .     S
C320   H354    1.112   .     S
C321   O373    1.409   .     S
C321   H358    1.114   .     S
C321   H359    1.109   .     S
C322   C327    1.429   .     A
C322   N370    1.400   .     A
C323   H363    1.109   .     S
C323   H360    1.112   .     S
C323   H361    1.113   .     S
C323   O374    1.409   .     S
C324   C328    1.424   .     A
C324   N369    1.386   .     A
C325   N370    1.400   .     A
C326   O382    1.385   .     S
C327   O372    1.384   .     S
C328   O373    1.385   .     S
H350   C127    1.110   1_565 S
H357   C129    1.110   1_565 S
N369   Zn384   2.039   .     S
N370   Zn383   2.039   .     S
O371   Zn383   1.990   .     S
O375   Zn384   1.990   .     S
O376   Zn383   1.990   .     S
O377   Zn384   1.990   .     S
O378   Zn383   1.950   .     S
O379   Zn384   1.950   .     S
O380   Zn383   1.950   .     S
O381   Zn384   1.950   .     S
C385   C402    1.434   .     S
C385   O473    1.296   .     A
C385   O467    1.302   .     A
C386   C390    1.398   .     A
C386   C421    1.429   .     A
C386   O470    1.384   .     S
C387   O474    1.289   .     A
C387   C391    1.368   .     S
C387   O477    1.289   .     A
C388   C392    1.368   .     S
C388   O475    1.289   .     A
C388   O476    1.289   .     A
C389   C422    1.409   .     A
C389   C424    1.409   .     A
C389   C582    1.524   1_545 S
C390   C423    1.398   .     A
C390   C581    1.524   .     S
C392   C775    1.167   .     S
C393   C398    1.380   .     A
C393   C404    1.394   .     A
C393   H425    1.084   .     S
C394   H436    1.084   .     S
C394   C399    1.382   .     A
C394   C405    1.394   .     A
C395   C405    1.394   .     A
C395   C400    1.380   .     A
C395   H447    1.084   .     S
C396   O472    1.302   .     A
C396   O471    1.296   .     A
C396   C403    1.434   .     S
C397   C404    1.394   .     A
C397   C401    1.382   .     A
C397   H458    1.084   .     S
C398   C402    1.397   .     A
C398   H460    1.078   .     S
C399   C403    1.400   .     A
C399   H461    1.084   .     S
C400   C403    1.397   .     A
C400   H462    1.078   .     S
C401   H463    1.084   .     S
C401   C402    1.400   .     A
C404   C501    1.427   1_455 S
C405   C500    1.427   .     S
C406   H428    1.088   .     S
C406   C408    1.529   .     S
C406   C407    1.514   .     S
C406   H429    1.111   .     S
C407   C422    1.424   .     A
C407   N465    1.386   .     A
C408   H426    1.111   .     S
C408   H464    1.110   .     S
C408   H427    1.110   .     S
C409   H434    1.110   .     S
C409   C418    1.519   .     S
C409   C410    1.534   .     S
C409   H433    1.098   .     S
C410   H430    1.111   .     S
C410   H432    1.112   .     S
C410   H431    1.105   .     S
C411   H439    1.088   .     S
C411   H440    1.111   .     S
C411   C420    1.514   .     S
C411   C412    1.529   .     S
C412   H435    1.110   .     S
C412   H438    1.110   .     S
C412   H437    1.111   .     S
C413   H445    1.110   .     S
C413   C414    1.534   .     S
C413   H444    1.098   .     S
C413   C421    1.519   .     S
C414   H441    1.111   .     S
C414   H443    1.112   .     S
C414   H442    1.105   .     S
C415   H449    1.109   .     S
C415   H448    1.114   .     S
C415   O478    1.409   .     S
C415   H638    1.110   1_545 S
C416   H452    1.109   .     S
C416   O468    1.409   .     S
C416   H451    1.113   .     S
C416   H450    1.112   .     S
C417   O469    1.409   .     S
C417   H454    1.114   .     S
C417   H455    1.109   .     S
C417   H645    1.110   1_545 S
C418   C423    1.429   .     A
C418   N466    1.400   .     A
C419   H459    1.109   .     S
C419   H456    1.112   .     S
C419   H457    1.113   .     S
C419   O470    1.409   .     S
C420   C424    1.424   .     A
C420   N465    1.386   .     A
C421   N466    1.400   .     A
C422   O478    1.385   .     S
C423   O468    1.384   .     S
C424   O469    1.385   .     S
H446   C607    1.110   .     S
H453   C609    1.110   .     S
N465   Zn480   2.039   .     S
N466   Zn479   2.039   .     S
O467   Zn479   1.990   .     S
O471   Zn480   1.990   .     S
O472   Zn479   1.990   .     S
O473   Zn480   1.990   .     S
O474   Zn479   1.950   .     S
O475   Zn480   1.950   .     S
O476   Zn479   1.950   .     S
O477   Zn480   1.950   .     S
C481   C498    1.434   .     S
C481   O569    1.296   .     A
C481   O563    1.302   .     A
C482   C486    1.398   .     A
C482   C517    1.429   .     A
C482   O566    1.384   .     S
C483   O570    1.289   .     A
C483   C487    1.368   .     S
C483   O573    1.289   .     A
C484   C488    1.368   .     S
C484   O571    1.289   .     A
C484   O572    1.289   .     A
C485   C518    1.409   .     A
C485   C520    1.409   .     A
C485   C678    1.524   1_545 S
C486   C519    1.398   .     A
C486   C677    1.524   .     S
C488   C871    1.167   .     S
C489   C494    1.380   .     A
C489   C500    1.394   .     A
C489   H521    1.084   .     S
C490   H532    1.084   .     S
C490   C495    1.382   .     A
C490   C501    1.394   .     A
C491   C501    1.394   .     A
C491   C496    1.380   .     A
C491   H543    1.084   .     S
C492   O568    1.302   .     A
C492   O567    1.296   .     A
C492   C499    1.434   .     S
C493   C500    1.394   .     A
C493   C497    1.382   .     A
C493   H554    1.084   .     S
C494   C498    1.397   .     A
C494   H556    1.078   .     S
C495   C499    1.400   .     A
C495   H557    1.084   .     S
C496   C499    1.397   .     A
C496   H558    1.078   .     S
C497   H559    1.084   .     S
C497   C498    1.400   .     A
C501   C404    1.427   1_655 S
C502   H524    1.088   .     S
C502   C504    1.529   .     S
C502   C503    1.514   .     S
C502   H525    1.111   .     S
C503   C518    1.424   .     A
C503   N561    1.386   .     A
C504   H522    1.111   .     S
C504   H560    1.110   .     S
C504   H523    1.110   .     S
C505   H530    1.110   .     S
C505   C514    1.519   .     S
C505   C506    1.534   .     S
C505   H529    1.098   .     S
C506   H526    1.111   .     S
C506   H528    1.112   .     S
C506   H527    1.105   .     S
C507   H535    1.088   .     S
C507   H536    1.111   .     S
C507   C516    1.514   .     S
C507   C508    1.529   .     S
C508   H531    1.110   .     S
C508   H534    1.110   .     S
C508   H533    1.111   .     S
C509   H541    1.110   .     S
C509   C510    1.534   .     S
C509   H540    1.098   .     S
C509   C517    1.519   .     S
C510   H537    1.111   .     S
C510   H539    1.112   .     S
C510   H538    1.105   .     S
C511   H545    1.109   .     S
C511   H544    1.114   .     S
C511   O574    1.409   .     S
C511   H734    1.110   1_545 S
C512   H548    1.109   .     S
C512   O564    1.409   .     S
C512   H547    1.113   .     S
C512   H546    1.112   .     S
C513   O565    1.409   .     S
C513   H550    1.114   .     S
C513   H551    1.109   .     S
C513   H741    1.110   1_545 S
C514   C519    1.429   .     A
C514   N562    1.400   .     A
C515   H555    1.109   .     S
C515   H552    1.112   .     S
C515   H553    1.113   .     S
C515   O566    1.409   .     S
C516   C520    1.424   .     A
C516   N561    1.386   .     A
C517   N562    1.400   .     A
C518   O574    1.385   .     S
C519   O564    1.384   .     S
C520   O565    1.385   .     S
H542   C703    1.110   .     S
H549   C705    1.110   .     S
N561   Zn576   2.039   .     S
N562   Zn575   2.039   .     S
O563   Zn575   1.990   .     S
O567   Zn576   1.990   .     S
O568   Zn575   1.990   .     S
O569   Zn576   1.990   .     S
O570   Zn575   1.950   .     S
O571   Zn576   1.950   .     S
O572   Zn575   1.950   .     S
O573   Zn576   1.950   .     S
C577   C594    1.434   .     S
C577   O665    1.296   .     A
C577   O659    1.302   .     A
C578   C582    1.398   .     A
C578   C613    1.429   .     A
C578   O662    1.384   .     S
C579   O666    1.289   .     A
C579   C583    1.368   .     S
C579   O669    1.289   .     A
C580   C584    1.368   .     S
C580   O667    1.289   .     A
C580   O668    1.289   .     A
C581   C614    1.409   .     A
C581   C616    1.409   .     A
C582   C615    1.398   .     A
C582   C389    1.524   1_565 S
C584   C967    1.167   .     S
C585   C590    1.380   .     A
C585   C596    1.394   .     A
C585   H617    1.084   .     S
C586   H628    1.084   .     S
C586   C591    1.382   .     A
C586   C597    1.394   .     A
C587   C597    1.394   .     A
C587   C592    1.380   .     A
C587   H639    1.084   .     S
C588   O664    1.302   .     A
C588   O663    1.296   .     A
C588   C595    1.434   .     S
C589   C596    1.394   .     A
C589   C593    1.382   .     A
C589   H650    1.084   .     S
C590   C594    1.397   .     A
C590   H652    1.078   .     S
C591   C595    1.400   .     A
C591   H653    1.084   .     S
C592   C595    1.397   .     A
C592   H654    1.078   .     S
C593   H655    1.084   .     S
C593   C594    1.400   .     A
C596   C693    1.427   1_455 S
C597   C692    1.427   .     S
C598   H620    1.088   .     S
C598   C600    1.529   .     S
C598   C599    1.514   .     S
C598   H621    1.111   .     S
C599   C614    1.424   .     A
C599   N657    1.386   .     A
C600   H618    1.111   .     S
C600   H656    1.110   .     S
C600   H619    1.110   .     S
C601   H626    1.110   .     S
C601   C610    1.519   .     S
C601   C602    1.534   .     S
C601   H625    1.098   .     S
C602   H622    1.111   .     S
C602   H624    1.112   .     S
C602   H623    1.105   .     S
C603   H631    1.088   .     S
C603   H632    1.111   .     S
C603   C612    1.514   .     S
C603   C604    1.529   .     S
C604   H627    1.110   .     S
C604   H630    1.110   .     S
C604   H629    1.111   .     S
C605   H637    1.110   .     S
C605   C606    1.534   .     S
C605   H636    1.098   .     S
C605   C613    1.519   .     S
C606   H633    1.111   .     S
C606   H635    1.112   .     S
C606   H634    1.105   .     S
C607   H641    1.109   .     S
C607   H640    1.114   .     S
C607   O670    1.409   .     S
C608   H644    1.109   .     S
C608   O660    1.409   .     S
C608   H643    1.113   .     S
C608   H642    1.112   .     S
C609   O661    1.409   .     S
C609   H646    1.114   .     S
C609   H647    1.109   .     S
C610   C615    1.429   .     A
C610   N658    1.400   .     A
C611   H651    1.109   .     S
C611   H648    1.112   .     S
C611   H649    1.113   .     S
C611   O662    1.409   .     S
C612   C616    1.424   .     A
C612   N657    1.386   .     A
C613   N658    1.400   .     A
C614   O670    1.385   .     S
C615   O660    1.384   .     S
C616   O661    1.385   .     S
H638   C415    1.110   1_565 S
H645   C417    1.110   1_565 S
N657   Zn672   2.039   .     S
N658   Zn671   2.039   .     S
O659   Zn671   1.990   .     S
O663   Zn672   1.990   .     S
O664   Zn671   1.990   .     S
O665   Zn672   1.990   .     S
O666   Zn671   1.950   .     S
O667   Zn672   1.950   .     S
O668   Zn671   1.950   .     S
O669   Zn672   1.950   .     S
C673   C690    1.434   .     S
C673   O761    1.296   .     A
C673   O755    1.302   .     A
C674   C678    1.398   .     A
C674   C709    1.429   .     A
C674   O758    1.384   .     S
C675   O762    1.289   .     A
C675   C679    1.368   .     S
C675   O765    1.289   .     A
C676   C680    1.368   .     S
C676   O763    1.289   .     A
C676   O764    1.289   .     A
C677   C710    1.409   .     A
C677   C712    1.409   .     A
C678   C711    1.398   .     A
C678   C485    1.524   1_565 S
C680   C1063   1.167   .     S
C681   C686    1.380   .     A
C681   C692    1.394   .     A
C681   H713    1.084   .     S
C682   H724    1.084   .     S
C682   C687    1.382   .     A
C682   C693    1.394   .     A
C683   C693    1.394   .     A
C683   C688    1.380   .     A
C683   H735    1.084   .     S
C684   O760    1.302   .     A
C684   O759    1.296   .     A
C684   C691    1.434   .     S
C685   C692    1.394   .     A
C685   C689    1.382   .     A
C685   H746    1.084   .     S
C686   C690    1.397   .     A
C686   H748    1.078   .     S
C687   C691    1.400   .     A
C687   H749    1.084   .     S
C688   C691    1.397   .     A
C688   H750    1.078   .     S
C689   H751    1.084   .     S
C689   C690    1.400   .     A
C693   C596    1.427   1_655 S
C694   H716    1.088   .     S
C694   C696    1.529   .     S
C694   C695    1.514   .     S
C694   H717    1.111   .     S
C695   C710    1.424   .     A
C695   N753    1.386   .     A
C696   H714    1.111   .     S
C696   H752    1.110   .     S
C696   H715    1.110   .     S
C697   H722    1.110   .     S
C697   C706    1.519   .     S
C697   C698    1.534   .     S
C697   H721    1.098   .     S
C698   H718    1.111   .     S
C698   H720    1.112   .     S
C698   H719    1.105   .     S
C699   H727    1.088   .     S
C699   H728    1.111   .     S
C699   C708    1.514   .     S
C699   C700    1.529   .     S
C700   H723    1.110   .     S
C700   H726    1.110   .     S
C700   H725    1.111   .     S
C701   H733    1.110   .     S
C701   C702    1.534   .     S
C701   H732    1.098   .     S
C701   C709    1.519   .     S
C702   H729    1.111   .     S
C702   H731    1.112   .     S
C702   H730    1.105   .     S
C703   H737    1.109   .     S
C703   H736    1.114   .     S
C703   O766    1.409   .     S
C704   H740    1.109   .     S
C704   O756    1.409   .     S
C704   H739    1.113   .     S
C704   H738    1.112   .     S
C705   O757    1.409   .     S
C705   H742    1.114   .     S
C705   H743    1.109   .     S
C706   C711    1.429   .     A
C706   N754    1.400   .     A
C707   H747    1.109   .     S
C707   H744    1.112   .     S
C707   H745    1.113   .     S
C707   O758    1.409   .     S
C708   C712    1.424   .     A
C708   N753    1.386   .     A
C709   N754    1.400   .     A
C710   O766    1.385   .     S
C711   O756    1.384   .     S
C712   O757    1.385   .     S
H734   C511    1.110   1_565 S
H741   C513    1.110   1_565 S
N753   Zn768   2.039   .     S
N754   Zn767   2.039   .     S
O755   Zn767   1.990   .     S
O759   Zn768   1.990   .     S
O760   Zn767   1.990   .     S
O761   Zn768   1.990   .     S
O762   Zn767   1.950   .     S
O763   Zn768   1.950   .     S
O764   Zn767   1.950   .     S
O765   Zn768   1.950   .     S
C769   C786    1.434   .     S
C769   O857    1.296   .     A
C769   O851    1.302   .     A
C770   C774    1.398   .     A
C770   C805    1.429   .     A
C770   O854    1.384   .     S
C771   O858    1.289   .     A
C771   C775    1.368   .     S
C771   O861    1.289   .     A
C772   C776    1.368   .     S
C772   O859    1.289   .     A
C772   O860    1.289   .     A
C773   C806    1.409   .     A
C773   C808    1.409   .     A
C773   C966    1.524   1_545 S
C774   C807    1.398   .     A
C774   C965    1.524   .     S
C776   C7      1.167   1_556 S
C777   C782    1.380   .     A
C777   C788    1.394   .     A
C777   H809    1.084   .     S
C778   H820    1.084   .     S
C778   C783    1.382   .     A
C778   C789    1.394   .     A
C779   C789    1.394   .     A
C779   C784    1.380   .     A
C779   H831    1.084   .     S
C780   O856    1.302   .     A
C780   O855    1.296   .     A
C780   C787    1.434   .     S
C781   C788    1.394   .     A
C781   C785    1.382   .     A
C781   H842    1.084   .     S
C782   C786    1.397   .     A
C782   H844    1.078   .     S
C783   C787    1.400   .     A
C783   H845    1.084   .     S
C784   C787    1.397   .     A
C784   H846    1.078   .     S
C785   H847    1.084   .     S
C785   C786    1.400   .     A
C788   C885    1.427   1_455 S
C789   C884    1.427   .     S
C790   H812    1.088   .     S
C790   C792    1.529   .     S
C790   C791    1.514   .     S
C790   H813    1.111   .     S
C791   C806    1.424   .     A
C791   N849    1.386   .     A
C792   H810    1.111   .     S
C792   H848    1.110   .     S
C792   H811    1.110   .     S
C793   H818    1.110   .     S
C793   C802    1.519   .     S
C793   C794    1.534   .     S
C793   H817    1.098   .     S
C794   H814    1.111   .     S
C794   H816    1.112   .     S
C794   H815    1.105   .     S
C795   H823    1.088   .     S
C795   H824    1.111   .     S
C795   C804    1.514   .     S
C795   C796    1.529   .     S
C796   H819    1.110   .     S
C796   H822    1.110   .     S
C796   H821    1.111   .     S
C797   H829    1.110   .     S
C797   C798    1.534   .     S
C797   H828    1.098   .     S
C797   C805    1.519   .     S
C798   H825    1.111   .     S
C798   H827    1.112   .     S
C798   H826    1.105   .     S
C799   H833    1.109   .     S
C799   H832    1.114   .     S
C799   O862    1.409   .     S
C799   H1022   1.110   1_545 S
C800   H836    1.109   .     S
C800   O852    1.409   .     S
C800   H835    1.113   .     S
C800   H834    1.112   .     S
C801   O853    1.409   .     S
C801   H838    1.114   .     S
C801   H839    1.109   .     S
C801   H1029   1.110   1_545 S
C802   C807    1.429   .     A
C802   N850    1.400   .     A
C803   H843    1.109   .     S
C803   H840    1.112   .     S
C803   H841    1.113   .     S
C803   O854    1.409   .     S
C804   C808    1.424   .     A
C804   N849    1.386   .     A
C805   N850    1.400   .     A
C806   O862    1.385   .     S
C807   O852    1.384   .     S
C808   O853    1.385   .     S
H830   C991    1.110   .     S
H837   C993    1.110   .     S
N849   Zn864   2.039   .     S
N850   Zn863   2.039   .     S
O851   Zn863   1.990   .     S
O855   Zn864   1.990   .     S
O856   Zn863   1.990   .     S
O857   Zn864   1.990   .     S
O858   Zn863   1.950   .     S
O859   Zn864   1.950   .     S
O860   Zn863   1.950   .     S
O861   Zn864   1.950   .     S
C865   C882    1.434   .     S
C865   O953    1.296   .     A
C865   O947    1.302   .     A
C866   C870    1.398   .     A
C866   C901    1.429   .     A
C866   O950    1.384   .     S
C867   O954    1.289   .     A
C867   C871    1.368   .     S
C867   O957    1.289   .     A
C868   C872    1.368   .     S
C868   O955    1.289   .     A
C868   O956    1.289   .     A
C869   C902    1.409   .     A
C869   C904    1.409   .     A
C869   C1062   1.524   1_545 S
C870   C903    1.398   .     A
C870   C1061   1.524   .     S
C872   C103    1.167   1_556 S
C873   C878    1.380   .     A
C873   C884    1.394   .     A
C873   H905    1.084   .     S
C874   H916    1.084   .     S
C874   C879    1.382   .     A
C874   C885    1.394   .     A
C875   C885    1.394   .     A
C875   C880    1.380   .     A
C875   H927    1.084   .     S
C876   O952    1.302   .     A
C876   O951    1.296   .     A
C876   C883    1.434   .     S
C877   C884    1.394   .     A
C877   C881    1.382   .     A
C877   H938    1.084   .     S
C878   C882    1.397   .     A
C878   H940    1.078   .     S
C879   C883    1.400   .     A
C879   H941    1.084   .     S
C880   C883    1.397   .     A
C880   H942    1.078   .     S
C881   H943    1.084   .     S
C881   C882    1.400   .     A
C885   C788    1.427   1_655 S
C886   H908    1.088   .     S
C886   C888    1.529   .     S
C886   C887    1.514   .     S
C886   H909    1.111   .     S
C887   C902    1.424   .     A
C887   N945    1.386   .     A
C888   H906    1.111   .     S
C888   H944    1.110   .     S
C888   H907    1.110   .     S
C889   H914    1.110   .     S
C889   C898    1.519   .     S
C889   C890    1.534   .     S
C889   H913    1.098   .     S
C890   H910    1.111   .     S
C890   H912    1.112   .     S
C890   H911    1.105   .     S
C891   H919    1.088   .     S
C891   H920    1.111   .     S
C891   C900    1.514   .     S
C891   C892    1.529   .     S
C892   H915    1.110   .     S
C892   H918    1.110   .     S
C892   H917    1.111   .     S
C893   H925    1.110   .     S
C893   C894    1.534   .     S
C893   H924    1.098   .     S
C893   C901    1.519   .     S
C894   H921    1.111   .     S
C894   H923    1.112   .     S
C894   H922    1.105   .     S
C895   H929    1.109   .     S
C895   H928    1.114   .     S
C895   O958    1.409   .     S
C895   H1118   1.110   1_545 S
C896   H932    1.109   .     S
C896   O948    1.409   .     S
C896   H931    1.113   .     S
C896   H930    1.112   .     S
C897   O949    1.409   .     S
C897   H934    1.114   .     S
C897   H935    1.109   .     S
C897   H1125   1.110   1_545 S
C898   C903    1.429   .     A
C898   N946    1.400   .     A
C899   H939    1.109   .     S
C899   H936    1.112   .     S
C899   H937    1.113   .     S
C899   O950    1.409   .     S
C900   C904    1.424   .     A
C900   N945    1.386   .     A
C901   N946    1.400   .     A
C902   O958    1.385   .     S
C903   O948    1.384   .     S
C904   O949    1.385   .     S
H926   C1087   1.110   .     S
H933   C1089   1.110   .     S
N945   Zn960   2.039   .     S
N946   Zn959   2.039   .     S
O947   Zn959   1.990   .     S
O951   Zn960   1.990   .     S
O952   Zn959   1.990   .     S
O953   Zn960   1.990   .     S
O954   Zn959   1.950   .     S
O955   Zn960   1.950   .     S
O956   Zn959   1.950   .     S
O957   Zn960   1.950   .     S
C961   C978    1.434   .     S
C961   O1049   1.296   .     A
C961   O1043   1.302   .     A
C962   C966    1.398   .     A
C962   C997    1.429   .     A
C962   O1046   1.384   .     S
C963   O1050   1.289   .     A
C963   C967    1.368   .     S
C963   O1053   1.289   .     A
C964   C968    1.368   .     S
C964   O1051   1.289   .     A
C964   O1052   1.289   .     A
C965   C998    1.409   .     A
C965   C1000   1.409   .     A
C966   C999    1.398   .     A
C966   C773    1.524   1_565 S
C968   C199    1.167   1_556 S
C969   C974    1.380   .     A
C969   C980    1.394   .     A
C969   H1001   1.084   .     S
C970   H1012   1.084   .     S
C970   C975    1.382   .     A
C970   C981    1.394   .     A
C971   C981    1.394   .     A
C971   C976    1.380   .     A
C971   H1023   1.084   .     S
C972   O1048   1.302   .     A
C972   O1047   1.296   .     A
C972   C979    1.434   .     S
C973   C980    1.394   .     A
C973   C977    1.382   .     A
C973   H1034   1.084   .     S
C974   C978    1.397   .     A
C974   H1036   1.078   .     S
C975   C979    1.400   .     A
C975   H1037   1.084   .     S
C976   C979    1.397   .     A
C976   H1038   1.078   .     S
C977   H1039   1.084   .     S
C977   C978    1.400   .     A
C980   C1077   1.427   1_455 S
C981   C1076   1.427   .     S
C982   H1004   1.088   .     S
C982   C984    1.529   .     S
C982   C983    1.514   .     S
C982   H1005   1.111   .     S
C983   C998    1.424   .     A
C983   N1041   1.386   .     A
C984   H1002   1.111   .     S
C984   H1040   1.110   .     S
C984   H1003   1.110   .     S
C985   H1010   1.110   .     S
C985   C994    1.519   .     S
C985   C986    1.534   .     S
C985   H1009   1.098   .     S
C986   H1006   1.111   .     S
C986   H1008   1.112   .     S
C986   H1007   1.105   .     S
C987   H1015   1.088   .     S
C987   H1016   1.111   .     S
C987   C996    1.514   .     S
C987   C988    1.529   .     S
C988   H1011   1.110   .     S
C988   H1014   1.110   .     S
C988   H1013   1.111   .     S
C989   H1021   1.110   .     S
C989   C990    1.534   .     S
C989   H1020   1.098   .     S
C989   C997    1.519   .     S
C990   H1017   1.111   .     S
C990   H1019   1.112   .     S
C990   H1018   1.105   .     S
C991   H1025   1.109   .     S
C991   H1024   1.114   .     S
C991   O1054   1.409   .     S
C992   H1028   1.109   .     S
C992   O1044   1.409   .     S
C992   H1027   1.113   .     S
C992   H1026   1.112   .     S
C993   O1045   1.409   .     S
C993   H1030   1.114   .     S
C993   H1031   1.109   .     S
C994   C999    1.429   .     A
C994   N1042   1.400   .     A
C995   H1035   1.109   .     S
C995   H1032   1.112   .     S
C995   H1033   1.113   .     S
C995   O1046   1.409   .     S
C996   C1000   1.424   .     A
C996   N1041   1.386   .     A
C997   N1042   1.400   .     A
C998   O1054   1.385   .     S
C999   O1044   1.384   .     S
C1000  O1045   1.385   .     S
H1022  C799    1.110   1_565 S
H1029  C801    1.110   1_565 S
N1041  Zn1056  2.039   .     S
N1042  Zn1055  2.039   .     S
O1043  Zn1055  1.990   .     S
O1047  Zn1056  1.990   .     S
O1048  Zn1055  1.990   .     S
O1049  Zn1056  1.990   .     S
O1050  Zn1055  1.950   .     S
O1051  Zn1056  1.950   .     S
O1052  Zn1055  1.950   .     S
O1053  Zn1056  1.950   .     S
C1057  C1074   1.434   .     S
C1057  O1145   1.296   .     A
C1057  O1139   1.302   .     A
C1058  C1062   1.398   .     A
C1058  C1093   1.429   .     A
C1058  O1142   1.384   .     S
C1059  O1146   1.289   .     A
C1059  C1063   1.368   .     S
C1059  O1149   1.289   .     A
C1060  C1064   1.368   .     S
C1060  O1147   1.289   .     A
C1060  O1148   1.289   .     A
C1061  C1094   1.409   .     A
C1061  C1096   1.409   .     A
C1062  C1095   1.398   .     A
C1062  C869    1.524   1_565 S
C1064  C295    1.167   1_556 S
C1065  C1070   1.380   .     A
C1065  C1076   1.394   .     A
C1065  H1097   1.084   .     S
C1066  H1108   1.084   .     S
C1066  C1071   1.382   .     A
C1066  C1077   1.394   .     A
C1067  C1077   1.394   .     A
C1067  C1072   1.380   .     A
C1067  H1119   1.084   .     S
C1068  O1144   1.302   .     A
C1068  O1143   1.296   .     A
C1068  C1075   1.434   .     S
C1069  C1076   1.394   .     A
C1069  C1073   1.382   .     A
C1069  H1130   1.084   .     S
C1070  C1074   1.397   .     A
C1070  H1132   1.078   .     S
C1071  C1075   1.400   .     A
C1071  H1133   1.084   .     S
C1072  C1075   1.397   .     A
C1072  H1134   1.078   .     S
C1073  H1135   1.084   .     S
C1073  C1074   1.400   .     A
C1077  C980    1.427   1_655 S
C1078  H1100   1.088   .     S
C1078  C1080   1.529   .     S
C1078  C1079   1.514   .     S
C1078  H1101   1.111   .     S
C1079  C1094   1.424   .     A
C1079  N1137   1.386   .     A
C1080  H1098   1.111   .     S
C1080  H1136   1.110   .     S
C1080  H1099   1.110   .     S
C1081  H1106   1.110   .     S
C1081  C1090   1.519   .     S
C1081  C1082   1.534   .     S
C1081  H1105   1.098   .     S
C1082  H1102   1.111   .     S
C1082  H1104   1.112   .     S
C1082  H1103   1.105   .     S
C1083  H1111   1.088   .     S
C1083  H1112   1.111   .     S
C1083  C1092   1.514   .     S
C1083  C1084   1.529   .     S
C1084  H1107   1.110   .     S
C1084  H1110   1.110   .     S
C1084  H1109   1.111   .     S
C1085  H1117   1.110   .     S
C1085  C1086   1.534   .     S
C1085  H1116   1.098   .     S
C1085  C1093   1.519   .     S
C1086  H1113   1.111   .     S
C1086  H1115   1.112   .     S
C1086  H1114   1.105   .     S
C1087  H1121   1.109   .     S
C1087  H1120   1.114   .     S
C1087  O1150   1.409   .     S
C1088  H1124   1.109   .     S
C1088  O1140   1.409   .     S
C1088  H1123   1.113   .     S
C1088  H1122   1.112   .     S
C1089  O1141   1.409   .     S
C1089  H1126   1.114   .     S
C1089  H1127   1.109   .     S
C1090  C1095   1.429   .     A
C1090  N1138   1.400   .     A
C1091  H1131   1.109   .     S
C1091  H1128   1.112   .     S
C1091  H1129   1.113   .     S
C1091  O1142   1.409   .     S
C1092  C1096   1.424   .     A
C1092  N1137   1.386   .     A
C1093  N1138   1.400   .     A
C1094  O1150   1.385   .     S
C1095  O1140   1.384   .     S
C1096  O1141   1.385   .     S
H1118  C895    1.110   1_565 S
H1125  C897    1.110   1_565 S
N1137  Zn1152  2.039   .     S
N1138  Zn1151  2.039   .     S
O1139  Zn1151  1.990   .     S
O1143  Zn1152  1.990   .     S
O1144  Zn1151  1.990   .     S
O1145  Zn1152  1.990   .     S
O1146  Zn1151  1.950   .     S
O1147  Zn1152  1.950   .     S
O1148  Zn1151  1.950   .     S
O1149  Zn1152  1.950   .     S
