data_str_m1_o1_o2_pcu_sym.80
_audit_creation_date              2020-01-03
_audit_creation_method            'Materials Studio'
_symmetry_space_group_name_H-M    'P1'
_symmetry_Int_Tables_number       1
_symmetry_cell_setting            triclinic
loop_
_symmetry_equiv_pos_as_xyz
  x,y,z
_cell_length_a                    36.5623
_cell_length_b                    36.5623
_cell_length_c                    34.4375
_cell_angle_alpha                 90.0001
_cell_angle_beta                  90.0000
_cell_angle_gamma                 90.0000
loop_
_atom_site_label
_atom_site_type_symbol
_atom_site_fract_x
_atom_site_fract_y
_atom_site_fract_z
_atom_site_U_iso_or_equiv
_atom_site_adp_type
_atom_site_occupancy
Br1    Br    0.10376   0.46065   0.27536   0.00000  Uiso   1.00
Br2    Br    0.32541   0.38983   0.17000   0.00000  Uiso   1.00
Br3    Br    0.11017   0.32541   0.83000   0.00000  Uiso   1.00
Br4    Br    0.46065   0.10376   0.27536   0.00000  Uiso   1.00
Br5    Br    0.39624   0.46065   0.72464   0.00000  Uiso   1.00
Br6    Br    0.17459   0.11017   0.17000   0.00000  Uiso   1.00
Br7    Br    0.38983   0.17459   0.83000   0.00000  Uiso   1.00
Br8    Br    0.03935   0.39624   0.27536   0.00000  Uiso   1.00
Br9    Br    0.42459   0.13983   0.67000   0.00000  Uiso   1.00
Br10   Br    0.14624   0.28935   0.22464   0.00000  Uiso   1.00
Br11   Br    0.28935   0.35376   0.77536   0.00000  Uiso   1.00
Br12   Br    0.32541   0.11017   0.83000   0.00000  Uiso   1.00
Br13   Br    0.13983   0.07541   0.33000   0.00000  Uiso   1.00
Br14   Br    0.07541   0.36017   0.67000   0.00000  Uiso   1.00
Br15   Br    0.35376   0.21065   0.22464   0.00000  Uiso   1.00
Br16   Br    0.21065   0.14624   0.77536   0.00000  Uiso   1.00
Br17   Br    0.36017   0.42459   0.33000   0.00000  Uiso   1.00
Br18   Br    0.42459   0.36017   0.33000   0.00000  Uiso   1.00
Br19   Br    0.14624   0.21065   0.77536   0.00000  Uiso   1.00
Br20   Br    0.28935   0.14624   0.22464   0.00000  Uiso   1.00
Br21   Br    0.13983   0.42459   0.67000   0.00000  Uiso   1.00
Br22   Br    0.07541   0.13983   0.33000   0.00000  Uiso   1.00
Br23   Br    0.11017   0.17459   0.17000   0.00000  Uiso   1.00
Br24   Br    0.35376   0.28935   0.77536   0.00000  Uiso   1.00
Br25   Br    0.21065   0.35376   0.22464   0.00000  Uiso   1.00
Br26   Br    0.36017   0.07541   0.67000   0.00000  Uiso   1.00
Br27   Br    0.21686   0.42749   0.10838   0.00000  Uiso   1.00
Br28   Br    0.28315   0.42749   0.89162   0.00000  Uiso   1.00
Br29   Br    0.42749   0.21686   0.10837   0.00000  Uiso   1.00
Br30   Br    0.42749   0.28315   0.89162   0.00000  Uiso   1.00
Br31   Br    0.28314   0.07251   0.10837   0.00000  Uiso   1.00
Br32   Br    0.21686   0.07251   0.89162   0.00000  Uiso   1.00
Br33   Br    0.07251   0.28314   0.10838   0.00000  Uiso   1.00
Br34   Br    0.46065   0.39624   0.72464   0.00000  Uiso   1.00
Br35   Br    0.07251   0.21685   0.89162   0.00000  Uiso   1.00
Br36   Br    0.46685   0.32251   0.60837   0.00000  Uiso   1.00
Br37   Br    0.03314   0.32251   0.39162   0.00000  Uiso   1.00
Br38   Br    0.32251   0.46687   0.60837   0.00000  Uiso   1.00
Br39   Br    0.32250   0.03315   0.39163   0.00000  Uiso   1.00
Br40   Br    0.03315   0.17749   0.60837   0.00000  Uiso   1.00
Br41   Br    0.46686   0.17749   0.39162   0.00000  Uiso   1.00
Br42   Br    0.17749   0.03313   0.60837   0.00000  Uiso   1.00
Br43   Br    0.17750   0.46685   0.39162   0.00000  Uiso   1.00
Br44   Br    0.39624   0.03935   0.27536   0.00000  Uiso   1.00
Br45   Br    0.17459   0.38983   0.83000   0.00000  Uiso   1.00
Br46   Br    0.38983   0.32541   0.17000   0.00000  Uiso   1.00
Br47   Br    0.03935   0.10376   0.72464   0.00000  Uiso   1.00
Br48   Br    0.10376   0.03935   0.72464   0.00000  Uiso   1.00
C49    C     0.23608   0.46990   0.04170   0.00000  Uiso   1.00
C50    C     0.01392   0.28010   0.45830   0.00000  Uiso   1.00
C51    C     0.34809   0.40191   0.75000   0.00000  Uiso   1.00
C52    C     0.40191   0.15191   0.25000   0.00000  Uiso   1.00
C53    C     0.09809   0.34809   0.75000   0.00000  Uiso   1.00
C54    C     0.34809   0.40191   0.25000   0.00000  Uiso   1.00
C55    C     0.15191   0.09809   0.75000   0.00000  Uiso   1.00
C56    C     0.09809   0.15191   0.75000   0.00000  Uiso   1.00
C57    C     0.40191   0.34809   0.25000   0.00000  Uiso   1.00
C58    C     0.15191   0.40191   0.75000   0.00000  Uiso   1.00
C59    C     0.34809   0.09809   0.25000   0.00000  Uiso   1.00
C60    C     0.40191   0.34809   0.75000   0.00000  Uiso   1.00
C61    C     0.28010   0.48608   0.54170   0.00000  Uiso   1.00
C62    C     0.09809   0.15191   0.25000   0.00000  Uiso   1.00
C63    C     0.34809   0.09809   0.75000   0.00000  Uiso   1.00
C64    C     0.15191   0.40191   0.25000   0.00000  Uiso   1.00
C65    C     0.25000   0.00000   0.10257   0.00000  Uiso   1.00
C66    C     0.25000   0.00000   0.89743   0.00000  Uiso   1.00
C67    C     0.00000   0.25000   0.10257   0.00000  Uiso   1.00
C68    C     0.00000   0.25000   0.89743   0.00000  Uiso   1.00
C69    C     0.00000   0.25000   0.60257   0.00000  Uiso   1.00
C70    C     0.00000   0.25000   0.39743   0.00000  Uiso   1.00
C71    C     0.25000   0.00000   0.60257   0.00000  Uiso   1.00
C72    C     0.28010   0.01393   0.45830   0.00000  Uiso   1.00
C73    C     0.25000   0.00000   0.39743   0.00000  Uiso   1.00
C74    C     0.01392   0.21990   0.54170   0.00000  Uiso   1.00
C75    C     0.48608   0.21990   0.45830   0.00000  Uiso   1.00
C76    C     0.21990   0.01392   0.54170   0.00000  Uiso   1.00
C77    C     0.21990   0.48607   0.45830   0.00000  Uiso   1.00
C78    C     0.23580   0.46983   0.08217   0.00000  Uiso   1.00
C79    C     0.26421   0.46983   0.91783   0.00000  Uiso   1.00
C80    C     0.46983   0.23580   0.08217   0.00000  Uiso   1.00
C81    C     0.26392   0.46990   0.95830   0.00000  Uiso   1.00
C82    C     0.46983   0.26421   0.91783   0.00000  Uiso   1.00
C83    C     0.26420   0.03017   0.08217   0.00000  Uiso   1.00
C84    C     0.23579   0.03017   0.91783   0.00000  Uiso   1.00
C85    C     0.03017   0.26420   0.08217   0.00000  Uiso   1.00
C86    C     0.03017   0.23579   0.91783   0.00000  Uiso   1.00
C87    C     0.48579   0.28017   0.58217   0.00000  Uiso   1.00
C88    C     0.01420   0.28017   0.41783   0.00000  Uiso   1.00
C89    C     0.28017   0.48580   0.58217   0.00000  Uiso   1.00
C90    C     0.28017   0.01421   0.41783   0.00000  Uiso   1.00
C91    C     0.01421   0.21983   0.58217   0.00000  Uiso   1.00
C92    C     0.46990   0.23608   0.04170   0.00000  Uiso   1.00
C93    C     0.48580   0.21983   0.41783   0.00000  Uiso   1.00
C94    C     0.21983   0.01420   0.58217   0.00000  Uiso   1.00
C95    C     0.21983   0.48579   0.41783   0.00000  Uiso   1.00
C96    C     0.25000   0.00000   0.02132   0.00000  Uiso   1.00
C97    C     0.25000   0.00000   0.97868   0.00000  Uiso   1.00
C98    C     0.00000   0.25000   0.02132   0.00000  Uiso   1.00
C99    C     0.00000   0.25000   0.97868   0.00000  Uiso   1.00
C100   C     0.00000   0.25000   0.52132   0.00000  Uiso   1.00
C101   C     0.00000   0.25000   0.47868   0.00000  Uiso   1.00
C102   C     0.25000   0.00000   0.52132   0.00000  Uiso   1.00
C103   C     0.46990   0.26392   0.95830   0.00000  Uiso   1.00
C104   C     0.25000   0.00000   0.47868   0.00000  Uiso   1.00
C105   C     0.25000   0.00000   0.35514   0.00000  Uiso   1.00
C106   C     0.25000   0.00000   0.64486   0.00000  Uiso   1.00
C107   C     0.00000   0.25000   0.35514   0.00000  Uiso   1.00
C108   C     0.00000   0.25000   0.64486   0.00000  Uiso   1.00
C109   C     0.00000   0.25000   0.85514   0.00000  Uiso   1.00
C110   C     0.00000   0.25000   0.14486   0.00000  Uiso   1.00
C111   C     0.25000   0.00000   0.85514   0.00000  Uiso   1.00
C112   C     0.25000   0.00000   0.14486   0.00000  Uiso   1.00
C113   C     0.17997   0.07003   0.25000   0.00000  Uiso   1.00
C114   C     0.26392   0.03010   0.04170   0.00000  Uiso   1.00
C115   C     0.32003   0.42997   0.75000   0.00000  Uiso   1.00
C116   C     0.42997   0.17997   0.25000   0.00000  Uiso   1.00
C117   C     0.07003   0.32003   0.75000   0.00000  Uiso   1.00
C118   C     0.32003   0.42997   0.25000   0.00000  Uiso   1.00
C119   C     0.17997   0.07003   0.75000   0.00000  Uiso   1.00
C120   C     0.07003   0.32003   0.25000   0.00000  Uiso   1.00
C121   C     0.42997   0.17997   0.75000   0.00000  Uiso   1.00
C122   C     0.17997   0.42997   0.75000   0.00000  Uiso   1.00
C123   C     0.32003   0.07003   0.25000   0.00000  Uiso   1.00
C124   C     0.42997   0.32003   0.75000   0.00000  Uiso   1.00
C125   C     0.23608   0.03010   0.95830   0.00000  Uiso   1.00
C126   C     0.07003   0.17997   0.25000   0.00000  Uiso   1.00
C127   C     0.32003   0.07003   0.75000   0.00000  Uiso   1.00
C128   C     0.17997   0.42997   0.25000   0.00000  Uiso   1.00
C129   C     0.07003   0.17997   0.75000   0.00000  Uiso   1.00
C130   C     0.42997   0.32003   0.25000   0.00000  Uiso   1.00
C131   C     0.11579   0.41125   0.25998   0.00000  Uiso   1.00
C132   C     0.35461   0.11834   0.78403   0.00000  Uiso   1.00
C133   C     0.11834   0.14539   0.21597   0.00000  Uiso   1.00
C134   C     0.41125   0.38421   0.74002   0.00000  Uiso   1.00
C135   C     0.38421   0.08875   0.25998   0.00000  Uiso   1.00
C136   C     0.03010   0.26392   0.04170   0.00000  Uiso   1.00
C137   C     0.14539   0.38166   0.78403   0.00000  Uiso   1.00
C138   C     0.38166   0.35461   0.21597   0.00000  Uiso   1.00
C139   C     0.08875   0.11579   0.74002   0.00000  Uiso   1.00
C140   C     0.11579   0.08875   0.74002   0.00000  Uiso   1.00
C141   C     0.35461   0.38166   0.21597   0.00000  Uiso   1.00
C142   C     0.11834   0.35461   0.78403   0.00000  Uiso   1.00
C143   C     0.41125   0.11579   0.25998   0.00000  Uiso   1.00
C144   C     0.38421   0.41125   0.74002   0.00000  Uiso   1.00
C145   C     0.14539   0.11834   0.21597   0.00000  Uiso   1.00
C146   C     0.38166   0.14539   0.78403   0.00000  Uiso   1.00
C147   C     0.03010   0.23608   0.95830   0.00000  Uiso   1.00
C148   C     0.08875   0.38421   0.25998   0.00000  Uiso   1.00
C149   C     0.39539   0.13166   0.71597   0.00000  Uiso   1.00
C150   C     0.13421   0.33875   0.24002   0.00000  Uiso   1.00
C151   C     0.33875   0.36579   0.75998   0.00000  Uiso   1.00
C152   C     0.13166   0.10461   0.28403   0.00000  Uiso   1.00
C153   C     0.10461   0.36834   0.71597   0.00000  Uiso   1.00
C154   C     0.36579   0.16125   0.24002   0.00000  Uiso   1.00
C155   C     0.16125   0.13421   0.75998   0.00000  Uiso   1.00
C156   C     0.36834   0.39539   0.28403   0.00000  Uiso   1.00
C157   C     0.39539   0.36834   0.28403   0.00000  Uiso   1.00
C158   C     0.48608   0.28010   0.54170   0.00000  Uiso   1.00
C159   C     0.13421   0.16125   0.75998   0.00000  Uiso   1.00
C160   C     0.33875   0.13421   0.24002   0.00000  Uiso   1.00
C161   C     0.13166   0.39539   0.71597   0.00000  Uiso   1.00
C162   C     0.10461   0.13166   0.28403   0.00000  Uiso   1.00
C163   C     0.36579   0.33875   0.75998   0.00000  Uiso   1.00
C164   C     0.16125   0.36579   0.24002   0.00000  Uiso   1.00
C165   C     0.36834   0.10461   0.71597   0.00000  Uiso   1.00
C166   C     0.09809   0.34809   0.25000   0.00000  Uiso   1.00
C167   C     0.40191   0.15191   0.75000   0.00000  Uiso   1.00
C168   C     0.15191   0.09809   0.25000   0.00000  Uiso   1.00
H169   H     0.22511   0.44661   0.02613   0.00000  Uiso   1.00
H170   H     0.02489   0.30339   0.47387   0.00000  Uiso   1.00
H171   H     0.30340   0.47512   0.52613   0.00000  Uiso   1.00
H172   H     0.30339   0.02490   0.47387   0.00000  Uiso   1.00
H173   H     0.02489   0.19661   0.52613   0.00000  Uiso   1.00
H174   H     0.47511   0.19661   0.47387   0.00000  Uiso   1.00
H175   H     0.19660   0.02488   0.52613   0.00000  Uiso   1.00
H176   H     0.19661   0.47510   0.47387   0.00000  Uiso   1.00
H177   H     0.27489   0.44661   0.97387   0.00000  Uiso   1.00
H178   H     0.44661   0.22511   0.02613   0.00000  Uiso   1.00
H179   H     0.44661   0.27489   0.97387   0.00000  Uiso   1.00
H180   H     0.27489   0.05339   0.02613   0.00000  Uiso   1.00
H181   H     0.22511   0.05339   0.97387   0.00000  Uiso   1.00
H182   H     0.05339   0.27489   0.02613   0.00000  Uiso   1.00
H183   H     0.05339   0.22511   0.97387   0.00000  Uiso   1.00
H184   H     0.47511   0.30339   0.52613   0.00000  Uiso   1.00
O185   O     0.25000   0.00000   0.25000   0.00000  Uiso   1.00
O186   O     0.25000   0.46964   0.66317   0.00000  Uiso   1.00
O187   O     0.46964   0.25000   0.33683   0.00000  Uiso   1.00
O188   O     0.03036   0.25000   0.66317   0.00000  Uiso   1.00
O189   O     0.00000   0.21964   0.83683   0.00000  Uiso   1.00
O190   O     0.00000   0.28036   0.16317   0.00000  Uiso   1.00
O191   O     0.28036   0.00000   0.83683   0.00000  Uiso   1.00
O192   O     0.21964   0.00000   0.16317   0.00000  Uiso   1.00
O193   O     0.00000   0.28036   0.83683   0.00000  Uiso   1.00
O194   O     0.00000   0.21964   0.16317   0.00000  Uiso   1.00
O195   O     0.21964   0.00000   0.83683   0.00000  Uiso   1.00
O196   O     0.25000   0.00000   0.75000   0.00000  Uiso   1.00
O197   O     0.28036   0.00000   0.16317   0.00000  Uiso   1.00
O198   O     0.20726   0.07307   0.27282   0.00000  Uiso   1.00
O199   O     0.29275   0.42693   0.72718   0.00000  Uiso   1.00
O200   O     0.42693   0.20726   0.27282   0.00000  Uiso   1.00
O201   O     0.07307   0.29274   0.72718   0.00000  Uiso   1.00
O202   O     0.29275   0.42693   0.27282   0.00000  Uiso   1.00
O203   O     0.20726   0.07307   0.72718   0.00000  Uiso   1.00
O204   O     0.07307   0.29274   0.27282   0.00000  Uiso   1.00
O205   O     0.42693   0.20726   0.72718   0.00000  Uiso   1.00
O206   O     0.20726   0.42693   0.72718   0.00000  Uiso   1.00
O207   O     0.00000   0.25000   0.25000   0.00000  Uiso   1.00
O208   O     0.29275   0.07307   0.27282   0.00000  Uiso   1.00
O209   O     0.42693   0.29275   0.72718   0.00000  Uiso   1.00
O210   O     0.07307   0.20726   0.27282   0.00000  Uiso   1.00
O211   O     0.29275   0.07307   0.72718   0.00000  Uiso   1.00
O212   O     0.20726   0.42693   0.27282   0.00000  Uiso   1.00
O213   O     0.07307   0.20726   0.72718   0.00000  Uiso   1.00
O214   O     0.42693   0.29275   0.27282   0.00000  Uiso   1.00
O215   O     0.45726   0.32307   0.77282   0.00000  Uiso   1.00
O216   O     0.04275   0.17693   0.22718   0.00000  Uiso   1.00
O217   O     0.17693   0.45726   0.77282   0.00000  Uiso   1.00
O218   O     0.00000   0.25000   0.75000   0.00000  Uiso   1.00
O219   O     0.32307   0.04275   0.22718   0.00000  Uiso   1.00
O220   O     0.04275   0.17693   0.77282   0.00000  Uiso   1.00
O221   O     0.45726   0.32307   0.22718   0.00000  Uiso   1.00
O222   O     0.32307   0.04275   0.77282   0.00000  Uiso   1.00
O223   O     0.17693   0.45726   0.22718   0.00000  Uiso   1.00
O224   O     0.45726   0.17693   0.22718   0.00000  Uiso   1.00
O225   O     0.04275   0.32307   0.77282   0.00000  Uiso   1.00
O226   O     0.17693   0.04275   0.22718   0.00000  Uiso   1.00
O227   O     0.32307   0.45726   0.77282   0.00000  Uiso   1.00
O228   O     0.04275   0.32307   0.22718   0.00000  Uiso   1.00
O229   O     0.25000   0.46964   0.33683   0.00000  Uiso   1.00
O230   O     0.45726   0.17693   0.77282   0.00000  Uiso   1.00
O231   O     0.32307   0.45726   0.22718   0.00000  Uiso   1.00
O232   O     0.17693   0.04275   0.77282   0.00000  Uiso   1.00
O233   O     0.25000   0.03036   0.66317   0.00000  Uiso   1.00
O234   O     0.03036   0.25000   0.33683   0.00000  Uiso   1.00
O235   O     0.46964   0.25000   0.66317   0.00000  Uiso   1.00
O236   O     0.25000   0.03036   0.33683   0.00000  Uiso   1.00
Zn237  Zn    0.20660   0.00000   0.21760   0.00000  Uiso   1.00
Zn238  Zn    0.04340   0.25000   0.28240   0.00000  Uiso   1.00
Zn239  Zn    0.25000   0.45660   0.71760   0.00000  Uiso   1.00
Zn240  Zn    0.25000   0.04340   0.28240   0.00000  Uiso   1.00
Zn241  Zn    0.04340   0.25000   0.71760   0.00000  Uiso   1.00
Zn242  Zn    0.45660   0.25000   0.28240   0.00000  Uiso   1.00
Zn243  Zn    0.25000   0.04340   0.71760   0.00000  Uiso   1.00
Zn244  Zn    0.25000   0.45660   0.28240   0.00000  Uiso   1.00
Zn245  Zn    0.29340   0.00000   0.78240   0.00000  Uiso   1.00
Zn246  Zn    0.00000   0.20660   0.21760   0.00000  Uiso   1.00
Zn247  Zn    0.00000   0.29340   0.78240   0.00000  Uiso   1.00
Zn248  Zn    0.29340   0.00000   0.21760   0.00000  Uiso   1.00
Zn249  Zn    0.20660   0.00000   0.78240   0.00000  Uiso   1.00
Zn250  Zn    0.00000   0.29340   0.21760   0.00000  Uiso   1.00
Zn251  Zn    0.00000   0.20660   0.78240   0.00000  Uiso   1.00
Zn252  Zn    0.45660   0.25000   0.71760   0.00000  Uiso   1.00
Br253  Br    0.60376   0.46065   0.27536   0.00000  Uiso   1.00
Br254  Br    0.82541   0.38983   0.17000   0.00000  Uiso   1.00
Br255  Br    0.61017   0.32541   0.83000   0.00000  Uiso   1.00
Br256  Br    0.96065   0.10376   0.27536   0.00000  Uiso   1.00
Br257  Br    0.89624   0.46065   0.72464   0.00000  Uiso   1.00
Br258  Br    0.67459   0.11017   0.17000   0.00000  Uiso   1.00
Br259  Br    0.88983   0.17459   0.83000   0.00000  Uiso   1.00
Br260  Br    0.53935   0.39624   0.27536   0.00000  Uiso   1.00
Br261  Br    0.92459   0.13983   0.67000   0.00000  Uiso   1.00
Br262  Br    0.64624   0.28935   0.22464   0.00000  Uiso   1.00
Br263  Br    0.78935   0.35376   0.77536   0.00000  Uiso   1.00
Br264  Br    0.82541   0.11017   0.83000   0.00000  Uiso   1.00
Br265  Br    0.63983   0.07541   0.33000   0.00000  Uiso   1.00
Br266  Br    0.57541   0.36017   0.67000   0.00000  Uiso   1.00
Br267  Br    0.85376   0.21065   0.22464   0.00000  Uiso   1.00
Br268  Br    0.71065   0.14624   0.77536   0.00000  Uiso   1.00
Br269  Br    0.86017   0.42459   0.33000   0.00000  Uiso   1.00
Br270  Br    0.92459   0.36017   0.33000   0.00000  Uiso   1.00
Br271  Br    0.64624   0.21065   0.77536   0.00000  Uiso   1.00
Br272  Br    0.78935   0.14624   0.22464   0.00000  Uiso   1.00
Br273  Br    0.63983   0.42459   0.67000   0.00000  Uiso   1.00
Br274  Br    0.57541   0.13983   0.33000   0.00000  Uiso   1.00
Br275  Br    0.61017   0.17459   0.17000   0.00000  Uiso   1.00
Br276  Br    0.85376   0.28935   0.77536   0.00000  Uiso   1.00
Br277  Br    0.71065   0.35376   0.22464   0.00000  Uiso   1.00
Br278  Br    0.86017   0.07541   0.67000   0.00000  Uiso   1.00
Br279  Br    0.71686   0.42749   0.10838   0.00000  Uiso   1.00
Br280  Br    0.78315   0.42749   0.89162   0.00000  Uiso   1.00
Br281  Br    0.92749   0.21686   0.10837   0.00000  Uiso   1.00
Br282  Br    0.92749   0.28315   0.89162   0.00000  Uiso   1.00
Br283  Br    0.78314   0.07251   0.10837   0.00000  Uiso   1.00
Br284  Br    0.71686   0.07251   0.89162   0.00000  Uiso   1.00
Br285  Br    0.57251   0.28314   0.10838   0.00000  Uiso   1.00
Br286  Br    0.96065   0.39624   0.72464   0.00000  Uiso   1.00
Br287  Br    0.57251   0.21685   0.89162   0.00000  Uiso   1.00
Br288  Br    0.96685   0.32251   0.60837   0.00000  Uiso   1.00
Br289  Br    0.53314   0.32251   0.39162   0.00000  Uiso   1.00
Br290  Br    0.82251   0.46687   0.60837   0.00000  Uiso   1.00
Br291  Br    0.82250   0.03315   0.39163   0.00000  Uiso   1.00
Br292  Br    0.53315   0.17749   0.60837   0.00000  Uiso   1.00
Br293  Br    0.96686   0.17749   0.39162   0.00000  Uiso   1.00
Br294  Br    0.67749   0.03313   0.60837   0.00000  Uiso   1.00
Br295  Br    0.67750   0.46685   0.39162   0.00000  Uiso   1.00
Br296  Br    0.89624   0.03935   0.27536   0.00000  Uiso   1.00
Br297  Br    0.67459   0.38983   0.83000   0.00000  Uiso   1.00
Br298  Br    0.88983   0.32541   0.17000   0.00000  Uiso   1.00
Br299  Br    0.53935   0.10376   0.72464   0.00000  Uiso   1.00
Br300  Br    0.60376   0.03935   0.72464   0.00000  Uiso   1.00
C301   C     0.73608   0.46990   0.04170   0.00000  Uiso   1.00
C302   C     0.51392   0.28010   0.45830   0.00000  Uiso   1.00
C303   C     0.84809   0.40191   0.75000   0.00000  Uiso   1.00
C304   C     0.90191   0.15191   0.25000   0.00000  Uiso   1.00
C305   C     0.59809   0.34809   0.75000   0.00000  Uiso   1.00
C306   C     0.84809   0.40191   0.25000   0.00000  Uiso   1.00
C307   C     0.65191   0.09809   0.75000   0.00000  Uiso   1.00
C308   C     0.59809   0.15191   0.75000   0.00000  Uiso   1.00
C309   C     0.90191   0.34809   0.25000   0.00000  Uiso   1.00
C310   C     0.65191   0.40191   0.75000   0.00000  Uiso   1.00
C311   C     0.84809   0.09809   0.25000   0.00000  Uiso   1.00
C312   C     0.90191   0.34809   0.75000   0.00000  Uiso   1.00
C313   C     0.78010   0.48608   0.54170   0.00000  Uiso   1.00
C314   C     0.59809   0.15191   0.25000   0.00000  Uiso   1.00
C315   C     0.84809   0.09809   0.75000   0.00000  Uiso   1.00
C316   C     0.65191   0.40191   0.25000   0.00000  Uiso   1.00
C317   C     0.75000   0.00000   0.10257   0.00000  Uiso   1.00
C318   C     0.75000   0.00000   0.89743   0.00000  Uiso   1.00
C319   C     0.50000   0.25000   0.10257   0.00000  Uiso   1.00
C320   C     0.50000   0.25000   0.89743   0.00000  Uiso   1.00
C321   C     0.50000   0.25000   0.60257   0.00000  Uiso   1.00
C322   C     0.50000   0.25000   0.39743   0.00000  Uiso   1.00
C323   C     0.75000   0.00000   0.60257   0.00000  Uiso   1.00
C324   C     0.78010   0.01393   0.45830   0.00000  Uiso   1.00
C325   C     0.75000   0.00000   0.39743   0.00000  Uiso   1.00
C326   C     0.51392   0.21990   0.54170   0.00000  Uiso   1.00
C327   C     0.98608   0.21990   0.45830   0.00000  Uiso   1.00
C328   C     0.71990   0.01392   0.54170   0.00000  Uiso   1.00
C329   C     0.71990   0.48607   0.45830   0.00000  Uiso   1.00
C330   C     0.73580   0.46983   0.08217   0.00000  Uiso   1.00
C331   C     0.76421   0.46983   0.91783   0.00000  Uiso   1.00
C332   C     0.96983   0.23580   0.08217   0.00000  Uiso   1.00
C333   C     0.76392   0.46990   0.95830   0.00000  Uiso   1.00
C334   C     0.96983   0.26421   0.91783   0.00000  Uiso   1.00
C335   C     0.76420   0.03017   0.08217   0.00000  Uiso   1.00
C336   C     0.73579   0.03017   0.91783   0.00000  Uiso   1.00
C337   C     0.53017   0.26420   0.08217   0.00000  Uiso   1.00
C338   C     0.53017   0.23579   0.91783   0.00000  Uiso   1.00
C339   C     0.98579   0.28017   0.58217   0.00000  Uiso   1.00
C340   C     0.51420   0.28017   0.41783   0.00000  Uiso   1.00
C341   C     0.78017   0.48580   0.58217   0.00000  Uiso   1.00
C342   C     0.78017   0.01421   0.41783   0.00000  Uiso   1.00
C343   C     0.51421   0.21983   0.58217   0.00000  Uiso   1.00
C344   C     0.96990   0.23608   0.04170   0.00000  Uiso   1.00
C345   C     0.98580   0.21983   0.41783   0.00000  Uiso   1.00
C346   C     0.71983   0.01420   0.58217   0.00000  Uiso   1.00
C347   C     0.71983   0.48579   0.41783   0.00000  Uiso   1.00
C348   C     0.75000   0.00000   0.02132   0.00000  Uiso   1.00
C349   C     0.75000   0.00000   0.97868   0.00000  Uiso   1.00
C350   C     0.50000   0.25000   0.02132   0.00000  Uiso   1.00
C351   C     0.50000   0.25000   0.97868   0.00000  Uiso   1.00
C352   C     0.50000   0.25000   0.52132   0.00000  Uiso   1.00
C353   C     0.50000   0.25000   0.47868   0.00000  Uiso   1.00
C354   C     0.75000   0.00000   0.52132   0.00000  Uiso   1.00
C355   C     0.96990   0.26392   0.95830   0.00000  Uiso   1.00
C356   C     0.75000   0.00000   0.47868   0.00000  Uiso   1.00
C357   C     0.75000   0.00000   0.35514   0.00000  Uiso   1.00
C358   C     0.75000   0.00000   0.64486   0.00000  Uiso   1.00
C359   C     0.50000   0.25000   0.35514   0.00000  Uiso   1.00
C360   C     0.50000   0.25000   0.64486   0.00000  Uiso   1.00
C361   C     0.50000   0.25000   0.85514   0.00000  Uiso   1.00
C362   C     0.50000   0.25000   0.14486   0.00000  Uiso   1.00
C363   C     0.75000   0.00000   0.85514   0.00000  Uiso   1.00
C364   C     0.75000   0.00000   0.14486   0.00000  Uiso   1.00
C365   C     0.67997   0.07003   0.25000   0.00000  Uiso   1.00
C366   C     0.76392   0.03010   0.04170   0.00000  Uiso   1.00
C367   C     0.82003   0.42997   0.75000   0.00000  Uiso   1.00
C368   C     0.92997   0.17997   0.25000   0.00000  Uiso   1.00
C369   C     0.57003   0.32003   0.75000   0.00000  Uiso   1.00
C370   C     0.82003   0.42997   0.25000   0.00000  Uiso   1.00
C371   C     0.67997   0.07003   0.75000   0.00000  Uiso   1.00
C372   C     0.57003   0.32003   0.25000   0.00000  Uiso   1.00
C373   C     0.92997   0.17997   0.75000   0.00000  Uiso   1.00
C374   C     0.67997   0.42997   0.75000   0.00000  Uiso   1.00
C375   C     0.82003   0.07003   0.25000   0.00000  Uiso   1.00
C376   C     0.92997   0.32003   0.75000   0.00000  Uiso   1.00
C377   C     0.73608   0.03010   0.95830   0.00000  Uiso   1.00
C378   C     0.57003   0.17997   0.25000   0.00000  Uiso   1.00
C379   C     0.82003   0.07003   0.75000   0.00000  Uiso   1.00
C380   C     0.67997   0.42997   0.25000   0.00000  Uiso   1.00
C381   C     0.57003   0.17997   0.75000   0.00000  Uiso   1.00
C382   C     0.92997   0.32003   0.25000   0.00000  Uiso   1.00
C383   C     0.61579   0.41125   0.25998   0.00000  Uiso   1.00
C384   C     0.85461   0.11834   0.78403   0.00000  Uiso   1.00
C385   C     0.61834   0.14539   0.21597   0.00000  Uiso   1.00
C386   C     0.91125   0.38421   0.74002   0.00000  Uiso   1.00
C387   C     0.88421   0.08875   0.25998   0.00000  Uiso   1.00
C388   C     0.53010   0.26392   0.04170   0.00000  Uiso   1.00
C389   C     0.64539   0.38166   0.78403   0.00000  Uiso   1.00
C390   C     0.88166   0.35461   0.21597   0.00000  Uiso   1.00
C391   C     0.58875   0.11579   0.74002   0.00000  Uiso   1.00
C392   C     0.61579   0.08875   0.74002   0.00000  Uiso   1.00
C393   C     0.85461   0.38166   0.21597   0.00000  Uiso   1.00
C394   C     0.61834   0.35461   0.78403   0.00000  Uiso   1.00
C395   C     0.91125   0.11579   0.25998   0.00000  Uiso   1.00
C396   C     0.88421   0.41125   0.74002   0.00000  Uiso   1.00
C397   C     0.64539   0.11834   0.21597   0.00000  Uiso   1.00
C398   C     0.88166   0.14539   0.78403   0.00000  Uiso   1.00
C399   C     0.53010   0.23608   0.95830   0.00000  Uiso   1.00
C400   C     0.58875   0.38421   0.25998   0.00000  Uiso   1.00
C401   C     0.89539   0.13166   0.71597   0.00000  Uiso   1.00
C402   C     0.63421   0.33875   0.24002   0.00000  Uiso   1.00
C403   C     0.83875   0.36579   0.75998   0.00000  Uiso   1.00
C404   C     0.63166   0.10461   0.28403   0.00000  Uiso   1.00
C405   C     0.60461   0.36834   0.71597   0.00000  Uiso   1.00
C406   C     0.86579   0.16125   0.24002   0.00000  Uiso   1.00
C407   C     0.66125   0.13421   0.75998   0.00000  Uiso   1.00
C408   C     0.86834   0.39539   0.28403   0.00000  Uiso   1.00
C409   C     0.89539   0.36834   0.28403   0.00000  Uiso   1.00
C410   C     0.98608   0.28010   0.54170   0.00000  Uiso   1.00
C411   C     0.63421   0.16125   0.75998   0.00000  Uiso   1.00
C412   C     0.83875   0.13421   0.24002   0.00000  Uiso   1.00
C413   C     0.63166   0.39539   0.71597   0.00000  Uiso   1.00
C414   C     0.60461   0.13166   0.28403   0.00000  Uiso   1.00
C415   C     0.86579   0.33875   0.75998   0.00000  Uiso   1.00
C416   C     0.66125   0.36579   0.24002   0.00000  Uiso   1.00
C417   C     0.86834   0.10461   0.71597   0.00000  Uiso   1.00
C418   C     0.59809   0.34809   0.25000   0.00000  Uiso   1.00
C419   C     0.90191   0.15191   0.75000   0.00000  Uiso   1.00
C420   C     0.65191   0.09809   0.25000   0.00000  Uiso   1.00
H421   H     0.72511   0.44661   0.02613   0.00000  Uiso   1.00
H422   H     0.52489   0.30339   0.47387   0.00000  Uiso   1.00
H423   H     0.80340   0.47512   0.52613   0.00000  Uiso   1.00
H424   H     0.80339   0.02490   0.47387   0.00000  Uiso   1.00
H425   H     0.52489   0.19661   0.52613   0.00000  Uiso   1.00
H426   H     0.97511   0.19661   0.47387   0.00000  Uiso   1.00
H427   H     0.69660   0.02488   0.52613   0.00000  Uiso   1.00
H428   H     0.69661   0.47510   0.47387   0.00000  Uiso   1.00
H429   H     0.77489   0.44661   0.97387   0.00000  Uiso   1.00
H430   H     0.94661   0.22511   0.02613   0.00000  Uiso   1.00
H431   H     0.94661   0.27489   0.97387   0.00000  Uiso   1.00
H432   H     0.77489   0.05339   0.02613   0.00000  Uiso   1.00
H433   H     0.72511   0.05339   0.97387   0.00000  Uiso   1.00
H434   H     0.55339   0.27489   0.02613   0.00000  Uiso   1.00
H435   H     0.55339   0.22511   0.97387   0.00000  Uiso   1.00
H436   H     0.97511   0.30339   0.52613   0.00000  Uiso   1.00
O437   O     0.75000   0.00000   0.25000   0.00000  Uiso   1.00
O438   O     0.75000   0.46964   0.66317   0.00000  Uiso   1.00
O439   O     0.96964   0.25000   0.33683   0.00000  Uiso   1.00
O440   O     0.53036   0.25000   0.66317   0.00000  Uiso   1.00
O441   O     0.50000   0.21964   0.83683   0.00000  Uiso   1.00
O442   O     0.50000   0.28036   0.16317   0.00000  Uiso   1.00
O443   O     0.78036   0.00000   0.83683   0.00000  Uiso   1.00
O444   O     0.71964   0.00000   0.16317   0.00000  Uiso   1.00
O445   O     0.50000   0.28036   0.83683   0.00000  Uiso   1.00
O446   O     0.50000   0.21964   0.16317   0.00000  Uiso   1.00
O447   O     0.71964   0.00000   0.83683   0.00000  Uiso   1.00
O448   O     0.75000   0.00000   0.75000   0.00000  Uiso   1.00
O449   O     0.78036   0.00000   0.16317   0.00000  Uiso   1.00
O450   O     0.70726   0.07307   0.27282   0.00000  Uiso   1.00
O451   O     0.79275   0.42693   0.72718   0.00000  Uiso   1.00
O452   O     0.92693   0.20726   0.27282   0.00000  Uiso   1.00
O453   O     0.57307   0.29274   0.72718   0.00000  Uiso   1.00
O454   O     0.79275   0.42693   0.27282   0.00000  Uiso   1.00
O455   O     0.70726   0.07307   0.72718   0.00000  Uiso   1.00
O456   O     0.57307   0.29274   0.27282   0.00000  Uiso   1.00
O457   O     0.92693   0.20726   0.72718   0.00000  Uiso   1.00
O458   O     0.70726   0.42693   0.72718   0.00000  Uiso   1.00
O459   O     0.50000   0.25000   0.25000   0.00000  Uiso   1.00
O460   O     0.79275   0.07307   0.27282   0.00000  Uiso   1.00
O461   O     0.92693   0.29275   0.72718   0.00000  Uiso   1.00
O462   O     0.57307   0.20726   0.27282   0.00000  Uiso   1.00
O463   O     0.79275   0.07307   0.72718   0.00000  Uiso   1.00
O464   O     0.70726   0.42693   0.27282   0.00000  Uiso   1.00
O465   O     0.57307   0.20726   0.72718   0.00000  Uiso   1.00
O466   O     0.92693   0.29275   0.27282   0.00000  Uiso   1.00
O467   O     0.95726   0.32307   0.77282   0.00000  Uiso   1.00
O468   O     0.54275   0.17693   0.22718   0.00000  Uiso   1.00
O469   O     0.67693   0.45726   0.77282   0.00000  Uiso   1.00
O470   O     0.50000   0.25000   0.75000   0.00000  Uiso   1.00
O471   O     0.82307   0.04275   0.22718   0.00000  Uiso   1.00
O472   O     0.54275   0.17693   0.77282   0.00000  Uiso   1.00
O473   O     0.95726   0.32307   0.22718   0.00000  Uiso   1.00
O474   O     0.82307   0.04275   0.77282   0.00000  Uiso   1.00
O475   O     0.67693   0.45726   0.22718   0.00000  Uiso   1.00
O476   O     0.95726   0.17693   0.22718   0.00000  Uiso   1.00
O477   O     0.54275   0.32307   0.77282   0.00000  Uiso   1.00
O478   O     0.67693   0.04275   0.22718   0.00000  Uiso   1.00
O479   O     0.82307   0.45726   0.77282   0.00000  Uiso   1.00
O480   O     0.54275   0.32307   0.22718   0.00000  Uiso   1.00
O481   O     0.75000   0.46964   0.33683   0.00000  Uiso   1.00
O482   O     0.95726   0.17693   0.77282   0.00000  Uiso   1.00
O483   O     0.82307   0.45726   0.22718   0.00000  Uiso   1.00
O484   O     0.67693   0.04275   0.77282   0.00000  Uiso   1.00
O485   O     0.75000   0.03036   0.66317   0.00000  Uiso   1.00
O486   O     0.53036   0.25000   0.33683   0.00000  Uiso   1.00
O487   O     0.96964   0.25000   0.66317   0.00000  Uiso   1.00
O488   O     0.75000   0.03036   0.33683   0.00000  Uiso   1.00
Zn489  Zn    0.70660   0.00000   0.21760   0.00000  Uiso   1.00
Zn490  Zn    0.54340   0.25000   0.28240   0.00000  Uiso   1.00
Zn491  Zn    0.75000   0.45660   0.71760   0.00000  Uiso   1.00
Zn492  Zn    0.75000   0.04340   0.28240   0.00000  Uiso   1.00
Zn493  Zn    0.54340   0.25000   0.71760   0.00000  Uiso   1.00
Zn494  Zn    0.95660   0.25000   0.28240   0.00000  Uiso   1.00
Zn495  Zn    0.75000   0.04340   0.71760   0.00000  Uiso   1.00
Zn496  Zn    0.75000   0.45660   0.28240   0.00000  Uiso   1.00
Zn497  Zn    0.79340   0.00000   0.78240   0.00000  Uiso   1.00
Zn498  Zn    0.50000   0.20660   0.21760   0.00000  Uiso   1.00
Zn499  Zn    0.50000   0.29340   0.78240   0.00000  Uiso   1.00
Zn500  Zn    0.79340   0.00000   0.21760   0.00000  Uiso   1.00
Zn501  Zn    0.70660   0.00000   0.78240   0.00000  Uiso   1.00
Zn502  Zn    0.50000   0.29340   0.21760   0.00000  Uiso   1.00
Zn503  Zn    0.50000   0.20660   0.78240   0.00000  Uiso   1.00
Zn504  Zn    0.95660   0.25000   0.71760   0.00000  Uiso   1.00
Br505  Br    0.10376   0.96065   0.27536   0.00000  Uiso   1.00
Br506  Br    0.32541   0.88983   0.17000   0.00000  Uiso   1.00
Br507  Br    0.11017   0.82541   0.83000   0.00000  Uiso   1.00
Br508  Br    0.46065   0.60376   0.27536   0.00000  Uiso   1.00
Br509  Br    0.39624   0.96065   0.72464   0.00000  Uiso   1.00
Br510  Br    0.17459   0.61017   0.17000   0.00000  Uiso   1.00
Br511  Br    0.38983   0.67459   0.83000   0.00000  Uiso   1.00
Br512  Br    0.03935   0.89624   0.27536   0.00000  Uiso   1.00
Br513  Br    0.42459   0.63983   0.67000   0.00000  Uiso   1.00
Br514  Br    0.14624   0.78935   0.22464   0.00000  Uiso   1.00
Br515  Br    0.28935   0.85376   0.77536   0.00000  Uiso   1.00
Br516  Br    0.32541   0.61017   0.83000   0.00000  Uiso   1.00
Br517  Br    0.13983   0.57541   0.33000   0.00000  Uiso   1.00
Br518  Br    0.07541   0.86017   0.67000   0.00000  Uiso   1.00
Br519  Br    0.35376   0.71065   0.22464   0.00000  Uiso   1.00
Br520  Br    0.21065   0.64624   0.77536   0.00000  Uiso   1.00
Br521  Br    0.36017   0.92459   0.33000   0.00000  Uiso   1.00
Br522  Br    0.42459   0.86017   0.33000   0.00000  Uiso   1.00
Br523  Br    0.14624   0.71065   0.77536   0.00000  Uiso   1.00
Br524  Br    0.28935   0.64624   0.22464   0.00000  Uiso   1.00
Br525  Br    0.13983   0.92459   0.67000   0.00000  Uiso   1.00
Br526  Br    0.07541   0.63983   0.33000   0.00000  Uiso   1.00
Br527  Br    0.11017   0.67459   0.17000   0.00000  Uiso   1.00
Br528  Br    0.35376   0.78935   0.77536   0.00000  Uiso   1.00
Br529  Br    0.21065   0.85376   0.22464   0.00000  Uiso   1.00
Br530  Br    0.36017   0.57541   0.67000   0.00000  Uiso   1.00
Br531  Br    0.21686   0.92749   0.10838   0.00000  Uiso   1.00
Br532  Br    0.28315   0.92749   0.89162   0.00000  Uiso   1.00
Br533  Br    0.42749   0.71686   0.10837   0.00000  Uiso   1.00
Br534  Br    0.42749   0.78315   0.89162   0.00000  Uiso   1.00
Br535  Br    0.28314   0.57251   0.10837   0.00000  Uiso   1.00
Br536  Br    0.21686   0.57251   0.89162   0.00000  Uiso   1.00
Br537  Br    0.07251   0.78314   0.10838   0.00000  Uiso   1.00
Br538  Br    0.46065   0.89624   0.72464   0.00000  Uiso   1.00
Br539  Br    0.07251   0.71685   0.89162   0.00000  Uiso   1.00
Br540  Br    0.46685   0.82251   0.60837   0.00000  Uiso   1.00
Br541  Br    0.03314   0.82251   0.39162   0.00000  Uiso   1.00
Br542  Br    0.32251   0.96687   0.60837   0.00000  Uiso   1.00
Br543  Br    0.32250   0.53315   0.39163   0.00000  Uiso   1.00
Br544  Br    0.03315   0.67749   0.60837   0.00000  Uiso   1.00
Br545  Br    0.46686   0.67749   0.39162   0.00000  Uiso   1.00
Br546  Br    0.17749   0.53313   0.60837   0.00000  Uiso   1.00
Br547  Br    0.17750   0.96685   0.39162   0.00000  Uiso   1.00
Br548  Br    0.39624   0.53935   0.27536   0.00000  Uiso   1.00
Br549  Br    0.17459   0.88983   0.83000   0.00000  Uiso   1.00
Br550  Br    0.38983   0.82541   0.17000   0.00000  Uiso   1.00
Br551  Br    0.03935   0.60376   0.72464   0.00000  Uiso   1.00
Br552  Br    0.10376   0.53935   0.72464   0.00000  Uiso   1.00
C553   C     0.23608   0.96990   0.04170   0.00000  Uiso   1.00
C554   C     0.01392   0.78010   0.45830   0.00000  Uiso   1.00
C555   C     0.34809   0.90191   0.75000   0.00000  Uiso   1.00
C556   C     0.40191   0.65191   0.25000   0.00000  Uiso   1.00
C557   C     0.09809   0.84809   0.75000   0.00000  Uiso   1.00
C558   C     0.34809   0.90191   0.25000   0.00000  Uiso   1.00
C559   C     0.15191   0.59809   0.75000   0.00000  Uiso   1.00
C560   C     0.09809   0.65191   0.75000   0.00000  Uiso   1.00
C561   C     0.40191   0.84809   0.25000   0.00000  Uiso   1.00
C562   C     0.15191   0.90191   0.75000   0.00000  Uiso   1.00
C563   C     0.34809   0.59809   0.25000   0.00000  Uiso   1.00
C564   C     0.40191   0.84809   0.75000   0.00000  Uiso   1.00
C565   C     0.28010   0.98608   0.54170   0.00000  Uiso   1.00
C566   C     0.09809   0.65191   0.25000   0.00000  Uiso   1.00
C567   C     0.34809   0.59809   0.75000   0.00000  Uiso   1.00
C568   C     0.15191   0.90191   0.25000   0.00000  Uiso   1.00
C569   C     0.25000   0.50000   0.10257   0.00000  Uiso   1.00
C570   C     0.25000   0.50000   0.89743   0.00000  Uiso   1.00
C571   C     0.00000   0.75000   0.10257   0.00000  Uiso   1.00
C572   C     0.00000   0.75000   0.89743   0.00000  Uiso   1.00
C573   C     0.00000   0.75000   0.60257   0.00000  Uiso   1.00
C574   C     0.00000   0.75000   0.39743   0.00000  Uiso   1.00
C575   C     0.25000   0.50000   0.60257   0.00000  Uiso   1.00
C576   C     0.28010   0.51393   0.45830   0.00000  Uiso   1.00
C577   C     0.25000   0.50000   0.39743   0.00000  Uiso   1.00
C578   C     0.01392   0.71990   0.54170   0.00000  Uiso   1.00
C579   C     0.48608   0.71990   0.45830   0.00000  Uiso   1.00
C580   C     0.21990   0.51392   0.54170   0.00000  Uiso   1.00
C581   C     0.21990   0.98607   0.45830   0.00000  Uiso   1.00
C582   C     0.23580   0.96983   0.08217   0.00000  Uiso   1.00
C583   C     0.26421   0.96983   0.91783   0.00000  Uiso   1.00
C584   C     0.46983   0.73580   0.08217   0.00000  Uiso   1.00
C585   C     0.26392   0.96990   0.95830   0.00000  Uiso   1.00
C586   C     0.46983   0.76421   0.91783   0.00000  Uiso   1.00
C587   C     0.26420   0.53017   0.08217   0.00000  Uiso   1.00
C588   C     0.23579   0.53017   0.91783   0.00000  Uiso   1.00
C589   C     0.03017   0.76420   0.08217   0.00000  Uiso   1.00
C590   C     0.03017   0.73579   0.91783   0.00000  Uiso   1.00
C591   C     0.48579   0.78017   0.58217   0.00000  Uiso   1.00
C592   C     0.01420   0.78017   0.41783   0.00000  Uiso   1.00
C593   C     0.28017   0.98580   0.58217   0.00000  Uiso   1.00
C594   C     0.28017   0.51421   0.41783   0.00000  Uiso   1.00
C595   C     0.01421   0.71983   0.58217   0.00000  Uiso   1.00
C596   C     0.46990   0.73608   0.04170   0.00000  Uiso   1.00
C597   C     0.48580   0.71983   0.41783   0.00000  Uiso   1.00
C598   C     0.21983   0.51420   0.58217   0.00000  Uiso   1.00
C599   C     0.21983   0.98579   0.41783   0.00000  Uiso   1.00
C600   C     0.25000   0.50000   0.02132   0.00000  Uiso   1.00
C601   C     0.25000   0.50000   0.97868   0.00000  Uiso   1.00
C602   C     0.00000   0.75000   0.02132   0.00000  Uiso   1.00
C603   C     0.00000   0.75000   0.97868   0.00000  Uiso   1.00
C604   C     0.00000   0.75000   0.52132   0.00000  Uiso   1.00
C605   C     0.00000   0.75000   0.47868   0.00000  Uiso   1.00
C606   C     0.25000   0.50000   0.52132   0.00000  Uiso   1.00
C607   C     0.46990   0.76392   0.95830   0.00000  Uiso   1.00
C608   C     0.25000   0.50000   0.47868   0.00000  Uiso   1.00
C609   C     0.25000   0.50000   0.35514   0.00000  Uiso   1.00
C610   C     0.25000   0.50000   0.64486   0.00000  Uiso   1.00
C611   C     0.00000   0.75000   0.35514   0.00000  Uiso   1.00
C612   C     0.00000   0.75000   0.64486   0.00000  Uiso   1.00
C613   C     0.00000   0.75000   0.85514   0.00000  Uiso   1.00
C614   C     0.00000   0.75000   0.14486   0.00000  Uiso   1.00
C615   C     0.25000   0.50000   0.85514   0.00000  Uiso   1.00
C616   C     0.25000   0.50000   0.14486   0.00000  Uiso   1.00
C617   C     0.17997   0.57003   0.25000   0.00000  Uiso   1.00
C618   C     0.26392   0.53010   0.04170   0.00000  Uiso   1.00
C619   C     0.32003   0.92997   0.75000   0.00000  Uiso   1.00
C620   C     0.42997   0.67997   0.25000   0.00000  Uiso   1.00
C621   C     0.07003   0.82003   0.75000   0.00000  Uiso   1.00
C622   C     0.32003   0.92997   0.25000   0.00000  Uiso   1.00
C623   C     0.17997   0.57003   0.75000   0.00000  Uiso   1.00
C624   C     0.07003   0.82003   0.25000   0.00000  Uiso   1.00
C625   C     0.42997   0.67997   0.75000   0.00000  Uiso   1.00
C626   C     0.17997   0.92997   0.75000   0.00000  Uiso   1.00
C627   C     0.32003   0.57003   0.25000   0.00000  Uiso   1.00
C628   C     0.42997   0.82003   0.75000   0.00000  Uiso   1.00
C629   C     0.23608   0.53010   0.95830   0.00000  Uiso   1.00
C630   C     0.07003   0.67997   0.25000   0.00000  Uiso   1.00
C631   C     0.32003   0.57003   0.75000   0.00000  Uiso   1.00
C632   C     0.17997   0.92997   0.25000   0.00000  Uiso   1.00
C633   C     0.07003   0.67997   0.75000   0.00000  Uiso   1.00
C634   C     0.42997   0.82003   0.25000   0.00000  Uiso   1.00
C635   C     0.11579   0.91125   0.25998   0.00000  Uiso   1.00
C636   C     0.35461   0.61834   0.78403   0.00000  Uiso   1.00
C637   C     0.11834   0.64539   0.21597   0.00000  Uiso   1.00
C638   C     0.41125   0.88421   0.74002   0.00000  Uiso   1.00
C639   C     0.38421   0.58875   0.25998   0.00000  Uiso   1.00
C640   C     0.03010   0.76392   0.04170   0.00000  Uiso   1.00
C641   C     0.14539   0.88166   0.78403   0.00000  Uiso   1.00
C642   C     0.38166   0.85461   0.21597   0.00000  Uiso   1.00
C643   C     0.08875   0.61579   0.74002   0.00000  Uiso   1.00
C644   C     0.11579   0.58875   0.74002   0.00000  Uiso   1.00
C645   C     0.35461   0.88166   0.21597   0.00000  Uiso   1.00
C646   C     0.11834   0.85461   0.78403   0.00000  Uiso   1.00
C647   C     0.41125   0.61579   0.25998   0.00000  Uiso   1.00
C648   C     0.38421   0.91125   0.74002   0.00000  Uiso   1.00
C649   C     0.14539   0.61834   0.21597   0.00000  Uiso   1.00
C650   C     0.38166   0.64539   0.78403   0.00000  Uiso   1.00
C651   C     0.03010   0.73608   0.95830   0.00000  Uiso   1.00
C652   C     0.08875   0.88421   0.25998   0.00000  Uiso   1.00
C653   C     0.39539   0.63166   0.71597   0.00000  Uiso   1.00
C654   C     0.13421   0.83875   0.24002   0.00000  Uiso   1.00
C655   C     0.33875   0.86579   0.75998   0.00000  Uiso   1.00
C656   C     0.13166   0.60461   0.28403   0.00000  Uiso   1.00
C657   C     0.10461   0.86834   0.71597   0.00000  Uiso   1.00
C658   C     0.36579   0.66125   0.24002   0.00000  Uiso   1.00
C659   C     0.16125   0.63421   0.75998   0.00000  Uiso   1.00
C660   C     0.36834   0.89539   0.28403   0.00000  Uiso   1.00
C661   C     0.39539   0.86834   0.28403   0.00000  Uiso   1.00
C662   C     0.48608   0.78010   0.54170   0.00000  Uiso   1.00
C663   C     0.13421   0.66125   0.75998   0.00000  Uiso   1.00
C664   C     0.33875   0.63421   0.24002   0.00000  Uiso   1.00
C665   C     0.13166   0.89539   0.71597   0.00000  Uiso   1.00
C666   C     0.10461   0.63166   0.28403   0.00000  Uiso   1.00
C667   C     0.36579   0.83875   0.75998   0.00000  Uiso   1.00
C668   C     0.16125   0.86579   0.24002   0.00000  Uiso   1.00
C669   C     0.36834   0.60461   0.71597   0.00000  Uiso   1.00
C670   C     0.09809   0.84809   0.25000   0.00000  Uiso   1.00
C671   C     0.40191   0.65191   0.75000   0.00000  Uiso   1.00
C672   C     0.15191   0.59809   0.25000   0.00000  Uiso   1.00
H673   H     0.22511   0.94661   0.02613   0.00000  Uiso   1.00
H674   H     0.02489   0.80339   0.47387   0.00000  Uiso   1.00
H675   H     0.30340   0.97512   0.52613   0.00000  Uiso   1.00
H676   H     0.30339   0.52490   0.47387   0.00000  Uiso   1.00
H677   H     0.02489   0.69661   0.52613   0.00000  Uiso   1.00
H678   H     0.47511   0.69661   0.47387   0.00000  Uiso   1.00
H679   H     0.19660   0.52488   0.52613   0.00000  Uiso   1.00
H680   H     0.19661   0.97510   0.47387   0.00000  Uiso   1.00
H681   H     0.27489   0.94661   0.97387   0.00000  Uiso   1.00
H682   H     0.44661   0.72511   0.02613   0.00000  Uiso   1.00
H683   H     0.44661   0.77489   0.97387   0.00000  Uiso   1.00
H684   H     0.27489   0.55339   0.02613   0.00000  Uiso   1.00
H685   H     0.22511   0.55339   0.97387   0.00000  Uiso   1.00
H686   H     0.05339   0.77489   0.02613   0.00000  Uiso   1.00
H687   H     0.05339   0.72511   0.97387   0.00000  Uiso   1.00
H688   H     0.47511   0.80339   0.52613   0.00000  Uiso   1.00
O689   O     0.25000   0.50000   0.25000   0.00000  Uiso   1.00
O690   O     0.25000   0.96964   0.66317   0.00000  Uiso   1.00
O691   O     0.46964   0.75000   0.33683   0.00000  Uiso   1.00
O692   O     0.03036   0.75000   0.66317   0.00000  Uiso   1.00
O693   O     0.00000   0.71964   0.83683   0.00000  Uiso   1.00
O694   O     0.00000   0.78036   0.16317   0.00000  Uiso   1.00
O695   O     0.28036   0.50000   0.83683   0.00000  Uiso   1.00
O696   O     0.21964   0.50000   0.16317   0.00000  Uiso   1.00
O697   O     0.00000   0.78036   0.83683   0.00000  Uiso   1.00
O698   O     0.00000   0.71964   0.16317   0.00000  Uiso   1.00
O699   O     0.21964   0.50000   0.83683   0.00000  Uiso   1.00
O700   O     0.25000   0.50000   0.75000   0.00000  Uiso   1.00
O701   O     0.28036   0.50000   0.16317   0.00000  Uiso   1.00
O702   O     0.20726   0.57307   0.27282   0.00000  Uiso   1.00
O703   O     0.29275   0.92693   0.72718   0.00000  Uiso   1.00
O704   O     0.42693   0.70726   0.27282   0.00000  Uiso   1.00
O705   O     0.07307   0.79274   0.72718   0.00000  Uiso   1.00
O706   O     0.29275   0.92693   0.27282   0.00000  Uiso   1.00
O707   O     0.20726   0.57307   0.72718   0.00000  Uiso   1.00
O708   O     0.07307   0.79274   0.27282   0.00000  Uiso   1.00
O709   O     0.42693   0.70726   0.72718   0.00000  Uiso   1.00
O710   O     0.20726   0.92693   0.72718   0.00000  Uiso   1.00
O711   O     0.00000   0.75000   0.25000   0.00000  Uiso   1.00
O712   O     0.29275   0.57307   0.27282   0.00000  Uiso   1.00
O713   O     0.42693   0.79275   0.72718   0.00000  Uiso   1.00
O714   O     0.07307   0.70726   0.27282   0.00000  Uiso   1.00
O715   O     0.29275   0.57307   0.72718   0.00000  Uiso   1.00
O716   O     0.20726   0.92693   0.27282   0.00000  Uiso   1.00
O717   O     0.07307   0.70726   0.72718   0.00000  Uiso   1.00
O718   O     0.42693   0.79275   0.27282   0.00000  Uiso   1.00
O719   O     0.45726   0.82307   0.77282   0.00000  Uiso   1.00
O720   O     0.04275   0.67693   0.22718   0.00000  Uiso   1.00
O721   O     0.17693   0.95726   0.77282   0.00000  Uiso   1.00
O722   O     0.00000   0.75000   0.75000   0.00000  Uiso   1.00
O723   O     0.32307   0.54275   0.22718   0.00000  Uiso   1.00
O724   O     0.04275   0.67693   0.77282   0.00000  Uiso   1.00
O725   O     0.45726   0.82307   0.22718   0.00000  Uiso   1.00
O726   O     0.32307   0.54275   0.77282   0.00000  Uiso   1.00
O727   O     0.17693   0.95726   0.22718   0.00000  Uiso   1.00
O728   O     0.45726   0.67693   0.22718   0.00000  Uiso   1.00
O729   O     0.04275   0.82307   0.77282   0.00000  Uiso   1.00
O730   O     0.17693   0.54275   0.22718   0.00000  Uiso   1.00
O731   O     0.32307   0.95726   0.77282   0.00000  Uiso   1.00
O732   O     0.04275   0.82307   0.22718   0.00000  Uiso   1.00
O733   O     0.25000   0.96964   0.33683   0.00000  Uiso   1.00
O734   O     0.45726   0.67693   0.77282   0.00000  Uiso   1.00
O735   O     0.32307   0.95726   0.22718   0.00000  Uiso   1.00
O736   O     0.17693   0.54275   0.77282   0.00000  Uiso   1.00
O737   O     0.25000   0.53036   0.66317   0.00000  Uiso   1.00
O738   O     0.03036   0.75000   0.33683   0.00000  Uiso   1.00
O739   O     0.46964   0.75000   0.66317   0.00000  Uiso   1.00
O740   O     0.25000   0.53036   0.33683   0.00000  Uiso   1.00
Zn741  Zn    0.20660   0.50000   0.21760   0.00000  Uiso   1.00
Zn742  Zn    0.04340   0.75000   0.28240   0.00000  Uiso   1.00
Zn743  Zn    0.25000   0.95660   0.71760   0.00000  Uiso   1.00
Zn744  Zn    0.25000   0.54340   0.28240   0.00000  Uiso   1.00
Zn745  Zn    0.04340   0.75000   0.71760   0.00000  Uiso   1.00
Zn746  Zn    0.45660   0.75000   0.28240   0.00000  Uiso   1.00
Zn747  Zn    0.25000   0.54340   0.71760   0.00000  Uiso   1.00
Zn748  Zn    0.25000   0.95660   0.28240   0.00000  Uiso   1.00
Zn749  Zn    0.29340   0.50000   0.78240   0.00000  Uiso   1.00
Zn750  Zn    0.00000   0.70660   0.21760   0.00000  Uiso   1.00
Zn751  Zn    0.00000   0.79340   0.78240   0.00000  Uiso   1.00
Zn752  Zn    0.29340   0.50000   0.21760   0.00000  Uiso   1.00
Zn753  Zn    0.20660   0.50000   0.78240   0.00000  Uiso   1.00
Zn754  Zn    0.00000   0.79340   0.21760   0.00000  Uiso   1.00
Zn755  Zn    0.00000   0.70660   0.78240   0.00000  Uiso   1.00
Zn756  Zn    0.45660   0.75000   0.71760   0.00000  Uiso   1.00
Br757  Br    0.60376   0.96065   0.27536   0.00000  Uiso   1.00
Br758  Br    0.82541   0.88983   0.17000   0.00000  Uiso   1.00
Br759  Br    0.61017   0.82541   0.83000   0.00000  Uiso   1.00
Br760  Br    0.96065   0.60376   0.27536   0.00000  Uiso   1.00
Br761  Br    0.89624   0.96065   0.72464   0.00000  Uiso   1.00
Br762  Br    0.67459   0.61017   0.17000   0.00000  Uiso   1.00
Br763  Br    0.88983   0.67459   0.83000   0.00000  Uiso   1.00
Br764  Br    0.53935   0.89624   0.27536   0.00000  Uiso   1.00
Br765  Br    0.92459   0.63983   0.67000   0.00000  Uiso   1.00
Br766  Br    0.64624   0.78935   0.22464   0.00000  Uiso   1.00
Br767  Br    0.78935   0.85376   0.77536   0.00000  Uiso   1.00
Br768  Br    0.82541   0.61017   0.83000   0.00000  Uiso   1.00
Br769  Br    0.63983   0.57541   0.33000   0.00000  Uiso   1.00
Br770  Br    0.57541   0.86017   0.67000   0.00000  Uiso   1.00
Br771  Br    0.85376   0.71065   0.22464   0.00000  Uiso   1.00
Br772  Br    0.71065   0.64624   0.77536   0.00000  Uiso   1.00
Br773  Br    0.86017   0.92459   0.33000   0.00000  Uiso   1.00
Br774  Br    0.92459   0.86017   0.33000   0.00000  Uiso   1.00
Br775  Br    0.64624   0.71065   0.77536   0.00000  Uiso   1.00
Br776  Br    0.78935   0.64624   0.22464   0.00000  Uiso   1.00
Br777  Br    0.63983   0.92459   0.67000   0.00000  Uiso   1.00
Br778  Br    0.57541   0.63983   0.33000   0.00000  Uiso   1.00
Br779  Br    0.61017   0.67459   0.17000   0.00000  Uiso   1.00
Br780  Br    0.85376   0.78935   0.77536   0.00000  Uiso   1.00
Br781  Br    0.71065   0.85376   0.22464   0.00000  Uiso   1.00
Br782  Br    0.86017   0.57541   0.67000   0.00000  Uiso   1.00
Br783  Br    0.71686   0.92749   0.10838   0.00000  Uiso   1.00
Br784  Br    0.78315   0.92749   0.89162   0.00000  Uiso   1.00
Br785  Br    0.92749   0.71686   0.10837   0.00000  Uiso   1.00
Br786  Br    0.92749   0.78315   0.89162   0.00000  Uiso   1.00
Br787  Br    0.78314   0.57251   0.10837   0.00000  Uiso   1.00
Br788  Br    0.71686   0.57251   0.89162   0.00000  Uiso   1.00
Br789  Br    0.57251   0.78314   0.10838   0.00000  Uiso   1.00
Br790  Br    0.96065   0.89624   0.72464   0.00000  Uiso   1.00
Br791  Br    0.57251   0.71685   0.89162   0.00000  Uiso   1.00
Br792  Br    0.96685   0.82251   0.60837   0.00000  Uiso   1.00
Br793  Br    0.53314   0.82251   0.39162   0.00000  Uiso   1.00
Br794  Br    0.82251   0.96687   0.60837   0.00000  Uiso   1.00
Br795  Br    0.82250   0.53315   0.39163   0.00000  Uiso   1.00
Br796  Br    0.53315   0.67749   0.60837   0.00000  Uiso   1.00
Br797  Br    0.96686   0.67749   0.39162   0.00000  Uiso   1.00
Br798  Br    0.67749   0.53313   0.60837   0.00000  Uiso   1.00
Br799  Br    0.67750   0.96685   0.39162   0.00000  Uiso   1.00
Br800  Br    0.89624   0.53935   0.27536   0.00000  Uiso   1.00
Br801  Br    0.67459   0.88983   0.83000   0.00000  Uiso   1.00
Br802  Br    0.88983   0.82541   0.17000   0.00000  Uiso   1.00
Br803  Br    0.53935   0.60376   0.72464   0.00000  Uiso   1.00
Br804  Br    0.60376   0.53935   0.72464   0.00000  Uiso   1.00
C805   C     0.73608   0.96990   0.04170   0.00000  Uiso   1.00
C806   C     0.51392   0.78010   0.45830   0.00000  Uiso   1.00
C807   C     0.84809   0.90191   0.75000   0.00000  Uiso   1.00
C808   C     0.90191   0.65191   0.25000   0.00000  Uiso   1.00
C809   C     0.59809   0.84809   0.75000   0.00000  Uiso   1.00
C810   C     0.84809   0.90191   0.25000   0.00000  Uiso   1.00
C811   C     0.65191   0.59809   0.75000   0.00000  Uiso   1.00
C812   C     0.59809   0.65191   0.75000   0.00000  Uiso   1.00
C813   C     0.90191   0.84809   0.25000   0.00000  Uiso   1.00
C814   C     0.65191   0.90191   0.75000   0.00000  Uiso   1.00
C815   C     0.84809   0.59809   0.25000   0.00000  Uiso   1.00
C816   C     0.90191   0.84809   0.75000   0.00000  Uiso   1.00
C817   C     0.78010   0.98608   0.54170   0.00000  Uiso   1.00
C818   C     0.59809   0.65191   0.25000   0.00000  Uiso   1.00
C819   C     0.84809   0.59809   0.75000   0.00000  Uiso   1.00
C820   C     0.65191   0.90191   0.25000   0.00000  Uiso   1.00
C821   C     0.75000   0.50000   0.10257   0.00000  Uiso   1.00
C822   C     0.75000   0.50000   0.89743   0.00000  Uiso   1.00
C823   C     0.50000   0.75000   0.10257   0.00000  Uiso   1.00
C824   C     0.50000   0.75000   0.89743   0.00000  Uiso   1.00
C825   C     0.50000   0.75000   0.60257   0.00000  Uiso   1.00
C826   C     0.50000   0.75000   0.39743   0.00000  Uiso   1.00
C827   C     0.75000   0.50000   0.60257   0.00000  Uiso   1.00
C828   C     0.78010   0.51393   0.45830   0.00000  Uiso   1.00
C829   C     0.75000   0.50000   0.39743   0.00000  Uiso   1.00
C830   C     0.51392   0.71990   0.54170   0.00000  Uiso   1.00
C831   C     0.98608   0.71990   0.45830   0.00000  Uiso   1.00
C832   C     0.71990   0.51392   0.54170   0.00000  Uiso   1.00
C833   C     0.71990   0.98607   0.45830   0.00000  Uiso   1.00
C834   C     0.73580   0.96983   0.08217   0.00000  Uiso   1.00
C835   C     0.76421   0.96983   0.91783   0.00000  Uiso   1.00
C836   C     0.96983   0.73580   0.08217   0.00000  Uiso   1.00
C837   C     0.76392   0.96990   0.95830   0.00000  Uiso   1.00
C838   C     0.96983   0.76421   0.91783   0.00000  Uiso   1.00
C839   C     0.76420   0.53017   0.08217   0.00000  Uiso   1.00
C840   C     0.73579   0.53017   0.91783   0.00000  Uiso   1.00
C841   C     0.53017   0.76420   0.08217   0.00000  Uiso   1.00
C842   C     0.53017   0.73579   0.91783   0.00000  Uiso   1.00
C843   C     0.98579   0.78017   0.58217   0.00000  Uiso   1.00
C844   C     0.51420   0.78017   0.41783   0.00000  Uiso   1.00
C845   C     0.78017   0.98580   0.58217   0.00000  Uiso   1.00
C846   C     0.78017   0.51421   0.41783   0.00000  Uiso   1.00
C847   C     0.51421   0.71983   0.58217   0.00000  Uiso   1.00
C848   C     0.96990   0.73608   0.04170   0.00000  Uiso   1.00
C849   C     0.98580   0.71983   0.41783   0.00000  Uiso   1.00
C850   C     0.71983   0.51420   0.58217   0.00000  Uiso   1.00
C851   C     0.71983   0.98579   0.41783   0.00000  Uiso   1.00
C852   C     0.75000   0.50000   0.02132   0.00000  Uiso   1.00
C853   C     0.75000   0.50000   0.97868   0.00000  Uiso   1.00
C854   C     0.50000   0.75000   0.02132   0.00000  Uiso   1.00
C855   C     0.50000   0.75000   0.97868   0.00000  Uiso   1.00
C856   C     0.50000   0.75000   0.52132   0.00000  Uiso   1.00
C857   C     0.50000   0.75000   0.47868   0.00000  Uiso   1.00
C858   C     0.75000   0.50000   0.52132   0.00000  Uiso   1.00
C859   C     0.96990   0.76392   0.95830   0.00000  Uiso   1.00
C860   C     0.75000   0.50000   0.47868   0.00000  Uiso   1.00
C861   C     0.75000   0.50000   0.35514   0.00000  Uiso   1.00
C862   C     0.75000   0.50000   0.64486   0.00000  Uiso   1.00
C863   C     0.50000   0.75000   0.35514   0.00000  Uiso   1.00
C864   C     0.50000   0.75000   0.64486   0.00000  Uiso   1.00
C865   C     0.50000   0.75000   0.85514   0.00000  Uiso   1.00
C866   C     0.50000   0.75000   0.14486   0.00000  Uiso   1.00
C867   C     0.75000   0.50000   0.85514   0.00000  Uiso   1.00
C868   C     0.75000   0.50000   0.14486   0.00000  Uiso   1.00
C869   C     0.67997   0.57003   0.25000   0.00000  Uiso   1.00
C870   C     0.76392   0.53010   0.04170   0.00000  Uiso   1.00
C871   C     0.82003   0.92997   0.75000   0.00000  Uiso   1.00
C872   C     0.92997   0.67997   0.25000   0.00000  Uiso   1.00
C873   C     0.57003   0.82003   0.75000   0.00000  Uiso   1.00
C874   C     0.82003   0.92997   0.25000   0.00000  Uiso   1.00
C875   C     0.67997   0.57003   0.75000   0.00000  Uiso   1.00
C876   C     0.57003   0.82003   0.25000   0.00000  Uiso   1.00
C877   C     0.92997   0.67997   0.75000   0.00000  Uiso   1.00
C878   C     0.67997   0.92997   0.75000   0.00000  Uiso   1.00
C879   C     0.82003   0.57003   0.25000   0.00000  Uiso   1.00
C880   C     0.92997   0.82003   0.75000   0.00000  Uiso   1.00
C881   C     0.73608   0.53010   0.95830   0.00000  Uiso   1.00
C882   C     0.57003   0.67997   0.25000   0.00000  Uiso   1.00
C883   C     0.82003   0.57003   0.75000   0.00000  Uiso   1.00
C884   C     0.67997   0.92997   0.25000   0.00000  Uiso   1.00
C885   C     0.57003   0.67997   0.75000   0.00000  Uiso   1.00
C886   C     0.92997   0.82003   0.25000   0.00000  Uiso   1.00
C887   C     0.61579   0.91125   0.25998   0.00000  Uiso   1.00
C888   C     0.85461   0.61834   0.78403   0.00000  Uiso   1.00
C889   C     0.61834   0.64539   0.21597   0.00000  Uiso   1.00
C890   C     0.91125   0.88421   0.74002   0.00000  Uiso   1.00
C891   C     0.88421   0.58875   0.25998   0.00000  Uiso   1.00
C892   C     0.53010   0.76392   0.04170   0.00000  Uiso   1.00
C893   C     0.64539   0.88166   0.78403   0.00000  Uiso   1.00
C894   C     0.88166   0.85461   0.21597   0.00000  Uiso   1.00
C895   C     0.58875   0.61579   0.74002   0.00000  Uiso   1.00
C896   C     0.61579   0.58875   0.74002   0.00000  Uiso   1.00
C897   C     0.85461   0.88166   0.21597   0.00000  Uiso   1.00
C898   C     0.61834   0.85461   0.78403   0.00000  Uiso   1.00
C899   C     0.91125   0.61579   0.25998   0.00000  Uiso   1.00
C900   C     0.88421   0.91125   0.74002   0.00000  Uiso   1.00
C901   C     0.64539   0.61834   0.21597   0.00000  Uiso   1.00
C902   C     0.88166   0.64539   0.78403   0.00000  Uiso   1.00
C903   C     0.53010   0.73608   0.95830   0.00000  Uiso   1.00
C904   C     0.58875   0.88421   0.25998   0.00000  Uiso   1.00
C905   C     0.89539   0.63166   0.71597   0.00000  Uiso   1.00
C906   C     0.63421   0.83875   0.24002   0.00000  Uiso   1.00
C907   C     0.83875   0.86579   0.75998   0.00000  Uiso   1.00
C908   C     0.63166   0.60461   0.28403   0.00000  Uiso   1.00
C909   C     0.60461   0.86834   0.71597   0.00000  Uiso   1.00
C910   C     0.86579   0.66125   0.24002   0.00000  Uiso   1.00
C911   C     0.66125   0.63421   0.75998   0.00000  Uiso   1.00
C912   C     0.86834   0.89539   0.28403   0.00000  Uiso   1.00
C913   C     0.89539   0.86834   0.28403   0.00000  Uiso   1.00
C914   C     0.98608   0.78010   0.54170   0.00000  Uiso   1.00
C915   C     0.63421   0.66125   0.75998   0.00000  Uiso   1.00
C916   C     0.83875   0.63421   0.24002   0.00000  Uiso   1.00
C917   C     0.63166   0.89539   0.71597   0.00000  Uiso   1.00
C918   C     0.60461   0.63166   0.28403   0.00000  Uiso   1.00
C919   C     0.86579   0.83875   0.75998   0.00000  Uiso   1.00
C920   C     0.66125   0.86579   0.24002   0.00000  Uiso   1.00
C921   C     0.86834   0.60461   0.71597   0.00000  Uiso   1.00
C922   C     0.59809   0.84809   0.25000   0.00000  Uiso   1.00
C923   C     0.90191   0.65191   0.75000   0.00000  Uiso   1.00
C924   C     0.65191   0.59809   0.25000   0.00000  Uiso   1.00
H925   H     0.72511   0.94661   0.02613   0.00000  Uiso   1.00
H926   H     0.52489   0.80339   0.47387   0.00000  Uiso   1.00
H927   H     0.80340   0.97512   0.52613   0.00000  Uiso   1.00
H928   H     0.80339   0.52490   0.47387   0.00000  Uiso   1.00
H929   H     0.52489   0.69661   0.52613   0.00000  Uiso   1.00
H930   H     0.97511   0.69661   0.47387   0.00000  Uiso   1.00
H931   H     0.69660   0.52488   0.52613   0.00000  Uiso   1.00
H932   H     0.69661   0.97510   0.47387   0.00000  Uiso   1.00
H933   H     0.77489   0.94661   0.97387   0.00000  Uiso   1.00
H934   H     0.94661   0.72511   0.02613   0.00000  Uiso   1.00
H935   H     0.94661   0.77489   0.97387   0.00000  Uiso   1.00
H936   H     0.77489   0.55339   0.02613   0.00000  Uiso   1.00
H937   H     0.72511   0.55339   0.97387   0.00000  Uiso   1.00
H938   H     0.55339   0.77489   0.02613   0.00000  Uiso   1.00
H939   H     0.55339   0.72511   0.97387   0.00000  Uiso   1.00
H940   H     0.97511   0.80339   0.52613   0.00000  Uiso   1.00
O941   O     0.75000   0.50000   0.25000   0.00000  Uiso   1.00
O942   O     0.75000   0.96964   0.66317   0.00000  Uiso   1.00
O943   O     0.96964   0.75000   0.33683   0.00000  Uiso   1.00
O944   O     0.53036   0.75000   0.66317   0.00000  Uiso   1.00
O945   O     0.50000   0.71964   0.83683   0.00000  Uiso   1.00
O946   O     0.50000   0.78036   0.16317   0.00000  Uiso   1.00
O947   O     0.78036   0.50000   0.83683   0.00000  Uiso   1.00
O948   O     0.71964   0.50000   0.16317   0.00000  Uiso   1.00
O949   O     0.50000   0.78036   0.83683   0.00000  Uiso   1.00
O950   O     0.50000   0.71964   0.16317   0.00000  Uiso   1.00
O951   O     0.71964   0.50000   0.83683   0.00000  Uiso   1.00
O952   O     0.75000   0.50000   0.75000   0.00000  Uiso   1.00
O953   O     0.78036   0.50000   0.16317   0.00000  Uiso   1.00
O954   O     0.70726   0.57307   0.27282   0.00000  Uiso   1.00
O955   O     0.79275   0.92693   0.72718   0.00000  Uiso   1.00
O956   O     0.92693   0.70726   0.27282   0.00000  Uiso   1.00
O957   O     0.57307   0.79274   0.72718   0.00000  Uiso   1.00
O958   O     0.79275   0.92693   0.27282   0.00000  Uiso   1.00
O959   O     0.70726   0.57307   0.72718   0.00000  Uiso   1.00
O960   O     0.57307   0.79274   0.27282   0.00000  Uiso   1.00
O961   O     0.92693   0.70726   0.72718   0.00000  Uiso   1.00
O962   O     0.70726   0.92693   0.72718   0.00000  Uiso   1.00
O963   O     0.50000   0.75000   0.25000   0.00000  Uiso   1.00
O964   O     0.79275   0.57307   0.27282   0.00000  Uiso   1.00
O965   O     0.92693   0.79275   0.72718   0.00000  Uiso   1.00
O966   O     0.57307   0.70726   0.27282   0.00000  Uiso   1.00
O967   O     0.79275   0.57307   0.72718   0.00000  Uiso   1.00
O968   O     0.70726   0.92693   0.27282   0.00000  Uiso   1.00
O969   O     0.57307   0.70726   0.72718   0.00000  Uiso   1.00
O970   O     0.92693   0.79275   0.27282   0.00000  Uiso   1.00
O971   O     0.95726   0.82307   0.77282   0.00000  Uiso   1.00
O972   O     0.54275   0.67693   0.22718   0.00000  Uiso   1.00
O973   O     0.67693   0.95726   0.77282   0.00000  Uiso   1.00
O974   O     0.50000   0.75000   0.75000   0.00000  Uiso   1.00
O975   O     0.82307   0.54275   0.22718   0.00000  Uiso   1.00
O976   O     0.54275   0.67693   0.77282   0.00000  Uiso   1.00
O977   O     0.95726   0.82307   0.22718   0.00000  Uiso   1.00
O978   O     0.82307   0.54275   0.77282   0.00000  Uiso   1.00
O979   O     0.67693   0.95726   0.22718   0.00000  Uiso   1.00
O980   O     0.95726   0.67693   0.22718   0.00000  Uiso   1.00
O981   O     0.54275   0.82307   0.77282   0.00000  Uiso   1.00
O982   O     0.67693   0.54275   0.22718   0.00000  Uiso   1.00
O983   O     0.82307   0.95726   0.77282   0.00000  Uiso   1.00
O984   O     0.54275   0.82307   0.22718   0.00000  Uiso   1.00
O985   O     0.75000   0.96964   0.33683   0.00000  Uiso   1.00
O986   O     0.95726   0.67693   0.77282   0.00000  Uiso   1.00
O987   O     0.82307   0.95726   0.22718   0.00000  Uiso   1.00
O988   O     0.67693   0.54275   0.77282   0.00000  Uiso   1.00
O989   O     0.75000   0.53036   0.66317   0.00000  Uiso   1.00
O990   O     0.53036   0.75000   0.33683   0.00000  Uiso   1.00
O991   O     0.96964   0.75000   0.66317   0.00000  Uiso   1.00
O992   O     0.75000   0.53036   0.33683   0.00000  Uiso   1.00
Zn993  Zn    0.70660   0.50000   0.21760   0.00000  Uiso   1.00
Zn994  Zn    0.54340   0.75000   0.28240   0.00000  Uiso   1.00
Zn995  Zn    0.75000   0.95660   0.71760   0.00000  Uiso   1.00
Zn996  Zn    0.75000   0.54340   0.28240   0.00000  Uiso   1.00
Zn997  Zn    0.54340   0.75000   0.71760   0.00000  Uiso   1.00
Zn998  Zn    0.95660   0.75000   0.28240   0.00000  Uiso   1.00
Zn999  Zn    0.75000   0.54340   0.71760   0.00000  Uiso   1.00
Zn1000 Zn    0.75000   0.95660   0.28240   0.00000  Uiso   1.00
Zn1001 Zn    0.79340   0.50000   0.78240   0.00000  Uiso   1.00
Zn1002 Zn    0.50000   0.70660   0.21760   0.00000  Uiso   1.00
Zn1003 Zn    0.50000   0.79340   0.78240   0.00000  Uiso   1.00
Zn1004 Zn    0.79340   0.50000   0.21760   0.00000  Uiso   1.00
Zn1005 Zn    0.70660   0.50000   0.78240   0.00000  Uiso   1.00
Zn1006 Zn    0.50000   0.79340   0.21760   0.00000  Uiso   1.00
Zn1007 Zn    0.50000   0.70660   0.78240   0.00000  Uiso   1.00
Zn1008 Zn    0.95660   0.75000   0.71760   0.00000  Uiso   1.00
loop_
_geom_bond_atom_site_label_1
_geom_bond_atom_site_label_2
_geom_bond_distance
_geom_bond_site_symmetry_2
_ccdc_geom_bond_type
Br1    C131    1.933   .     S
Br2    C141    1.933   .     S
Br3    C142    1.933   .     S
Br4    C143    1.933   .     S
Br5    C144    1.933   .     S
Br6    C145    1.933   .     S
Br7    C146    1.933   .     S
Br8    C148    1.933   .     S
Br9    C149    1.933   .     S
Br10   C150    1.933   .     S
Br11   C151    1.933   .     S
Br12   C132    1.933   .     S
Br13   C152    1.933   .     S
Br14   C153    1.933   .     S
Br15   C154    1.933   .     S
Br16   C155    1.933   .     S
Br17   C156    1.933   .     S
Br18   C157    1.933   .     S
Br19   C159    1.933   .     S
Br20   C160    1.933   .     S
Br21   C161    1.933   .     S
Br22   C162    1.933   .     S
Br23   C133    1.933   .     S
Br24   C163    1.933   .     S
Br25   C164    1.933   .     S
Br26   C165    1.933   .     S
Br27   C78     1.921   .     S
Br28   C79     1.921   .     S
Br29   C80     1.921   .     S
Br30   C82     1.921   .     S
Br31   C83     1.921   .     S
Br32   C84     1.921   .     S
Br33   C85     1.921   .     S
Br34   C134    1.933   .     S
Br35   C86     1.921   .     S
Br36   C87     1.921   .     S
Br37   C88     1.921   .     S
Br38   C89     1.921   .     S
Br39   C90     1.921   .     S
Br40   C91     1.921   .     S
Br41   C93     1.921   .     S
Br42   C94     1.921   .     S
Br43   C95     1.921   .     S
Br44   C135    1.933   .     S
Br45   C137    1.933   .     S
Br46   C138    1.933   .     S
Br47   C139    1.933   .     S
Br48   C140    1.933   .     S
C49    C78     1.394   .     A
C49    H169    1.083   .     S
C49    C600    1.401   .     S
C50    C88     1.394   .     A
C50    H170    1.083   .     S
C50    C101    1.401   .     A
C51    C144    1.407   .     A
C51    C151    1.407   .     A
C51    C115    1.451   .     S
C52    C116    1.451   .     S
C52    C143    1.407   .     A
C52    C154    1.407   .     A
C53    C117    1.451   .     S
C53    C142    1.407   .     A
C53    C153    1.407   .     A
C54    C156    1.407   .     A
C54    C118    1.451   .     S
C54    C141    1.407   .     A
C55    C155    1.407   .     A
C55    C140    1.407   .     A
C55    C119    1.451   .     S
C56    C129    1.451   .     S
C56    C159    1.407   .     A
C56    C139    1.407   .     A
C57    C130    1.451   .     S
C57    C138    1.407   .     A
C57    C157    1.407   .     A
C58    C122    1.451   .     S
C58    C137    1.407   .     A
C58    C161    1.407   .     A
C59    C123    1.451   .     S
C59    C160    1.407   .     A
C59    C135    1.407   .     A
C60    C163    1.407   .     A
C60    C124    1.451   .     S
C60    C134    1.407   .     A
C61    H171    1.083   .     S
C61    C89     1.394   .     A
C61    C606    1.401   .     A
C62    C133    1.407   .     A
C62    C126    1.451   .     S
C62    C162    1.407   .     A
C63    C165    1.407   .     A
C63    C132    1.407   .     A
C63    C127    1.451   .     S
C64    C164    1.407   .     A
C64    C128    1.451   .     S
C64    C131    1.407   .     A
C65    C83     1.407   .     A
C65    C582    1.407   1_545 S
C65    C112    1.456   .     S
C66    C111    1.456   .     S
C66    C84     1.407   .     A
C66    C583    1.407   1_545 S
C67    C332    1.407   1_455 A
C67    C85     1.407   .     S
C67    C110    1.456   .     S
C68    C86     1.407   .     A
C68    C334    1.407   1_455 S
C68    C109    1.456   .     S
C69    C339    1.407   1_455 A
C69    C108    1.456   .     S
C69    C91     1.407   .     S
C70    C88     1.407   .     A
C70    C107    1.456   .     S
C70    C345    1.407   1_455 S
C71    C593    1.407   1_545 A
C71    C106    1.456   .     S
C71    C94     1.407   .     S
C72    H172    1.083   .     S
C72    C90     1.394   .     A
C72    C104    1.401   .     S
C73    C599    1.407   1_545 A
C73    C90     1.407   .     S
C73    C105    1.456   .     S
C74    C91     1.394   .     A
C74    H173    1.083   .     S
C74    C100    1.401   .     S
C75    H174    1.083   .     S
C75    C93     1.394   .     A
C75    C353    1.401   .     S
C76    C94     1.394   .     A
C76    H175    1.083   .     S
C76    C102    1.401   .     S
C77    C95     1.394   .     A
C77    H176    1.083   .     S
C77    C608    1.401   .     A
C78    C569    1.407   .     S
C79    C81     1.394   .     A
C79    C570    1.407   .     S
C80    C92     1.394   .     A
C80    C319    1.407   .     A
C81    H177    1.083   .     S
C81    C601    1.401   .     S
C82    C103    1.394   .     A
C82    C320    1.407   .     S
C83    C114    1.394   .     A
C84    C125    1.394   .     A
C85    C136    1.394   .     A
C86    C147    1.394   .     A
C87    C321    1.407   .     A
C87    C158    1.394   .     A
C89    C575    1.407   .     A
C92    H178    1.083   .     S
C92    C350    1.401   .     S
C93    C322    1.407   .     S
C95    C577    1.407   .     A
C96    C114    1.401   .     A
C96    C553    1.401   1_545 S
C96    C97     1.468   1_554 S
C97    C125    1.401   .     A
C97    C96     1.468   1_556 S
C97    C585    1.401   1_545 S
C98    C136    1.401   .     A
C98    C344    1.401   1_455 S
C98    C99     1.468   1_554 S
C99    C147    1.401   .     A
C99    C98     1.468   1_556 S
C99    C355    1.401   1_455 S
C100   C410    1.401   1_455 A
C100   C101    1.468   .     S
C101   C327    1.401   1_455 S
C102   C104    1.468   .     S
C102   C565    1.401   1_545 A
C103   H179    1.083   .     S
C103   C351    1.401   .     S
C104   C581    1.401   1_545 A
C105   O236    1.277   .     A
C105   O733    1.277   1_545 S
C106   O690    1.277   1_545 A
C106   O233    1.277   .     S
C107   O234    1.277   .     A
C107   O439    1.277   1_455 S
C108   O487    1.277   1_455 A
C108   O188    1.277   .     S
C109   O189    1.277   .     S
C109   O193    1.277   .     S
C110   O194    1.277   .     A
C110   O190    1.277   .     A
C111   O191    1.277   .     A
C111   O195    1.277   .     A
C112   O192    1.277   .     S
C112   O197    1.277   .     S
C113   C168    1.451   .     S
C113   O226    1.275   .     A
C113   O198    1.275   .     A
C114   H180    1.083   .     S
C115   O199    1.275   .     A
C115   O227    1.275   .     A
C116   O200    1.275   .     A
C116   O224    1.275   .     A
C117   O225    1.275   .     A
C117   O201    1.275   .     A
C118   O202    1.275   .     A
C118   O231    1.275   .     A
C119   O203    1.275   .     A
C119   O232    1.275   .     A
C120   C166    1.451   .     S
C120   O228    1.275   .     A
C120   O204    1.275   .     A
C121   O205    1.275   .     A
C121   C167    1.451   .     S
C121   O230    1.275   .     A
C122   O217    1.275   .     A
C122   O206    1.275   .     A
C123   O219    1.275   .     A
C123   O208    1.275   .     A
C124   O209    1.275   .     A
C124   O215    1.275   .     A
C125   H181    1.083   .     S
C126   O210    1.275   .     A
C126   O216    1.275   .     A
C127   O222    1.275   .     A
C127   O211    1.275   .     A
C128   O223    1.275   .     A
C128   O212    1.275   .     A
C129   O220    1.275   .     A
C129   O213    1.275   .     A
C130   O221    1.275   .     A
C130   O214    1.275   .     A
C131   C148    1.399   .     A
C132   C146    1.399   .     A
C133   C145    1.399   .     A
C134   C144    1.399   .     A
C135   C143    1.399   .     A
C136   H182    1.083   .     S
C137   C142    1.399   .     A
C138   C141    1.399   .     A
C139   C140    1.399   .     A
C145   C168    1.407   .     A
C146   C167    1.407   .     A
C147   H183    1.083   .     S
C148   C166    1.407   .     A
C149   C167    1.407   .     A
C149   C165    1.399   .     A
C150   C166    1.407   .     A
C150   C164    1.399   .     A
C151   C163    1.399   .     A
C152   C168    1.407   .     A
C152   C162    1.399   .     A
C153   C161    1.399   .     A
C154   C160    1.399   .     A
C155   C159    1.399   .     A
C156   C157    1.399   .     A
C158   C352    1.401   .     A
C158   H184    1.083   .     S
O185   Zn240   1.940   .     S
O185   Zn237   1.940   .     S
O185   Zn248   1.940   .     S
O185   Zn748   1.940   1_545 S
O186   C610    1.277   .     A
O186   Zn239   1.934   .     S
O187   Zn242   1.934   .     S
O187   C359    1.277   .     S
O188   Zn241   1.934   .     S
O189   Zn251   1.934   .     S
O190   Zn250   1.934   .     S
O191   Zn245   1.934   .     S
O192   Zn237   1.934   .     S
O193   Zn247   1.934   .     S
O194   Zn246   1.934   .     S
O195   Zn249   1.934   .     S
O196   Zn245   1.940   .     S
O196   Zn249   1.940   .     S
O196   Zn743   1.940   1_545 S
O196   Zn243   1.940   .     S
O197   Zn248   1.934   .     S
O198   Zn240   1.931   .     S
O199   Zn239   1.931   .     S
O200   Zn242   1.931   .     S
O201   Zn241   1.931   .     S
O202   Zn244   1.931   .     S
O203   Zn243   1.931   .     S
O204   Zn238   1.931   .     S
O205   Zn252   1.931   .     S
O206   Zn239   1.931   .     S
O207   Zn494   1.940   1_455 S
O207   Zn246   1.940   .     S
O207   Zn238   1.940   .     S
O207   Zn250   1.940   .     S
O208   Zn240   1.931   .     S
O209   Zn252   1.931   .     S
O210   Zn238   1.931   .     S
O211   Zn243   1.931   .     S
O212   Zn244   1.931   .     S
O213   Zn241   1.931   .     S
O214   Zn242   1.931   .     S
O215   Zn499   1.931   .     S
O216   Zn246   1.931   .     S
O217   Zn753   1.931   .     S
O218   Zn241   1.940   .     S
O218   Zn247   1.940   .     S
O218   Zn251   1.940   .     S
O218   Zn504   1.940   1_455 S
O219   Zn248   1.931   .     S
O220   Zn251   1.931   .     S
O221   Zn502   1.931   .     S
O222   Zn245   1.931   .     S
O223   Zn741   1.931   .     S
O224   Zn498   1.931   .     S
O225   Zn247   1.931   .     S
O226   Zn237   1.931   .     S
O227   Zn749   1.931   .     S
O228   Zn250   1.931   .     S
O229   Zn244   1.934   .     S
O229   C609    1.277   .     S
O230   Zn503   1.931   .     S
O231   Zn752   1.931   .     S
O232   Zn249   1.931   .     S
O233   Zn243   1.934   .     S
O234   Zn238   1.934   .     S
O235   C360    1.277   .     A
O235   Zn252   1.934   .     S
O236   Zn240   1.934   .     S
Zn237  O727    1.931   1_545 S
Zn239  O700    1.940   .     S
Zn242  O459    1.940   .     S
Zn244  O689    1.940   .     S
Zn245  O731    1.931   1_545 S
Zn246  O476    1.931   1_455 S
Zn247  O467    1.931   1_455 S
Zn248  O735    1.931   1_545 S
Zn249  O721    1.931   1_545 S
Zn250  O473    1.931   1_455 S
Zn251  O482    1.931   1_455 S
Zn252  O470    1.940   .     S
Br253  C383    1.933   .     S
Br254  C393    1.933   .     S
Br255  C394    1.933   .     S
Br256  C395    1.933   .     S
Br257  C396    1.933   .     S
Br258  C397    1.933   .     S
Br259  C398    1.933   .     S
Br260  C400    1.933   .     S
Br261  C401    1.933   .     S
Br262  C402    1.933   .     S
Br263  C403    1.933   .     S
Br264  C384    1.933   .     S
Br265  C404    1.933   .     S
Br266  C405    1.933   .     S
Br267  C406    1.933   .     S
Br268  C407    1.933   .     S
Br269  C408    1.933   .     S
Br270  C409    1.933   .     S
Br271  C411    1.933   .     S
Br272  C412    1.933   .     S
Br273  C413    1.933   .     S
Br274  C414    1.933   .     S
Br275  C385    1.933   .     S
Br276  C415    1.933   .     S
Br277  C416    1.933   .     S
Br278  C417    1.933   .     S
Br279  C330    1.921   .     S
Br280  C331    1.921   .     S
Br281  C332    1.921   .     S
Br282  C334    1.921   .     S
Br283  C335    1.921   .     S
Br284  C336    1.921   .     S
Br285  C337    1.921   .     S
Br286  C386    1.933   .     S
Br287  C338    1.921   .     S
Br288  C339    1.921   .     S
Br289  C340    1.921   .     S
Br290  C341    1.921   .     S
Br291  C342    1.921   .     S
Br292  C343    1.921   .     S
Br293  C345    1.921   .     S
Br294  C346    1.921   .     S
Br295  C347    1.921   .     S
Br296  C387    1.933   .     S
Br297  C389    1.933   .     S
Br298  C390    1.933   .     S
Br299  C391    1.933   .     S
Br300  C392    1.933   .     S
C301   C330    1.394   .     A
C301   H421    1.083   .     S
C301   C852    1.401   .     S
C302   C340    1.394   .     A
C302   H422    1.083   .     S
C302   C353    1.401   .     A
C303   C396    1.407   .     A
C303   C403    1.407   .     A
C303   C367    1.451   .     S
C304   C368    1.451   .     S
C304   C395    1.407   .     A
C304   C406    1.407   .     A
C305   C369    1.451   .     S
C305   C394    1.407   .     A
C305   C405    1.407   .     A
C306   C408    1.407   .     A
C306   C370    1.451   .     S
C306   C393    1.407   .     A
C307   C407    1.407   .     A
C307   C392    1.407   .     A
C307   C371    1.451   .     S
C308   C381    1.451   .     S
C308   C411    1.407   .     A
C308   C391    1.407   .     A
C309   C382    1.451   .     S
C309   C390    1.407   .     A
C309   C409    1.407   .     A
C310   C374    1.451   .     S
C310   C389    1.407   .     A
C310   C413    1.407   .     A
C311   C375    1.451   .     S
C311   C412    1.407   .     A
C311   C387    1.407   .     A
C312   C415    1.407   .     A
C312   C376    1.451   .     S
C312   C386    1.407   .     A
C313   H423    1.083   .     S
C313   C341    1.394   .     A
C313   C858    1.401   .     A
C314   C385    1.407   .     A
C314   C378    1.451   .     S
C314   C414    1.407   .     A
C315   C417    1.407   .     A
C315   C384    1.407   .     A
C315   C379    1.451   .     S
C316   C416    1.407   .     A
C316   C380    1.451   .     S
C316   C383    1.407   .     A
C317   C335    1.407   .     A
C317   C834    1.407   1_545 S
C317   C364    1.456   .     S
C318   C363    1.456   .     S
C318   C336    1.407   .     A
C318   C835    1.407   1_545 S
C319   C337    1.407   .     S
C319   C362    1.456   .     S
C320   C338    1.407   .     A
C320   C361    1.456   .     S
C321   C360    1.456   .     S
C321   C343    1.407   .     S
C322   C340    1.407   .     A
C322   C359    1.456   .     S
C323   C845    1.407   1_545 A
C323   C358    1.456   .     S
C323   C346    1.407   .     S
C324   H424    1.083   .     S
C324   C342    1.394   .     A
C324   C356    1.401   .     S
C325   C851    1.407   1_545 A
C325   C342    1.407   .     S
C325   C357    1.456   .     S
C326   C343    1.394   .     A
C326   H425    1.083   .     S
C326   C352    1.401   .     S
C327   H426    1.083   .     S
C327   C345    1.394   .     A
C327   C101    1.401   1_655 S
C328   C346    1.394   .     A
C328   H427    1.083   .     S
C328   C354    1.401   .     S
C329   C347    1.394   .     A
C329   H428    1.083   .     S
C329   C860    1.401   .     A
C330   C821    1.407   .     S
C331   C333    1.394   .     A
C331   C822    1.407   .     S
C332   C344    1.394   .     A
C332   C67     1.407   1_655 A
C333   H429    1.083   .     S
C333   C853    1.401   .     S
C334   C355    1.394   .     A
C334   C68     1.407   1_655 S
C335   C366    1.394   .     A
C336   C377    1.394   .     A
C337   C388    1.394   .     A
C338   C399    1.394   .     A
C339   C69     1.407   1_655 A
C339   C410    1.394   .     A
C341   C827    1.407   .     A
C344   H430    1.083   .     S
C344   C98     1.401   1_655 S
C345   C70     1.407   1_655 S
C347   C829    1.407   .     A
C348   C366    1.401   .     A
C348   C805    1.401   1_545 S
C348   C349    1.468   1_554 S
C349   C377    1.401   .     A
C349   C348    1.468   1_556 S
C349   C837    1.401   1_545 S
C350   C388    1.401   .     A
C350   C351    1.468   1_554 S
C351   C399    1.401   .     A
C351   C350    1.468   1_556 S
C352   C353    1.468   .     S
C354   C356    1.468   .     S
C354   C817    1.401   1_545 A
C355   H431    1.083   .     S
C355   C99     1.401   1_655 S
C356   C833    1.401   1_545 A
C357   O488    1.277   .     A
C357   O985    1.277   1_545 S
C358   O942    1.277   1_545 A
C358   O485    1.277   .     S
C359   O486    1.277   .     A
C360   O440    1.277   .     S
C361   O441    1.277   .     S
C361   O445    1.277   .     S
C362   O446    1.277   .     A
C362   O442    1.277   .     A
C363   O443    1.277   .     A
C363   O447    1.277   .     A
C364   O444    1.277   .     S
C364   O449    1.277   .     S
C365   C420    1.451   .     S
C365   O478    1.275   .     A
C365   O450    1.275   .     A
C366   H432    1.083   .     S
C367   O451    1.275   .     A
C367   O479    1.275   .     A
C368   O452    1.275   .     A
C368   O476    1.275   .     A
C369   O477    1.275   .     A
C369   O453    1.275   .     A
C370   O454    1.275   .     A
C370   O483    1.275   .     A
C371   O455    1.275   .     A
C371   O484    1.275   .     A
C372   C418    1.451   .     S
C372   O480    1.275   .     A
C372   O456    1.275   .     A
C373   O457    1.275   .     A
C373   C419    1.451   .     S
C373   O482    1.275   .     A
C374   O469    1.275   .     A
C374   O458    1.275   .     A
C375   O471    1.275   .     A
C375   O460    1.275   .     A
C376   O461    1.275   .     A
C376   O467    1.275   .     A
C377   H433    1.083   .     S
C378   O462    1.275   .     A
C378   O468    1.275   .     A
C379   O474    1.275   .     A
C379   O463    1.275   .     A
C380   O475    1.275   .     A
C380   O464    1.275   .     A
C381   O472    1.275   .     A
C381   O465    1.275   .     A
C382   O473    1.275   .     A
C382   O466    1.275   .     A
C383   C400    1.399   .     A
C384   C398    1.399   .     A
C385   C397    1.399   .     A
C386   C396    1.399   .     A
C387   C395    1.399   .     A
C388   H434    1.083   .     S
C389   C394    1.399   .     A
C390   C393    1.399   .     A
C391   C392    1.399   .     A
C397   C420    1.407   .     A
C398   C419    1.407   .     A
C399   H435    1.083   .     S
C400   C418    1.407   .     A
C401   C419    1.407   .     A
C401   C417    1.399   .     A
C402   C418    1.407   .     A
C402   C416    1.399   .     A
C403   C415    1.399   .     A
C404   C420    1.407   .     A
C404   C414    1.399   .     A
C405   C413    1.399   .     A
C406   C412    1.399   .     A
C407   C411    1.399   .     A
C408   C409    1.399   .     A
C410   C100    1.401   1_655 A
C410   H436    1.083   .     S
O437   Zn492   1.940   .     S
O437   Zn489   1.940   .     S
O437   Zn500   1.940   .     S
O437   Zn1000  1.940   1_545 S
O438   C862    1.277   .     A
O438   Zn491   1.934   .     S
O439   Zn494   1.934   .     S
O439   C107    1.277   1_655 S
O440   Zn493   1.934   .     S
O441   Zn503   1.934   .     S
O442   Zn502   1.934   .     S
O443   Zn497   1.934   .     S
O444   Zn489   1.934   .     S
O445   Zn499   1.934   .     S
O446   Zn498   1.934   .     S
O447   Zn501   1.934   .     S
O448   Zn497   1.940   .     S
O448   Zn501   1.940   .     S
O448   Zn995   1.940   1_545 S
O448   Zn495   1.940   .     S
O449   Zn500   1.934   .     S
O450   Zn492   1.931   .     S
O451   Zn491   1.931   .     S
O452   Zn494   1.931   .     S
O453   Zn493   1.931   .     S
O454   Zn496   1.931   .     S
O455   Zn495   1.931   .     S
O456   Zn490   1.931   .     S
O457   Zn504   1.931   .     S
O458   Zn491   1.931   .     S
O459   Zn498   1.940   .     S
O459   Zn490   1.940   .     S
O459   Zn502   1.940   .     S
O460   Zn492   1.931   .     S
O461   Zn504   1.931   .     S
O462   Zn490   1.931   .     S
O463   Zn495   1.931   .     S
O464   Zn496   1.931   .     S
O465   Zn493   1.931   .     S
O466   Zn494   1.931   .     S
O467   Zn247   1.931   1_655 S
O468   Zn498   1.931   .     S
O469   Zn1005  1.931   .     S
O470   Zn493   1.940   .     S
O470   Zn499   1.940   .     S
O470   Zn503   1.940   .     S
O471   Zn500   1.931   .     S
O472   Zn503   1.931   .     S
O473   Zn250   1.931   1_655 S
O474   Zn497   1.931   .     S
O475   Zn993   1.931   .     S
O476   Zn246   1.931   1_655 S
O477   Zn499   1.931   .     S
O478   Zn489   1.931   .     S
O479   Zn1001  1.931   .     S
O480   Zn502   1.931   .     S
O481   Zn496   1.934   .     S
O481   C861    1.277   .     S
O482   Zn251   1.931   1_655 S
O483   Zn1004  1.931   .     S
O484   Zn501   1.931   .     S
O485   Zn495   1.934   .     S
O486   Zn490   1.934   .     S
O487   C108    1.277   1_655 A
O487   Zn504   1.934   .     S
O488   Zn492   1.934   .     S
Zn489  O979    1.931   1_545 S
Zn491  O952    1.940   .     S
Zn494  O207    1.940   1_655 S
Zn496  O941    1.940   .     S
Zn497  O983    1.931   1_545 S
Zn500  O987    1.931   1_545 S
Zn501  O973    1.931   1_545 S
Zn504  O218    1.940   1_655 S
Br505  C635    1.933   .     S
Br506  C645    1.933   .     S
Br507  C646    1.933   .     S
Br508  C647    1.933   .     S
Br509  C648    1.933   .     S
Br510  C649    1.933   .     S
Br511  C650    1.933   .     S
Br512  C652    1.933   .     S
Br513  C653    1.933   .     S
Br514  C654    1.933   .     S
Br515  C655    1.933   .     S
Br516  C636    1.933   .     S
Br517  C656    1.933   .     S
Br518  C657    1.933   .     S
Br519  C658    1.933   .     S
Br520  C659    1.933   .     S
Br521  C660    1.933   .     S
Br522  C661    1.933   .     S
Br523  C663    1.933   .     S
Br524  C664    1.933   .     S
Br525  C665    1.933   .     S
Br526  C666    1.933   .     S
Br527  C637    1.933   .     S
Br528  C667    1.933   .     S
Br529  C668    1.933   .     S
Br530  C669    1.933   .     S
Br531  C582    1.921   .     S
Br532  C583    1.921   .     S
Br533  C584    1.921   .     S
Br534  C586    1.921   .     S
Br535  C587    1.921   .     S
Br536  C588    1.921   .     S
Br537  C589    1.921   .     S
Br538  C638    1.933   .     S
Br539  C590    1.921   .     S
Br540  C591    1.921   .     S
Br541  C592    1.921   .     S
Br542  C593    1.921   .     S
Br543  C594    1.921   .     S
Br544  C595    1.921   .     S
Br545  C597    1.921   .     S
Br546  C598    1.921   .     S
Br547  C599    1.921   .     S
Br548  C639    1.933   .     S
Br549  C641    1.933   .     S
Br550  C642    1.933   .     S
Br551  C643    1.933   .     S
Br552  C644    1.933   .     S
C553   C582    1.394   .     A
C553   H673    1.083   .     S
C553   C96     1.401   1_565 S
C554   C592    1.394   .     A
C554   H674    1.083   .     S
C554   C605    1.401   .     A
C555   C648    1.407   .     A
C555   C655    1.407   .     A
C555   C619    1.451   .     S
C556   C620    1.451   .     S
C556   C647    1.407   .     A
C556   C658    1.407   .     A
C557   C621    1.451   .     S
C557   C646    1.407   .     A
C557   C657    1.407   .     A
C558   C660    1.407   .     A
C558   C622    1.451   .     S
C558   C645    1.407   .     A
C559   C659    1.407   .     A
C559   C644    1.407   .     A
C559   C623    1.451   .     S
C560   C633    1.451   .     S
C560   C663    1.407   .     A
C560   C643    1.407   .     A
C561   C634    1.451   .     S
C561   C642    1.407   .     A
C561   C661    1.407   .     A
C562   C626    1.451   .     S
C562   C641    1.407   .     A
C562   C665    1.407   .     A
C563   C627    1.451   .     S
C563   C664    1.407   .     A
C563   C639    1.407   .     A
C564   C667    1.407   .     A
C564   C628    1.451   .     S
C564   C638    1.407   .     A
C565   H675    1.083   .     S
C565   C593    1.394   .     A
C565   C102    1.401   1_565 A
C566   C637    1.407   .     A
C566   C630    1.451   .     S
C566   C666    1.407   .     A
C567   C669    1.407   .     A
C567   C636    1.407   .     A
C567   C631    1.451   .     S
C568   C668    1.407   .     A
C568   C632    1.451   .     S
C568   C635    1.407   .     A
C569   C587    1.407   .     A
C569   C616    1.456   .     S
C570   C615    1.456   .     S
C570   C588    1.407   .     A
C571   C836    1.407   1_455 A
C571   C589    1.407   .     S
C571   C614    1.456   .     S
C572   C590    1.407   .     A
C572   C838    1.407   1_455 S
C572   C613    1.456   .     S
C573   C843    1.407   1_455 A
C573   C612    1.456   .     S
C573   C595    1.407   .     S
C574   C592    1.407   .     A
C574   C611    1.456   .     S
C574   C849    1.407   1_455 S
C575   C610    1.456   .     S
C575   C598    1.407   .     S
C576   H676    1.083   .     S
C576   C594    1.394   .     A
C576   C608    1.401   .     S
C577   C594    1.407   .     S
C577   C609    1.456   .     S
C578   C595    1.394   .     A
C578   H677    1.083   .     S
C578   C604    1.401   .     S
C579   H678    1.083   .     S
C579   C597    1.394   .     A
C579   C857    1.401   .     S
C580   C598    1.394   .     A
C580   H679    1.083   .     S
C580   C606    1.401   .     S
C581   C599    1.394   .     A
C581   H680    1.083   .     S
C581   C104    1.401   1_565 A
C582   C65     1.407   1_565 S
C583   C585    1.394   .     A
C583   C66     1.407   1_565 S
C584   C596    1.394   .     A
C584   C823    1.407   .     A
C585   H681    1.083   .     S
C585   C97     1.401   1_565 S
C586   C607    1.394   .     A
C586   C824    1.407   .     S
C587   C618    1.394   .     A
C588   C629    1.394   .     A
C589   C640    1.394   .     A
C590   C651    1.394   .     A
C591   C825    1.407   .     A
C591   C662    1.394   .     A
C593   C71     1.407   1_565 A
C596   H682    1.083   .     S
C596   C854    1.401   .     S
C597   C826    1.407   .     S
C599   C73     1.407   1_565 A
C600   C618    1.401   .     A
C600   C601    1.468   1_554 S
C601   C629    1.401   .     A
C601   C600    1.468   1_556 S
C602   C640    1.401   .     A
C602   C848    1.401   1_455 S
C602   C603    1.468   1_554 S
C603   C651    1.401   .     A
C603   C602    1.468   1_556 S
C603   C859    1.401   1_455 S
C604   C914    1.401   1_455 A
C604   C605    1.468   .     S
C605   C831    1.401   1_455 S
C606   C608    1.468   .     S
C607   H683    1.083   .     S
C607   C855    1.401   .     S
C609   O740    1.277   .     A
C610   O737    1.277   .     S
C611   O738    1.277   .     A
C611   O943    1.277   1_455 S
C612   O991    1.277   1_455 A
C612   O692    1.277   .     S
C613   O693    1.277   .     S
C613   O697    1.277   .     S
C614   O698    1.277   .     A
C614   O694    1.277   .     A
C615   O695    1.277   .     A
C615   O699    1.277   .     A
C616   O696    1.277   .     S
C616   O701    1.277   .     S
C617   C672    1.451   .     S
C617   O730    1.275   .     A
C617   O702    1.275   .     A
C618   H684    1.083   .     S
C619   O703    1.275   .     A
C619   O731    1.275   .     A
C620   O704    1.275   .     A
C620   O728    1.275   .     A
C621   O729    1.275   .     A
C621   O705    1.275   .     A
C622   O706    1.275   .     A
C622   O735    1.275   .     A
C623   O707    1.275   .     A
C623   O736    1.275   .     A
C624   C670    1.451   .     S
C624   O732    1.275   .     A
C624   O708    1.275   .     A
C625   O709    1.275   .     A
C625   C671    1.451   .     S
C625   O734    1.275   .     A
C626   O721    1.275   .     A
C626   O710    1.275   .     A
C627   O723    1.275   .     A
C627   O712    1.275   .     A
C628   O713    1.275   .     A
C628   O719    1.275   .     A
C629   H685    1.083   .     S
C630   O714    1.275   .     A
C630   O720    1.275   .     A
C631   O726    1.275   .     A
C631   O715    1.275   .     A
C632   O727    1.275   .     A
C632   O716    1.275   .     A
C633   O724    1.275   .     A
C633   O717    1.275   .     A
C634   O725    1.275   .     A
C634   O718    1.275   .     A
C635   C652    1.399   .     A
C636   C650    1.399   .     A
C637   C649    1.399   .     A
C638   C648    1.399   .     A
C639   C647    1.399   .     A
C640   H686    1.083   .     S
C641   C646    1.399   .     A
C642   C645    1.399   .     A
C643   C644    1.399   .     A
C649   C672    1.407   .     A
C650   C671    1.407   .     A
C651   H687    1.083   .     S
C652   C670    1.407   .     A
C653   C671    1.407   .     A
C653   C669    1.399   .     A
C654   C670    1.407   .     A
C654   C668    1.399   .     A
C655   C667    1.399   .     A
C656   C672    1.407   .     A
C656   C666    1.399   .     A
C657   C665    1.399   .     A
C658   C664    1.399   .     A
C659   C663    1.399   .     A
C660   C661    1.399   .     A
C662   C856    1.401   .     A
C662   H688    1.083   .     S
O689   Zn744   1.940   .     S
O689   Zn741   1.940   .     S
O689   Zn752   1.940   .     S
O690   C106    1.277   1_565 A
O690   Zn743   1.934   .     S
O691   Zn746   1.934   .     S
O691   C863    1.277   .     S
O692   Zn745   1.934   .     S
O693   Zn755   1.934   .     S
O694   Zn754   1.934   .     S
O695   Zn749   1.934   .     S
O696   Zn741   1.934   .     S
O697   Zn751   1.934   .     S
O698   Zn750   1.934   .     S
O699   Zn753   1.934   .     S
O700   Zn749   1.940   .     S
O700   Zn753   1.940   .     S
O700   Zn747   1.940   .     S
O701   Zn752   1.934   .     S
O702   Zn744   1.931   .     S
O703   Zn743   1.931   .     S
O704   Zn746   1.931   .     S
O705   Zn745   1.931   .     S
O706   Zn748   1.931   .     S
O707   Zn747   1.931   .     S
O708   Zn742   1.931   .     S
O709   Zn756   1.931   .     S
O710   Zn743   1.931   .     S
O711   Zn998   1.940   1_455 S
O711   Zn750   1.940   .     S
O711   Zn742   1.940   .     S
O711   Zn754   1.940   .     S
O712   Zn744   1.931   .     S
O713   Zn756   1.931   .     S
O714   Zn742   1.931   .     S
O715   Zn747   1.931   .     S
O716   Zn748   1.931   .     S
O717   Zn745   1.931   .     S
O718   Zn746   1.931   .     S
O719   Zn1003  1.931   .     S
O720   Zn750   1.931   .     S
O721   Zn249   1.931   1_565 S
O722   Zn745   1.940   .     S
O722   Zn751   1.940   .     S
O722   Zn755   1.940   .     S
O722   Zn1008  1.940   1_455 S
O723   Zn752   1.931   .     S
O724   Zn755   1.931   .     S
O725   Zn1006  1.931   .     S
O726   Zn749   1.931   .     S
O727   Zn237   1.931   1_565 S
O728   Zn1002  1.931   .     S
O729   Zn751   1.931   .     S
O730   Zn741   1.931   .     S
O731   Zn245   1.931   1_565 S
O732   Zn754   1.931   .     S
O733   Zn748   1.934   .     S
O733   C105    1.277   1_565 S
O734   Zn1007  1.931   .     S
O735   Zn248   1.931   1_565 S
O736   Zn753   1.931   .     S
O737   Zn747   1.934   .     S
O738   Zn742   1.934   .     S
O739   C864    1.277   .     A
O739   Zn756   1.934   .     S
O740   Zn744   1.934   .     S
Zn743  O196    1.940   1_565 S
Zn746  O963    1.940   .     S
Zn748  O185    1.940   1_565 S
Zn750  O980    1.931   1_455 S
Zn751  O971    1.931   1_455 S
Zn754  O977    1.931   1_455 S
Zn755  O986    1.931   1_455 S
Zn756  O974    1.940   .     S
Br757  C887    1.933   .     S
Br758  C897    1.933   .     S
Br759  C898    1.933   .     S
Br760  C899    1.933   .     S
Br761  C900    1.933   .     S
Br762  C901    1.933   .     S
Br763  C902    1.933   .     S
Br764  C904    1.933   .     S
Br765  C905    1.933   .     S
Br766  C906    1.933   .     S
Br767  C907    1.933   .     S
Br768  C888    1.933   .     S
Br769  C908    1.933   .     S
Br770  C909    1.933   .     S
Br771  C910    1.933   .     S
Br772  C911    1.933   .     S
Br773  C912    1.933   .     S
Br774  C913    1.933   .     S
Br775  C915    1.933   .     S
Br776  C916    1.933   .     S
Br777  C917    1.933   .     S
Br778  C918    1.933   .     S
Br779  C889    1.933   .     S
Br780  C919    1.933   .     S
Br781  C920    1.933   .     S
Br782  C921    1.933   .     S
Br783  C834    1.921   .     S
Br784  C835    1.921   .     S
Br785  C836    1.921   .     S
Br786  C838    1.921   .     S
Br787  C839    1.921   .     S
Br788  C840    1.921   .     S
Br789  C841    1.921   .     S
Br790  C890    1.933   .     S
Br791  C842    1.921   .     S
Br792  C843    1.921   .     S
Br793  C844    1.921   .     S
Br794  C845    1.921   .     S
Br795  C846    1.921   .     S
Br796  C847    1.921   .     S
Br797  C849    1.921   .     S
Br798  C850    1.921   .     S
Br799  C851    1.921   .     S
Br800  C891    1.933   .     S
Br801  C893    1.933   .     S
Br802  C894    1.933   .     S
Br803  C895    1.933   .     S
Br804  C896    1.933   .     S
C805   C834    1.394   .     A
C805   H925    1.083   .     S
C805   C348    1.401   1_565 S
C806   C844    1.394   .     A
C806   H926    1.083   .     S
C806   C857    1.401   .     A
C807   C900    1.407   .     A
C807   C907    1.407   .     A
C807   C871    1.451   .     S
C808   C872    1.451   .     S
C808   C899    1.407   .     A
C808   C910    1.407   .     A
C809   C873    1.451   .     S
C809   C898    1.407   .     A
C809   C909    1.407   .     A
C810   C912    1.407   .     A
C810   C874    1.451   .     S
C810   C897    1.407   .     A
C811   C911    1.407   .     A
C811   C896    1.407   .     A
C811   C875    1.451   .     S
C812   C885    1.451   .     S
C812   C915    1.407   .     A
C812   C895    1.407   .     A
C813   C886    1.451   .     S
C813   C894    1.407   .     A
C813   C913    1.407   .     A
C814   C878    1.451   .     S
C814   C893    1.407   .     A
C814   C917    1.407   .     A
C815   C879    1.451   .     S
C815   C916    1.407   .     A
C815   C891    1.407   .     A
C816   C919    1.407   .     A
C816   C880    1.451   .     S
C816   C890    1.407   .     A
C817   H927    1.083   .     S
C817   C845    1.394   .     A
C817   C354    1.401   1_565 A
C818   C889    1.407   .     A
C818   C882    1.451   .     S
C818   C918    1.407   .     A
C819   C921    1.407   .     A
C819   C888    1.407   .     A
C819   C883    1.451   .     S
C820   C920    1.407   .     A
C820   C884    1.451   .     S
C820   C887    1.407   .     A
C821   C839    1.407   .     A
C821   C868    1.456   .     S
C822   C867    1.456   .     S
C822   C840    1.407   .     A
C823   C841    1.407   .     S
C823   C866    1.456   .     S
C824   C842    1.407   .     A
C824   C865    1.456   .     S
C825   C864    1.456   .     S
C825   C847    1.407   .     S
C826   C844    1.407   .     A
C826   C863    1.456   .     S
C827   C862    1.456   .     S
C827   C850    1.407   .     S
C828   H928    1.083   .     S
C828   C846    1.394   .     A
C828   C860    1.401   .     S
C829   C846    1.407   .     S
C829   C861    1.456   .     S
C830   C847    1.394   .     A
C830   H929    1.083   .     S
C830   C856    1.401   .     S
C831   H930    1.083   .     S
C831   C849    1.394   .     A
C831   C605    1.401   1_655 S
C832   C850    1.394   .     A
C832   H931    1.083   .     S
C832   C858    1.401   .     S
C833   C851    1.394   .     A
C833   H932    1.083   .     S
C833   C356    1.401   1_565 A
C834   C317    1.407   1_565 S
C835   C837    1.394   .     A
C835   C318    1.407   1_565 S
C836   C848    1.394   .     A
C836   C571    1.407   1_655 A
C837   H933    1.083   .     S
C837   C349    1.401   1_565 S
C838   C859    1.394   .     A
C838   C572    1.407   1_655 S
C839   C870    1.394   .     A
C840   C881    1.394   .     A
C841   C892    1.394   .     A
C842   C903    1.394   .     A
C843   C573    1.407   1_655 A
C843   C914    1.394   .     A
C845   C323    1.407   1_565 A
C848   H934    1.083   .     S
C848   C602    1.401   1_655 S
C849   C574    1.407   1_655 S
C851   C325    1.407   1_565 A
C852   C870    1.401   .     A
C852   C853    1.468   1_554 S
C853   C881    1.401   .     A
C853   C852    1.468   1_556 S
C854   C892    1.401   .     A
C854   C855    1.468   1_554 S
C855   C903    1.401   .     A
C855   C854    1.468   1_556 S
C856   C857    1.468   .     S
C858   C860    1.468   .     S
C859   H935    1.083   .     S
C859   C603    1.401   1_655 S
C861   O992    1.277   .     A
C862   O989    1.277   .     S
C863   O990    1.277   .     A
C864   O944    1.277   .     S
C865   O945    1.277   .     S
C865   O949    1.277   .     S
C866   O950    1.277   .     A
C866   O946    1.277   .     A
C867   O947    1.277   .     A
C867   O951    1.277   .     A
C868   O948    1.277   .     S
C868   O953    1.277   .     S
C869   C924    1.451   .     S
C869   O982    1.275   .     A
C869   O954    1.275   .     A
C870   H936    1.083   .     S
C871   O955    1.275   .     A
C871   O983    1.275   .     A
C872   O956    1.275   .     A
C872   O980    1.275   .     A
C873   O981    1.275   .     A
C873   O957    1.275   .     A
C874   O958    1.275   .     A
C874   O987    1.275   .     A
C875   O959    1.275   .     A
C875   O988    1.275   .     A
C876   C922    1.451   .     S
C876   O984    1.275   .     A
C876   O960    1.275   .     A
C877   O961    1.275   .     A
C877   C923    1.451   .     S
C877   O986    1.275   .     A
C878   O973    1.275   .     A
C878   O962    1.275   .     A
C879   O975    1.275   .     A
C879   O964    1.275   .     A
C880   O965    1.275   .     A
C880   O971    1.275   .     A
C881   H937    1.083   .     S
C882   O966    1.275   .     A
C882   O972    1.275   .     A
C883   O978    1.275   .     A
C883   O967    1.275   .     A
C884   O979    1.275   .     A
C884   O968    1.275   .     A
C885   O976    1.275   .     A
C885   O969    1.275   .     A
C886   O977    1.275   .     A
C886   O970    1.275   .     A
C887   C904    1.399   .     A
C888   C902    1.399   .     A
C889   C901    1.399   .     A
C890   C900    1.399   .     A
C891   C899    1.399   .     A
C892   H938    1.083   .     S
C893   C898    1.399   .     A
C894   C897    1.399   .     A
C895   C896    1.399   .     A
C901   C924    1.407   .     A
C902   C923    1.407   .     A
C903   H939    1.083   .     S
C904   C922    1.407   .     A
C905   C923    1.407   .     A
C905   C921    1.399   .     A
C906   C922    1.407   .     A
C906   C920    1.399   .     A
C907   C919    1.399   .     A
C908   C924    1.407   .     A
C908   C918    1.399   .     A
C909   C917    1.399   .     A
C910   C916    1.399   .     A
C911   C915    1.399   .     A
C912   C913    1.399   .     A
C914   C604    1.401   1_655 A
C914   H940    1.083   .     S
O941   Zn996   1.940   .     S
O941   Zn993   1.940   .     S
O941   Zn1004  1.940   .     S
O942   C358    1.277   1_565 A
O942   Zn995   1.934   .     S
O943   Zn998   1.934   .     S
O943   C611    1.277   1_655 S
O944   Zn997   1.934   .     S
O945   Zn1007  1.934   .     S
O946   Zn1006  1.934   .     S
O947   Zn1001  1.934   .     S
O948   Zn993   1.934   .     S
O949   Zn1003  1.934   .     S
O950   Zn1002  1.934   .     S
O951   Zn1005  1.934   .     S
O952   Zn1001  1.940   .     S
O952   Zn1005  1.940   .     S
O952   Zn999   1.940   .     S
O953   Zn1004  1.934   .     S
O954   Zn996   1.931   .     S
O955   Zn995   1.931   .     S
O956   Zn998   1.931   .     S
O957   Zn997   1.931   .     S
O958   Zn1000  1.931   .     S
O959   Zn999   1.931   .     S
O960   Zn994   1.931   .     S
O961   Zn1008  1.931   .     S
O962   Zn995   1.931   .     S
O963   Zn1002  1.940   .     S
O963   Zn994   1.940   .     S
O963   Zn1006  1.940   .     S
O964   Zn996   1.931   .     S
O965   Zn1008  1.931   .     S
O966   Zn994   1.931   .     S
O967   Zn999   1.931   .     S
O968   Zn1000  1.931   .     S
O969   Zn997   1.931   .     S
O970   Zn998   1.931   .     S
O971   Zn751   1.931   1_655 S
O972   Zn1002  1.931   .     S
O973   Zn501   1.931   1_565 S
O974   Zn997   1.940   .     S
O974   Zn1003  1.940   .     S
O974   Zn1007  1.940   .     S
O975   Zn1004  1.931   .     S
O976   Zn1007  1.931   .     S
O977   Zn754   1.931   1_655 S
O978   Zn1001  1.931   .     S
O979   Zn489   1.931   1_565 S
O980   Zn750   1.931   1_655 S
O981   Zn1003  1.931   .     S
O982   Zn993   1.931   .     S
O983   Zn497   1.931   1_565 S
O984   Zn1006  1.931   .     S
O985   Zn1000  1.934   .     S
O985   C357    1.277   1_565 S
O986   Zn755   1.931   1_655 S
O987   Zn500   1.931   1_565 S
O988   Zn1005  1.931   .     S
O989   Zn999   1.934   .     S
O990   Zn994   1.934   .     S
O991   C612    1.277   1_655 A
O991   Zn1008  1.934   .     S
O992   Zn996   1.934   .     S
Zn995  O448    1.940   1_565 S
Zn998  O711    1.940   1_655 S
Zn1000 O437    1.940   1_565 S
Zn1008 O722    1.940   1_655 S
