data_str_m1_o10_o16_pcu_sym.164
_audit_creation_date              2020-01-03
_audit_creation_method            'Materials Studio'
_symmetry_space_group_name_H-M    'P1'
_symmetry_Int_Tables_number       1
_symmetry_cell_setting            triclinic
loop_
_symmetry_equiv_pos_as_xyz
  x,y,z
_cell_length_a                    32.5268
_cell_length_b                    32.5265
_cell_length_c                    31.0804
_cell_angle_alpha                 96.6795
_cell_angle_beta                  75.0289
_cell_angle_gamma                 98.5266
loop_
_atom_site_label
_atom_site_type_symbol
_atom_site_fract_x
_atom_site_fract_y
_atom_site_fract_z
_atom_site_U_iso_or_equiv
_atom_site_adp_type
_atom_site_occupancy
C1     C     0.05272   0.15956   0.26001   0.00000  Uiso   1.00
C2     C     0.17738   0.16560   0.05794   0.00000  Uiso   1.00
C3     C     0.20267   0.10031   0.06208   0.00000  Uiso   1.00
C4     C     0.28073   0.17377   0.24006   0.00000  Uiso   1.00
C5     C     0.14089   0.19212   0.42011   0.00000  Uiso   1.00
C6     C     0.32656   0.17646   0.23610   0.00000  Uiso   1.00
C7     C     0.00746   0.15698   0.26384   0.00000  Uiso   1.00
C8     C     0.18038   0.32243   0.23663   0.00000  Uiso   1.00
C9     C     0.15177   0.01172   0.26377   0.00000  Uiso   1.00
C10    C     0.15609   0.05584   0.26017   0.00000  Uiso   1.00
C11    C     0.17654   0.27787   0.24021   0.00000  Uiso   1.00
C12    C     0.12486   0.24197   0.48495   0.00000  Uiso   1.00
C13    C     0.18509   0.14795   0.12947   0.00000  Uiso   1.00
C14    C     0.14785   0.18390   0.37110   0.00000  Uiso   1.00
C15    C     0.19937   0.08701   0.01863   0.00000  Uiso   1.00
C16    C     0.19125   0.13904   0.08161   0.00000  Uiso   1.00
C17    C     0.12669   0.23012   0.44001   0.00000  Uiso   1.00
C18    C     0.21308   0.04516   0.49858   0.00000  Uiso   1.00
C19    C     0.10814   0.28194   0.00665   0.00000  Uiso   1.00
C20    C     0.13946   0.21680   0.00987   0.00000  Uiso   1.00
C21    C     0.15444   0.17835   0.49097   0.00000  Uiso   1.00
C22    C     0.15163   0.16458   0.44664   0.00000  Uiso   1.00
C23    C     0.17138   0.15276   0.01489   0.00000  Uiso   1.00
C24    C     0.18238   0.11267   0.49527   0.00000  Uiso   1.00
C25    C     0.17463   0.09836   0.45355   0.00000  Uiso   1.00
C26    C     0.15867   0.12336   0.43031   0.00000  Uiso   1.00
H27    H     0.21299   0.07997   0.08146   0.00000  Uiso   1.00
H28    H     0.20678   0.00364   0.21167   0.00000  Uiso   1.00
H29    H     0.23858   0.04923   0.46725   0.00000  Uiso   1.00
H30    H     0.22607   0.02991   0.02154   0.00000  Uiso   1.00
H31    H     0.18529   0.02404   0.49117   0.00000  Uiso   1.00
H32    H     0.09979   0.29977   0.48237   0.00000  Uiso   1.00
H33    H     0.07895   0.27485   0.03379   0.00000  Uiso   1.00
H34    H     0.13278   0.30174   0.02127   0.00000  Uiso   1.00
H35    H     0.31921   0.13900   0.28977   0.00000  Uiso   1.00
H36    H     0.12497   0.33131   0.28881   0.00000  Uiso   1.00
H37    H     0.18029   0.06739   0.43844   0.00000  Uiso   1.00
H38    H     0.16968   0.19523   0.07513   0.00000  Uiso   1.00
H39    H     0.11761   0.25101   0.42030   0.00000  Uiso   1.00
H40    H     0.13771   0.22793   0.04422   0.00000  Uiso   1.00
H41    H     0.15079   0.10910   0.39985   0.00000  Uiso   1.00
H42    H     0.01551   0.19437   0.21049   0.00000  Uiso   1.00
O43    O     0.16667   0.16667   0.25000   0.00000  Uiso   1.00
O44    O     0.15451   0.12637   0.15458   0.00000  Uiso   1.00
O45    O     0.12940   0.20391   0.34968   0.00000  Uiso   1.00
O46    O     0.20824   0.17759   0.14606   0.00000  Uiso   1.00
O47    O     0.17451   0.15880   0.34968   0.00000  Uiso   1.00
O48    O     0.17930   0.08019   0.28214   0.00000  Uiso   1.00
O49    O     0.14632   0.26085   0.27013   0.00000  Uiso   1.00
O50    O     0.07412   0.13291   0.23413   0.00000  Uiso   1.00
O51    O     0.26693   0.19272   0.21360   0.00000  Uiso   1.00
O52    O     0.07071   0.18878   0.28213   0.00000  Uiso   1.00
O53    O     0.25491   0.15226   0.27014   0.00000  Uiso   1.00
O54    O     0.13760   0.06944   0.23413   0.00000  Uiso   1.00
O55    O     0.20345   0.25620   0.21360   0.00000  Uiso   1.00
Zn56   Zn    0.19338   0.13994   0.28734   0.00000  Uiso   1.00
Zn57   Zn    0.13379   0.12458   0.21876   0.00000  Uiso   1.00
Zn58   Zn    0.21056   0.19775   0.20657   0.00000  Uiso   1.00
Zn59   Zn    0.12893   0.20439   0.28733   0.00000  Uiso   1.00
C60    C     0.38605   0.15956   0.26001   0.00000  Uiso   1.00
C61    C     0.51071   0.16560   0.05794   0.00000  Uiso   1.00
C62    C     0.53600   0.10031   0.06208   0.00000  Uiso   1.00
C63    C     0.61406   0.17377   0.24006   0.00000  Uiso   1.00
C64    C     0.47423   0.19212   0.42011   0.00000  Uiso   1.00
C65    C     0.65989   0.17646   0.23610   0.00000  Uiso   1.00
C66    C     0.34079   0.15698   0.26384   0.00000  Uiso   1.00
C67    C     0.51371   0.32243   0.23663   0.00000  Uiso   1.00
C68    C     0.48510   0.01172   0.26377   0.00000  Uiso   1.00
C69    C     0.48943   0.05584   0.26017   0.00000  Uiso   1.00
C70    C     0.50987   0.27787   0.24021   0.00000  Uiso   1.00
C71    C     0.45819   0.24197   0.48495   0.00000  Uiso   1.00
C72    C     0.51843   0.14795   0.12947   0.00000  Uiso   1.00
C73    C     0.48118   0.18390   0.37110   0.00000  Uiso   1.00
C74    C     0.53270   0.08701   0.01863   0.00000  Uiso   1.00
C75    C     0.52458   0.13904   0.08161   0.00000  Uiso   1.00
C76    C     0.46002   0.23012   0.44001   0.00000  Uiso   1.00
C77    C     0.54642   0.04516   0.49858   0.00000  Uiso   1.00
C78    C     0.44148   0.28194   0.00665   0.00000  Uiso   1.00
C79    C     0.47280   0.21680   0.00987   0.00000  Uiso   1.00
C80    C     0.48777   0.17835   0.49097   0.00000  Uiso   1.00
C81    C     0.48496   0.16458   0.44664   0.00000  Uiso   1.00
C82    C     0.50472   0.15276   0.01489   0.00000  Uiso   1.00
C83    C     0.51572   0.11267   0.49527   0.00000  Uiso   1.00
C84    C     0.50796   0.09836   0.45355   0.00000  Uiso   1.00
C85    C     0.49200   0.12336   0.43031   0.00000  Uiso   1.00
H86    H     0.54633   0.07997   0.08146   0.00000  Uiso   1.00
H87    H     0.54011   0.00364   0.21167   0.00000  Uiso   1.00
H88    H     0.57191   0.04923   0.46725   0.00000  Uiso   1.00
H89    H     0.55941   0.02991   0.02154   0.00000  Uiso   1.00
H90    H     0.51862   0.02404   0.49117   0.00000  Uiso   1.00
H91    H     0.43312   0.29977   0.48237   0.00000  Uiso   1.00
H92    H     0.41229   0.27485   0.03379   0.00000  Uiso   1.00
H93    H     0.46611   0.30174   0.02127   0.00000  Uiso   1.00
H94    H     0.65254   0.13900   0.28977   0.00000  Uiso   1.00
H95    H     0.45830   0.33131   0.28881   0.00000  Uiso   1.00
H96    H     0.51362   0.06739   0.43844   0.00000  Uiso   1.00
H97    H     0.50302   0.19523   0.07513   0.00000  Uiso   1.00
H98    H     0.45094   0.25101   0.42030   0.00000  Uiso   1.00
H99    H     0.47104   0.22793   0.04422   0.00000  Uiso   1.00
H100   H     0.48413   0.10910   0.39985   0.00000  Uiso   1.00
H101   H     0.34884   0.19437   0.21049   0.00000  Uiso   1.00
O102   O     0.50000   0.16667   0.25000   0.00000  Uiso   1.00
O103   O     0.48784   0.12637   0.15458   0.00000  Uiso   1.00
O104   O     0.46274   0.20391   0.34968   0.00000  Uiso   1.00
O105   O     0.54157   0.17759   0.14606   0.00000  Uiso   1.00
O106   O     0.50785   0.15880   0.34968   0.00000  Uiso   1.00
O107   O     0.51264   0.08019   0.28214   0.00000  Uiso   1.00
O108   O     0.47965   0.26085   0.27013   0.00000  Uiso   1.00
O109   O     0.40745   0.13291   0.23413   0.00000  Uiso   1.00
O110   O     0.60026   0.19272   0.21360   0.00000  Uiso   1.00
O111   O     0.40405   0.18878   0.28213   0.00000  Uiso   1.00
O112   O     0.58824   0.15226   0.27014   0.00000  Uiso   1.00
O113   O     0.47093   0.06944   0.23413   0.00000  Uiso   1.00
O114   O     0.53678   0.25620   0.21360   0.00000  Uiso   1.00
Zn115  Zn    0.52672   0.13994   0.28734   0.00000  Uiso   1.00
Zn116  Zn    0.46713   0.12458   0.21876   0.00000  Uiso   1.00
Zn117  Zn    0.54389   0.19775   0.20657   0.00000  Uiso   1.00
Zn118  Zn    0.46226   0.20439   0.28733   0.00000  Uiso   1.00
C119   C     0.71939   0.15956   0.26001   0.00000  Uiso   1.00
C120   C     0.84404   0.16560   0.05794   0.00000  Uiso   1.00
C121   C     0.86933   0.10031   0.06208   0.00000  Uiso   1.00
C122   C     0.94739   0.17377   0.24006   0.00000  Uiso   1.00
C123   C     0.80756   0.19212   0.42011   0.00000  Uiso   1.00
C124   C     0.99322   0.17646   0.23610   0.00000  Uiso   1.00
C125   C     0.67412   0.15698   0.26384   0.00000  Uiso   1.00
C126   C     0.84704   0.32243   0.23663   0.00000  Uiso   1.00
C127   C     0.81843   0.01172   0.26377   0.00000  Uiso   1.00
C128   C     0.82276   0.05584   0.26017   0.00000  Uiso   1.00
C129   C     0.84320   0.27787   0.24021   0.00000  Uiso   1.00
C130   C     0.79152   0.24197   0.48495   0.00000  Uiso   1.00
C131   C     0.85176   0.14795   0.12947   0.00000  Uiso   1.00
C132   C     0.81452   0.18390   0.37110   0.00000  Uiso   1.00
C133   C     0.86604   0.08701   0.01863   0.00000  Uiso   1.00
C134   C     0.85792   0.13904   0.08161   0.00000  Uiso   1.00
C135   C     0.79336   0.23012   0.44001   0.00000  Uiso   1.00
C136   C     0.87975   0.04516   0.49858   0.00000  Uiso   1.00
C137   C     0.77481   0.28194   0.00665   0.00000  Uiso   1.00
C138   C     0.80613   0.21680   0.00987   0.00000  Uiso   1.00
C139   C     0.82111   0.17835   0.49097   0.00000  Uiso   1.00
C140   C     0.81830   0.16458   0.44664   0.00000  Uiso   1.00
C141   C     0.83805   0.15276   0.01489   0.00000  Uiso   1.00
C142   C     0.84905   0.11267   0.49527   0.00000  Uiso   1.00
C143   C     0.84129   0.09836   0.45355   0.00000  Uiso   1.00
C144   C     0.82533   0.12336   0.43031   0.00000  Uiso   1.00
H145   H     0.87966   0.07997   0.08146   0.00000  Uiso   1.00
H146   H     0.87345   0.00364   0.21167   0.00000  Uiso   1.00
H147   H     0.90524   0.04923   0.46725   0.00000  Uiso   1.00
H148   H     0.89274   0.02991   0.02154   0.00000  Uiso   1.00
H149   H     0.85196   0.02404   0.49117   0.00000  Uiso   1.00
H150   H     0.76645   0.29977   0.48237   0.00000  Uiso   1.00
H151   H     0.74562   0.27485   0.03379   0.00000  Uiso   1.00
H152   H     0.79944   0.30174   0.02127   0.00000  Uiso   1.00
H153   H     0.98588   0.13900   0.28977   0.00000  Uiso   1.00
H154   H     0.79164   0.33131   0.28881   0.00000  Uiso   1.00
H155   H     0.84696   0.06739   0.43844   0.00000  Uiso   1.00
H156   H     0.83635   0.19523   0.07513   0.00000  Uiso   1.00
H157   H     0.78427   0.25101   0.42030   0.00000  Uiso   1.00
H158   H     0.80438   0.22793   0.04422   0.00000  Uiso   1.00
H159   H     0.81746   0.10910   0.39985   0.00000  Uiso   1.00
H160   H     0.68217   0.19437   0.21049   0.00000  Uiso   1.00
O161   O     0.83333   0.16667   0.25000   0.00000  Uiso   1.00
O162   O     0.82118   0.12637   0.15458   0.00000  Uiso   1.00
O163   O     0.79607   0.20391   0.34968   0.00000  Uiso   1.00
O164   O     0.87491   0.17759   0.14606   0.00000  Uiso   1.00
O165   O     0.84118   0.15880   0.34968   0.00000  Uiso   1.00
O166   O     0.84597   0.08019   0.28214   0.00000  Uiso   1.00
O167   O     0.81298   0.26085   0.27013   0.00000  Uiso   1.00
O168   O     0.74078   0.13291   0.23413   0.00000  Uiso   1.00
O169   O     0.93360   0.19272   0.21360   0.00000  Uiso   1.00
O170   O     0.73738   0.18878   0.28213   0.00000  Uiso   1.00
O171   O     0.92158   0.15226   0.27014   0.00000  Uiso   1.00
O172   O     0.80426   0.06944   0.23413   0.00000  Uiso   1.00
O173   O     0.87012   0.25620   0.21360   0.00000  Uiso   1.00
Zn174  Zn    0.86005   0.13994   0.28734   0.00000  Uiso   1.00
Zn175  Zn    0.80046   0.12458   0.21876   0.00000  Uiso   1.00
Zn176  Zn    0.87723   0.19775   0.20657   0.00000  Uiso   1.00
Zn177  Zn    0.79560   0.20439   0.28733   0.00000  Uiso   1.00
C178   C     0.05272   0.49289   0.26001   0.00000  Uiso   1.00
C179   C     0.17738   0.49894   0.05794   0.00000  Uiso   1.00
C180   C     0.20267   0.43364   0.06208   0.00000  Uiso   1.00
C181   C     0.28073   0.50710   0.24006   0.00000  Uiso   1.00
C182   C     0.14089   0.52545   0.42011   0.00000  Uiso   1.00
C183   C     0.32656   0.50979   0.23610   0.00000  Uiso   1.00
C184   C     0.00746   0.49031   0.26384   0.00000  Uiso   1.00
C185   C     0.18038   0.65576   0.23663   0.00000  Uiso   1.00
C186   C     0.15177   0.34506   0.26377   0.00000  Uiso   1.00
C187   C     0.15609   0.38917   0.26017   0.00000  Uiso   1.00
C188   C     0.17654   0.61120   0.24021   0.00000  Uiso   1.00
C189   C     0.12486   0.57530   0.48495   0.00000  Uiso   1.00
C190   C     0.18509   0.48128   0.12947   0.00000  Uiso   1.00
C191   C     0.14785   0.51723   0.37110   0.00000  Uiso   1.00
C192   C     0.19937   0.42035   0.01863   0.00000  Uiso   1.00
C193   C     0.19125   0.47238   0.08161   0.00000  Uiso   1.00
C194   C     0.12669   0.56345   0.44001   0.00000  Uiso   1.00
C195   C     0.21308   0.37850   0.49858   0.00000  Uiso   1.00
C196   C     0.10814   0.61527   0.00665   0.00000  Uiso   1.00
C197   C     0.13946   0.55013   0.00987   0.00000  Uiso   1.00
C198   C     0.15444   0.51168   0.49097   0.00000  Uiso   1.00
C199   C     0.15163   0.49792   0.44664   0.00000  Uiso   1.00
C200   C     0.17138   0.48609   0.01489   0.00000  Uiso   1.00
C201   C     0.18238   0.44600   0.49527   0.00000  Uiso   1.00
C202   C     0.17463   0.43170   0.45355   0.00000  Uiso   1.00
C203   C     0.15867   0.45669   0.43031   0.00000  Uiso   1.00
H204   H     0.21299   0.41330   0.08146   0.00000  Uiso   1.00
H205   H     0.20678   0.33697   0.21167   0.00000  Uiso   1.00
H206   H     0.23858   0.38256   0.46725   0.00000  Uiso   1.00
H207   H     0.22607   0.36324   0.02154   0.00000  Uiso   1.00
H208   H     0.18529   0.35737   0.49117   0.00000  Uiso   1.00
H209   H     0.09979   0.63311   0.48237   0.00000  Uiso   1.00
H210   H     0.07895   0.60818   0.03379   0.00000  Uiso   1.00
H211   H     0.13278   0.63508   0.02127   0.00000  Uiso   1.00
H212   H     0.31921   0.47233   0.28977   0.00000  Uiso   1.00
H213   H     0.12497   0.66464   0.28881   0.00000  Uiso   1.00
H214   H     0.18029   0.40072   0.43844   0.00000  Uiso   1.00
H215   H     0.16968   0.52857   0.07513   0.00000  Uiso   1.00
H216   H     0.11761   0.58435   0.42030   0.00000  Uiso   1.00
H217   H     0.13771   0.56126   0.04422   0.00000  Uiso   1.00
H218   H     0.15079   0.44243   0.39985   0.00000  Uiso   1.00
H219   H     0.01551   0.52770   0.21049   0.00000  Uiso   1.00
O220   O     0.16667   0.50000   0.25000   0.00000  Uiso   1.00
O221   O     0.15451   0.45970   0.15458   0.00000  Uiso   1.00
O222   O     0.12940   0.53724   0.34968   0.00000  Uiso   1.00
O223   O     0.20824   0.51092   0.14606   0.00000  Uiso   1.00
O224   O     0.17451   0.49213   0.34968   0.00000  Uiso   1.00
O225   O     0.17930   0.41352   0.28214   0.00000  Uiso   1.00
O226   O     0.14632   0.59418   0.27013   0.00000  Uiso   1.00
O227   O     0.07412   0.46625   0.23413   0.00000  Uiso   1.00
O228   O     0.26693   0.52605   0.21360   0.00000  Uiso   1.00
O229   O     0.07071   0.52211   0.28213   0.00000  Uiso   1.00
O230   O     0.25491   0.48559   0.27014   0.00000  Uiso   1.00
O231   O     0.13760   0.40277   0.23413   0.00000  Uiso   1.00
O232   O     0.20345   0.58953   0.21360   0.00000  Uiso   1.00
Zn233  Zn    0.19338   0.47327   0.28734   0.00000  Uiso   1.00
Zn234  Zn    0.13379   0.45791   0.21876   0.00000  Uiso   1.00
Zn235  Zn    0.21056   0.53109   0.20657   0.00000  Uiso   1.00
Zn236  Zn    0.12893   0.53773   0.28733   0.00000  Uiso   1.00
C237   C     0.38605   0.49289   0.26001   0.00000  Uiso   1.00
C238   C     0.51071   0.49894   0.05794   0.00000  Uiso   1.00
C239   C     0.53600   0.43364   0.06208   0.00000  Uiso   1.00
C240   C     0.61406   0.50710   0.24006   0.00000  Uiso   1.00
C241   C     0.47423   0.52545   0.42011   0.00000  Uiso   1.00
C242   C     0.65989   0.50979   0.23610   0.00000  Uiso   1.00
C243   C     0.34079   0.49031   0.26384   0.00000  Uiso   1.00
C244   C     0.51371   0.65576   0.23663   0.00000  Uiso   1.00
C245   C     0.48510   0.34506   0.26377   0.00000  Uiso   1.00
C246   C     0.48943   0.38917   0.26017   0.00000  Uiso   1.00
C247   C     0.50987   0.61120   0.24021   0.00000  Uiso   1.00
C248   C     0.45819   0.57530   0.48495   0.00000  Uiso   1.00
C249   C     0.51843   0.48128   0.12947   0.00000  Uiso   1.00
C250   C     0.48118   0.51723   0.37110   0.00000  Uiso   1.00
C251   C     0.53270   0.42035   0.01863   0.00000  Uiso   1.00
C252   C     0.52458   0.47238   0.08161   0.00000  Uiso   1.00
C253   C     0.46002   0.56345   0.44001   0.00000  Uiso   1.00
C254   C     0.54642   0.37850   0.49858   0.00000  Uiso   1.00
C255   C     0.44148   0.61527   0.00665   0.00000  Uiso   1.00
C256   C     0.47280   0.55013   0.00987   0.00000  Uiso   1.00
C257   C     0.48777   0.51168   0.49097   0.00000  Uiso   1.00
C258   C     0.48496   0.49792   0.44664   0.00000  Uiso   1.00
C259   C     0.50472   0.48609   0.01489   0.00000  Uiso   1.00
C260   C     0.51572   0.44600   0.49527   0.00000  Uiso   1.00
C261   C     0.50796   0.43170   0.45355   0.00000  Uiso   1.00
C262   C     0.49200   0.45669   0.43031   0.00000  Uiso   1.00
H263   H     0.54633   0.41330   0.08146   0.00000  Uiso   1.00
H264   H     0.54011   0.33697   0.21167   0.00000  Uiso   1.00
H265   H     0.57191   0.38256   0.46725   0.00000  Uiso   1.00
H266   H     0.55941   0.36324   0.02154   0.00000  Uiso   1.00
H267   H     0.51862   0.35737   0.49117   0.00000  Uiso   1.00
H268   H     0.43312   0.63311   0.48237   0.00000  Uiso   1.00
H269   H     0.41229   0.60818   0.03379   0.00000  Uiso   1.00
H270   H     0.46611   0.63508   0.02127   0.00000  Uiso   1.00
H271   H     0.65254   0.47233   0.28977   0.00000  Uiso   1.00
H272   H     0.45830   0.66464   0.28881   0.00000  Uiso   1.00
H273   H     0.51362   0.40072   0.43844   0.00000  Uiso   1.00
H274   H     0.50302   0.52857   0.07513   0.00000  Uiso   1.00
H275   H     0.45094   0.58435   0.42030   0.00000  Uiso   1.00
H276   H     0.47104   0.56126   0.04422   0.00000  Uiso   1.00
H277   H     0.48413   0.44243   0.39985   0.00000  Uiso   1.00
H278   H     0.34884   0.52770   0.21049   0.00000  Uiso   1.00
O279   O     0.50000   0.50000   0.25000   0.00000  Uiso   1.00
O280   O     0.48784   0.45970   0.15458   0.00000  Uiso   1.00
O281   O     0.46274   0.53724   0.34968   0.00000  Uiso   1.00
O282   O     0.54157   0.51092   0.14606   0.00000  Uiso   1.00
O283   O     0.50785   0.49213   0.34968   0.00000  Uiso   1.00
O284   O     0.51264   0.41352   0.28214   0.00000  Uiso   1.00
O285   O     0.47965   0.59418   0.27013   0.00000  Uiso   1.00
O286   O     0.40745   0.46625   0.23413   0.00000  Uiso   1.00
O287   O     0.60026   0.52605   0.21360   0.00000  Uiso   1.00
O288   O     0.40405   0.52211   0.28213   0.00000  Uiso   1.00
O289   O     0.58824   0.48559   0.27014   0.00000  Uiso   1.00
O290   O     0.47093   0.40277   0.23413   0.00000  Uiso   1.00
O291   O     0.53678   0.58953   0.21360   0.00000  Uiso   1.00
Zn292  Zn    0.52672   0.47327   0.28734   0.00000  Uiso   1.00
Zn293  Zn    0.46713   0.45791   0.21876   0.00000  Uiso   1.00
Zn294  Zn    0.54389   0.53109   0.20657   0.00000  Uiso   1.00
Zn295  Zn    0.46226   0.53773   0.28733   0.00000  Uiso   1.00
C296   C     0.71939   0.49289   0.26001   0.00000  Uiso   1.00
C297   C     0.84404   0.49894   0.05794   0.00000  Uiso   1.00
C298   C     0.86933   0.43364   0.06208   0.00000  Uiso   1.00
C299   C     0.94739   0.50710   0.24006   0.00000  Uiso   1.00
C300   C     0.80756   0.52545   0.42011   0.00000  Uiso   1.00
C301   C     0.99322   0.50979   0.23610   0.00000  Uiso   1.00
C302   C     0.67412   0.49031   0.26384   0.00000  Uiso   1.00
C303   C     0.84704   0.65576   0.23663   0.00000  Uiso   1.00
C304   C     0.81843   0.34506   0.26377   0.00000  Uiso   1.00
C305   C     0.82276   0.38917   0.26017   0.00000  Uiso   1.00
C306   C     0.84320   0.61120   0.24021   0.00000  Uiso   1.00
C307   C     0.79152   0.57530   0.48495   0.00000  Uiso   1.00
C308   C     0.85176   0.48128   0.12947   0.00000  Uiso   1.00
C309   C     0.81452   0.51723   0.37110   0.00000  Uiso   1.00
C310   C     0.86604   0.42035   0.01863   0.00000  Uiso   1.00
C311   C     0.85792   0.47238   0.08161   0.00000  Uiso   1.00
C312   C     0.79336   0.56345   0.44001   0.00000  Uiso   1.00
C313   C     0.87975   0.37850   0.49858   0.00000  Uiso   1.00
C314   C     0.77481   0.61527   0.00665   0.00000  Uiso   1.00
C315   C     0.80613   0.55013   0.00987   0.00000  Uiso   1.00
C316   C     0.82111   0.51168   0.49097   0.00000  Uiso   1.00
C317   C     0.81830   0.49792   0.44664   0.00000  Uiso   1.00
C318   C     0.83805   0.48609   0.01489   0.00000  Uiso   1.00
C319   C     0.84905   0.44600   0.49527   0.00000  Uiso   1.00
C320   C     0.84129   0.43170   0.45355   0.00000  Uiso   1.00
C321   C     0.82533   0.45669   0.43031   0.00000  Uiso   1.00
H322   H     0.87966   0.41330   0.08146   0.00000  Uiso   1.00
H323   H     0.87345   0.33697   0.21167   0.00000  Uiso   1.00
H324   H     0.90524   0.38256   0.46725   0.00000  Uiso   1.00
H325   H     0.89274   0.36324   0.02154   0.00000  Uiso   1.00
H326   H     0.85196   0.35737   0.49117   0.00000  Uiso   1.00
H327   H     0.76645   0.63311   0.48237   0.00000  Uiso   1.00
H328   H     0.74562   0.60818   0.03379   0.00000  Uiso   1.00
H329   H     0.79944   0.63508   0.02127   0.00000  Uiso   1.00
H330   H     0.98588   0.47233   0.28977   0.00000  Uiso   1.00
H331   H     0.79164   0.66464   0.28881   0.00000  Uiso   1.00
H332   H     0.84696   0.40072   0.43844   0.00000  Uiso   1.00
H333   H     0.83635   0.52857   0.07513   0.00000  Uiso   1.00
H334   H     0.78427   0.58435   0.42030   0.00000  Uiso   1.00
H335   H     0.80438   0.56126   0.04422   0.00000  Uiso   1.00
H336   H     0.81746   0.44243   0.39985   0.00000  Uiso   1.00
H337   H     0.68217   0.52770   0.21049   0.00000  Uiso   1.00
O338   O     0.83333   0.50000   0.25000   0.00000  Uiso   1.00
O339   O     0.82118   0.45970   0.15458   0.00000  Uiso   1.00
O340   O     0.79607   0.53724   0.34968   0.00000  Uiso   1.00
O341   O     0.87491   0.51092   0.14606   0.00000  Uiso   1.00
O342   O     0.84118   0.49213   0.34968   0.00000  Uiso   1.00
O343   O     0.84597   0.41352   0.28214   0.00000  Uiso   1.00
O344   O     0.81298   0.59418   0.27013   0.00000  Uiso   1.00
O345   O     0.74078   0.46625   0.23413   0.00000  Uiso   1.00
O346   O     0.93360   0.52605   0.21360   0.00000  Uiso   1.00
O347   O     0.73738   0.52211   0.28213   0.00000  Uiso   1.00
O348   O     0.92158   0.48559   0.27014   0.00000  Uiso   1.00
O349   O     0.80426   0.40277   0.23413   0.00000  Uiso   1.00
O350   O     0.87012   0.58953   0.21360   0.00000  Uiso   1.00
Zn351  Zn    0.86005   0.47327   0.28734   0.00000  Uiso   1.00
Zn352  Zn    0.80046   0.45791   0.21876   0.00000  Uiso   1.00
Zn353  Zn    0.87723   0.53109   0.20657   0.00000  Uiso   1.00
Zn354  Zn    0.79560   0.53773   0.28733   0.00000  Uiso   1.00
C355   C     0.05272   0.82622   0.26001   0.00000  Uiso   1.00
C356   C     0.17738   0.83227   0.05794   0.00000  Uiso   1.00
C357   C     0.20267   0.76697   0.06208   0.00000  Uiso   1.00
C358   C     0.28073   0.84044   0.24006   0.00000  Uiso   1.00
C359   C     0.14089   0.85878   0.42011   0.00000  Uiso   1.00
C360   C     0.32656   0.84313   0.23610   0.00000  Uiso   1.00
C361   C     0.00746   0.82365   0.26384   0.00000  Uiso   1.00
C362   C     0.18038   0.98910   0.23663   0.00000  Uiso   1.00
C363   C     0.15177   0.67839   0.26377   0.00000  Uiso   1.00
C364   C     0.15609   0.72251   0.26017   0.00000  Uiso   1.00
C365   C     0.17654   0.94453   0.24021   0.00000  Uiso   1.00
C366   C     0.12486   0.90863   0.48495   0.00000  Uiso   1.00
C367   C     0.18509   0.81462   0.12947   0.00000  Uiso   1.00
C368   C     0.14785   0.85056   0.37110   0.00000  Uiso   1.00
C369   C     0.19937   0.75368   0.01863   0.00000  Uiso   1.00
C370   C     0.19125   0.80571   0.08161   0.00000  Uiso   1.00
C371   C     0.12669   0.89679   0.44001   0.00000  Uiso   1.00
C372   C     0.21308   0.71183   0.49858   0.00000  Uiso   1.00
C373   C     0.10814   0.94861   0.00665   0.00000  Uiso   1.00
C374   C     0.13946   0.88346   0.00987   0.00000  Uiso   1.00
C375   C     0.15444   0.84501   0.49097   0.00000  Uiso   1.00
C376   C     0.15163   0.83125   0.44664   0.00000  Uiso   1.00
C377   C     0.17138   0.81943   0.01489   0.00000  Uiso   1.00
C378   C     0.18238   0.77933   0.49527   0.00000  Uiso   1.00
C379   C     0.17463   0.76503   0.45355   0.00000  Uiso   1.00
C380   C     0.15867   0.79003   0.43031   0.00000  Uiso   1.00
H381   H     0.21299   0.74663   0.08146   0.00000  Uiso   1.00
H382   H     0.20678   0.67030   0.21167   0.00000  Uiso   1.00
H383   H     0.23858   0.71589   0.46725   0.00000  Uiso   1.00
H384   H     0.22607   0.69658   0.02154   0.00000  Uiso   1.00
H385   H     0.18529   0.69070   0.49117   0.00000  Uiso   1.00
H386   H     0.09979   0.96644   0.48237   0.00000  Uiso   1.00
H387   H     0.07895   0.94151   0.03379   0.00000  Uiso   1.00
H388   H     0.13278   0.96841   0.02127   0.00000  Uiso   1.00
H389   H     0.31921   0.80567   0.28977   0.00000  Uiso   1.00
H390   H     0.12497   0.99797   0.28881   0.00000  Uiso   1.00
H391   H     0.18029   0.73405   0.43844   0.00000  Uiso   1.00
H392   H     0.16968   0.86190   0.07513   0.00000  Uiso   1.00
H393   H     0.11761   0.91768   0.42030   0.00000  Uiso   1.00
H394   H     0.13771   0.89459   0.04422   0.00000  Uiso   1.00
H395   H     0.15079   0.77577   0.39985   0.00000  Uiso   1.00
H396   H     0.01551   0.86104   0.21049   0.00000  Uiso   1.00
O397   O     0.16667   0.83333   0.25000   0.00000  Uiso   1.00
O398   O     0.15451   0.79304   0.15458   0.00000  Uiso   1.00
O399   O     0.12940   0.87058   0.34968   0.00000  Uiso   1.00
O400   O     0.20824   0.84425   0.14606   0.00000  Uiso   1.00
O401   O     0.17451   0.82546   0.34968   0.00000  Uiso   1.00
O402   O     0.17930   0.74686   0.28214   0.00000  Uiso   1.00
O403   O     0.14632   0.92751   0.27013   0.00000  Uiso   1.00
O404   O     0.07412   0.79958   0.23413   0.00000  Uiso   1.00
O405   O     0.26693   0.85939   0.21360   0.00000  Uiso   1.00
O406   O     0.07071   0.85544   0.28213   0.00000  Uiso   1.00
O407   O     0.25491   0.81892   0.27014   0.00000  Uiso   1.00
O408   O     0.13760   0.73610   0.23413   0.00000  Uiso   1.00
O409   O     0.20345   0.92286   0.21360   0.00000  Uiso   1.00
Zn410  Zn    0.19338   0.80661   0.28734   0.00000  Uiso   1.00
Zn411  Zn    0.13379   0.79124   0.21876   0.00000  Uiso   1.00
Zn412  Zn    0.21056   0.86442   0.20657   0.00000  Uiso   1.00
Zn413  Zn    0.12893   0.87106   0.28733   0.00000  Uiso   1.00
C414   C     0.38605   0.82622   0.26001   0.00000  Uiso   1.00
C415   C     0.51071   0.83227   0.05794   0.00000  Uiso   1.00
C416   C     0.53600   0.76697   0.06208   0.00000  Uiso   1.00
C417   C     0.61406   0.84044   0.24006   0.00000  Uiso   1.00
C418   C     0.47423   0.85878   0.42011   0.00000  Uiso   1.00
C419   C     0.65989   0.84313   0.23610   0.00000  Uiso   1.00
C420   C     0.34079   0.82365   0.26384   0.00000  Uiso   1.00
C421   C     0.51371   0.98910   0.23663   0.00000  Uiso   1.00
C422   C     0.48510   0.67839   0.26377   0.00000  Uiso   1.00
C423   C     0.48943   0.72251   0.26017   0.00000  Uiso   1.00
C424   C     0.50987   0.94453   0.24021   0.00000  Uiso   1.00
C425   C     0.45819   0.90863   0.48495   0.00000  Uiso   1.00
C426   C     0.51843   0.81462   0.12947   0.00000  Uiso   1.00
C427   C     0.48118   0.85056   0.37110   0.00000  Uiso   1.00
C428   C     0.53270   0.75368   0.01863   0.00000  Uiso   1.00
C429   C     0.52458   0.80571   0.08161   0.00000  Uiso   1.00
C430   C     0.46002   0.89679   0.44001   0.00000  Uiso   1.00
C431   C     0.54642   0.71183   0.49858   0.00000  Uiso   1.00
C432   C     0.44148   0.94861   0.00665   0.00000  Uiso   1.00
C433   C     0.47280   0.88346   0.00987   0.00000  Uiso   1.00
C434   C     0.48777   0.84501   0.49097   0.00000  Uiso   1.00
C435   C     0.48496   0.83125   0.44664   0.00000  Uiso   1.00
C436   C     0.50472   0.81943   0.01489   0.00000  Uiso   1.00
C437   C     0.51572   0.77933   0.49527   0.00000  Uiso   1.00
C438   C     0.50796   0.76503   0.45355   0.00000  Uiso   1.00
C439   C     0.49200   0.79003   0.43031   0.00000  Uiso   1.00
H440   H     0.54633   0.74663   0.08146   0.00000  Uiso   1.00
H441   H     0.54011   0.67030   0.21167   0.00000  Uiso   1.00
H442   H     0.57191   0.71589   0.46725   0.00000  Uiso   1.00
H443   H     0.55941   0.69658   0.02154   0.00000  Uiso   1.00
H444   H     0.51862   0.69070   0.49117   0.00000  Uiso   1.00
H445   H     0.43312   0.96644   0.48237   0.00000  Uiso   1.00
H446   H     0.41229   0.94151   0.03379   0.00000  Uiso   1.00
H447   H     0.46611   0.96841   0.02127   0.00000  Uiso   1.00
H448   H     0.65254   0.80567   0.28977   0.00000  Uiso   1.00
H449   H     0.45830   0.99797   0.28881   0.00000  Uiso   1.00
H450   H     0.51362   0.73405   0.43844   0.00000  Uiso   1.00
H451   H     0.50302   0.86190   0.07513   0.00000  Uiso   1.00
H452   H     0.45094   0.91768   0.42030   0.00000  Uiso   1.00
H453   H     0.47104   0.89459   0.04422   0.00000  Uiso   1.00
H454   H     0.48413   0.77577   0.39985   0.00000  Uiso   1.00
H455   H     0.34884   0.86104   0.21049   0.00000  Uiso   1.00
O456   O     0.50000   0.83333   0.25000   0.00000  Uiso   1.00
O457   O     0.48784   0.79304   0.15458   0.00000  Uiso   1.00
O458   O     0.46274   0.87058   0.34968   0.00000  Uiso   1.00
O459   O     0.54157   0.84425   0.14606   0.00000  Uiso   1.00
O460   O     0.50785   0.82546   0.34968   0.00000  Uiso   1.00
O461   O     0.51264   0.74686   0.28214   0.00000  Uiso   1.00
O462   O     0.47965   0.92751   0.27013   0.00000  Uiso   1.00
O463   O     0.40745   0.79958   0.23413   0.00000  Uiso   1.00
O464   O     0.60026   0.85939   0.21360   0.00000  Uiso   1.00
O465   O     0.40405   0.85544   0.28213   0.00000  Uiso   1.00
O466   O     0.58824   0.81892   0.27014   0.00000  Uiso   1.00
O467   O     0.47093   0.73610   0.23413   0.00000  Uiso   1.00
O468   O     0.53678   0.92286   0.21360   0.00000  Uiso   1.00
Zn469  Zn    0.52672   0.80661   0.28734   0.00000  Uiso   1.00
Zn470  Zn    0.46713   0.79124   0.21876   0.00000  Uiso   1.00
Zn471  Zn    0.54389   0.86442   0.20657   0.00000  Uiso   1.00
Zn472  Zn    0.46226   0.87106   0.28733   0.00000  Uiso   1.00
C473   C     0.71939   0.82622   0.26001   0.00000  Uiso   1.00
C474   C     0.84404   0.83227   0.05794   0.00000  Uiso   1.00
C475   C     0.86933   0.76697   0.06208   0.00000  Uiso   1.00
C476   C     0.94739   0.84044   0.24006   0.00000  Uiso   1.00
C477   C     0.80756   0.85878   0.42011   0.00000  Uiso   1.00
C478   C     0.99322   0.84313   0.23610   0.00000  Uiso   1.00
C479   C     0.67412   0.82365   0.26384   0.00000  Uiso   1.00
C480   C     0.84704   0.98910   0.23663   0.00000  Uiso   1.00
C481   C     0.81843   0.67839   0.26377   0.00000  Uiso   1.00
C482   C     0.82276   0.72251   0.26017   0.00000  Uiso   1.00
C483   C     0.84320   0.94453   0.24021   0.00000  Uiso   1.00
C484   C     0.79152   0.90863   0.48495   0.00000  Uiso   1.00
C485   C     0.85176   0.81462   0.12947   0.00000  Uiso   1.00
C486   C     0.81452   0.85056   0.37110   0.00000  Uiso   1.00
C487   C     0.86604   0.75368   0.01863   0.00000  Uiso   1.00
C488   C     0.85792   0.80571   0.08161   0.00000  Uiso   1.00
C489   C     0.79336   0.89679   0.44001   0.00000  Uiso   1.00
C490   C     0.87975   0.71183   0.49858   0.00000  Uiso   1.00
C491   C     0.77481   0.94861   0.00665   0.00000  Uiso   1.00
C492   C     0.80613   0.88346   0.00987   0.00000  Uiso   1.00
C493   C     0.82111   0.84501   0.49097   0.00000  Uiso   1.00
C494   C     0.81830   0.83125   0.44664   0.00000  Uiso   1.00
C495   C     0.83805   0.81943   0.01489   0.00000  Uiso   1.00
C496   C     0.84905   0.77933   0.49527   0.00000  Uiso   1.00
C497   C     0.84129   0.76503   0.45355   0.00000  Uiso   1.00
C498   C     0.82533   0.79003   0.43031   0.00000  Uiso   1.00
H499   H     0.87966   0.74663   0.08146   0.00000  Uiso   1.00
H500   H     0.87345   0.67030   0.21167   0.00000  Uiso   1.00
H501   H     0.90524   0.71589   0.46725   0.00000  Uiso   1.00
H502   H     0.89274   0.69658   0.02154   0.00000  Uiso   1.00
H503   H     0.85196   0.69070   0.49117   0.00000  Uiso   1.00
H504   H     0.76645   0.96644   0.48237   0.00000  Uiso   1.00
H505   H     0.74562   0.94151   0.03379   0.00000  Uiso   1.00
H506   H     0.79944   0.96841   0.02127   0.00000  Uiso   1.00
H507   H     0.98588   0.80567   0.28977   0.00000  Uiso   1.00
H508   H     0.79164   0.99797   0.28881   0.00000  Uiso   1.00
H509   H     0.84696   0.73405   0.43844   0.00000  Uiso   1.00
H510   H     0.83635   0.86190   0.07513   0.00000  Uiso   1.00
H511   H     0.78427   0.91768   0.42030   0.00000  Uiso   1.00
H512   H     0.80438   0.89459   0.04422   0.00000  Uiso   1.00
H513   H     0.81746   0.77577   0.39985   0.00000  Uiso   1.00
H514   H     0.68217   0.86104   0.21049   0.00000  Uiso   1.00
O515   O     0.83333   0.83333   0.25000   0.00000  Uiso   1.00
O516   O     0.82118   0.79304   0.15458   0.00000  Uiso   1.00
O517   O     0.79607   0.87058   0.34968   0.00000  Uiso   1.00
O518   O     0.87491   0.84425   0.14606   0.00000  Uiso   1.00
O519   O     0.84118   0.82546   0.34968   0.00000  Uiso   1.00
O520   O     0.84597   0.74686   0.28214   0.00000  Uiso   1.00
O521   O     0.81298   0.92751   0.27013   0.00000  Uiso   1.00
O522   O     0.74078   0.79958   0.23413   0.00000  Uiso   1.00
O523   O     0.93360   0.85939   0.21360   0.00000  Uiso   1.00
O524   O     0.73738   0.85544   0.28213   0.00000  Uiso   1.00
O525   O     0.92158   0.81892   0.27014   0.00000  Uiso   1.00
O526   O     0.80426   0.73610   0.23413   0.00000  Uiso   1.00
O527   O     0.87012   0.92286   0.21360   0.00000  Uiso   1.00
Zn528  Zn    0.86005   0.80661   0.28734   0.00000  Uiso   1.00
Zn529  Zn    0.80046   0.79124   0.21876   0.00000  Uiso   1.00
Zn530  Zn    0.87723   0.86442   0.20657   0.00000  Uiso   1.00
Zn531  Zn    0.79560   0.87106   0.28733   0.00000  Uiso   1.00
C532   C     0.05272   0.15956   0.76001   0.00000  Uiso   1.00
C533   C     0.17738   0.16560   0.55794   0.00000  Uiso   1.00
C534   C     0.20267   0.10031   0.56208   0.00000  Uiso   1.00
C535   C     0.28073   0.17377   0.74006   0.00000  Uiso   1.00
C536   C     0.14089   0.19212   0.92011   0.00000  Uiso   1.00
C537   C     0.32656   0.17646   0.73610   0.00000  Uiso   1.00
C538   C     0.00746   0.15698   0.76384   0.00000  Uiso   1.00
C539   C     0.18038   0.32243   0.73663   0.00000  Uiso   1.00
C540   C     0.15177   0.01172   0.76377   0.00000  Uiso   1.00
C541   C     0.15609   0.05584   0.76017   0.00000  Uiso   1.00
C542   C     0.17654   0.27787   0.74021   0.00000  Uiso   1.00
C543   C     0.12486   0.24197   0.98495   0.00000  Uiso   1.00
C544   C     0.18509   0.14795   0.62947   0.00000  Uiso   1.00
C545   C     0.14785   0.18390   0.87110   0.00000  Uiso   1.00
C546   C     0.19937   0.08701   0.51863   0.00000  Uiso   1.00
C547   C     0.19125   0.13904   0.58161   0.00000  Uiso   1.00
C548   C     0.12669   0.23012   0.94001   0.00000  Uiso   1.00
C549   C     0.21308   0.04516   0.99858   0.00000  Uiso   1.00
C550   C     0.10814   0.28194   0.50665   0.00000  Uiso   1.00
C551   C     0.13946   0.21680   0.50987   0.00000  Uiso   1.00
C552   C     0.15444   0.17835   0.99097   0.00000  Uiso   1.00
C553   C     0.15163   0.16458   0.94664   0.00000  Uiso   1.00
C554   C     0.17138   0.15276   0.51489   0.00000  Uiso   1.00
C555   C     0.18238   0.11267   0.99527   0.00000  Uiso   1.00
C556   C     0.17463   0.09836   0.95355   0.00000  Uiso   1.00
C557   C     0.15867   0.12336   0.93031   0.00000  Uiso   1.00
H558   H     0.21299   0.07997   0.58146   0.00000  Uiso   1.00
H559   H     0.20678   0.00364   0.71167   0.00000  Uiso   1.00
H560   H     0.23858   0.04923   0.96725   0.00000  Uiso   1.00
H561   H     0.22607   0.02991   0.52154   0.00000  Uiso   1.00
H562   H     0.18529   0.02404   0.99117   0.00000  Uiso   1.00
H563   H     0.09979   0.29977   0.98237   0.00000  Uiso   1.00
H564   H     0.07895   0.27485   0.53379   0.00000  Uiso   1.00
H565   H     0.13278   0.30174   0.52127   0.00000  Uiso   1.00
H566   H     0.31921   0.13900   0.78977   0.00000  Uiso   1.00
H567   H     0.12497   0.33131   0.78881   0.00000  Uiso   1.00
H568   H     0.18029   0.06739   0.93844   0.00000  Uiso   1.00
H569   H     0.16968   0.19523   0.57513   0.00000  Uiso   1.00
H570   H     0.11761   0.25101   0.92030   0.00000  Uiso   1.00
H571   H     0.13771   0.22793   0.54422   0.00000  Uiso   1.00
H572   H     0.15079   0.10910   0.89985   0.00000  Uiso   1.00
H573   H     0.01551   0.19437   0.71049   0.00000  Uiso   1.00
O574   O     0.16667   0.16667   0.75000   0.00000  Uiso   1.00
O575   O     0.15451   0.12637   0.65458   0.00000  Uiso   1.00
O576   O     0.12940   0.20391   0.84968   0.00000  Uiso   1.00
O577   O     0.20824   0.17759   0.64606   0.00000  Uiso   1.00
O578   O     0.17451   0.15880   0.84968   0.00000  Uiso   1.00
O579   O     0.17930   0.08019   0.78214   0.00000  Uiso   1.00
O580   O     0.14632   0.26085   0.77013   0.00000  Uiso   1.00
O581   O     0.07412   0.13291   0.73413   0.00000  Uiso   1.00
O582   O     0.26693   0.19272   0.71360   0.00000  Uiso   1.00
O583   O     0.07071   0.18878   0.78213   0.00000  Uiso   1.00
O584   O     0.25491   0.15226   0.77014   0.00000  Uiso   1.00
O585   O     0.13760   0.06944   0.73413   0.00000  Uiso   1.00
O586   O     0.20345   0.25620   0.71360   0.00000  Uiso   1.00
Zn587  Zn    0.19338   0.13994   0.78734   0.00000  Uiso   1.00
Zn588  Zn    0.13379   0.12458   0.71876   0.00000  Uiso   1.00
Zn589  Zn    0.21056   0.19775   0.70657   0.00000  Uiso   1.00
Zn590  Zn    0.12893   0.20439   0.78733   0.00000  Uiso   1.00
C591   C     0.38605   0.15956   0.76001   0.00000  Uiso   1.00
C592   C     0.51071   0.16560   0.55794   0.00000  Uiso   1.00
C593   C     0.53600   0.10031   0.56208   0.00000  Uiso   1.00
C594   C     0.61406   0.17377   0.74006   0.00000  Uiso   1.00
C595   C     0.47423   0.19212   0.92011   0.00000  Uiso   1.00
C596   C     0.65989   0.17646   0.73610   0.00000  Uiso   1.00
C597   C     0.34079   0.15698   0.76384   0.00000  Uiso   1.00
C598   C     0.51371   0.32243   0.73663   0.00000  Uiso   1.00
C599   C     0.48510   0.01172   0.76377   0.00000  Uiso   1.00
C600   C     0.48943   0.05584   0.76017   0.00000  Uiso   1.00
C601   C     0.50987   0.27787   0.74021   0.00000  Uiso   1.00
C602   C     0.45819   0.24197   0.98495   0.00000  Uiso   1.00
C603   C     0.51843   0.14795   0.62947   0.00000  Uiso   1.00
C604   C     0.48118   0.18390   0.87110   0.00000  Uiso   1.00
C605   C     0.53270   0.08701   0.51863   0.00000  Uiso   1.00
C606   C     0.52458   0.13904   0.58161   0.00000  Uiso   1.00
C607   C     0.46002   0.23012   0.94001   0.00000  Uiso   1.00
C608   C     0.54642   0.04516   0.99858   0.00000  Uiso   1.00
C609   C     0.44148   0.28194   0.50665   0.00000  Uiso   1.00
C610   C     0.47280   0.21680   0.50987   0.00000  Uiso   1.00
C611   C     0.48777   0.17835   0.99097   0.00000  Uiso   1.00
C612   C     0.48496   0.16458   0.94664   0.00000  Uiso   1.00
C613   C     0.50472   0.15276   0.51489   0.00000  Uiso   1.00
C614   C     0.51572   0.11267   0.99527   0.00000  Uiso   1.00
C615   C     0.50796   0.09836   0.95355   0.00000  Uiso   1.00
C616   C     0.49200   0.12336   0.93031   0.00000  Uiso   1.00
H617   H     0.54633   0.07997   0.58146   0.00000  Uiso   1.00
H618   H     0.54011   0.00364   0.71167   0.00000  Uiso   1.00
H619   H     0.57191   0.04923   0.96725   0.00000  Uiso   1.00
H620   H     0.55941   0.02991   0.52154   0.00000  Uiso   1.00
H621   H     0.51862   0.02404   0.99117   0.00000  Uiso   1.00
H622   H     0.43312   0.29977   0.98237   0.00000  Uiso   1.00
H623   H     0.41229   0.27485   0.53379   0.00000  Uiso   1.00
H624   H     0.46611   0.30174   0.52127   0.00000  Uiso   1.00
H625   H     0.65254   0.13900   0.78977   0.00000  Uiso   1.00
H626   H     0.45830   0.33131   0.78881   0.00000  Uiso   1.00
H627   H     0.51362   0.06739   0.93844   0.00000  Uiso   1.00
H628   H     0.50302   0.19523   0.57513   0.00000  Uiso   1.00
H629   H     0.45094   0.25101   0.92030   0.00000  Uiso   1.00
H630   H     0.47104   0.22793   0.54422   0.00000  Uiso   1.00
H631   H     0.48413   0.10910   0.89985   0.00000  Uiso   1.00
H632   H     0.34884   0.19437   0.71049   0.00000  Uiso   1.00
O633   O     0.50000   0.16667   0.75000   0.00000  Uiso   1.00
O634   O     0.48784   0.12637   0.65458   0.00000  Uiso   1.00
O635   O     0.46274   0.20391   0.84968   0.00000  Uiso   1.00
O636   O     0.54157   0.17759   0.64606   0.00000  Uiso   1.00
O637   O     0.50785   0.15880   0.84968   0.00000  Uiso   1.00
O638   O     0.51264   0.08019   0.78214   0.00000  Uiso   1.00
O639   O     0.47965   0.26085   0.77013   0.00000  Uiso   1.00
O640   O     0.40745   0.13291   0.73413   0.00000  Uiso   1.00
O641   O     0.60026   0.19272   0.71360   0.00000  Uiso   1.00
O642   O     0.40405   0.18878   0.78213   0.00000  Uiso   1.00
O643   O     0.58824   0.15226   0.77014   0.00000  Uiso   1.00
O644   O     0.47093   0.06944   0.73413   0.00000  Uiso   1.00
O645   O     0.53678   0.25620   0.71360   0.00000  Uiso   1.00
Zn646  Zn    0.52672   0.13994   0.78734   0.00000  Uiso   1.00
Zn647  Zn    0.46713   0.12458   0.71876   0.00000  Uiso   1.00
Zn648  Zn    0.54389   0.19775   0.70657   0.00000  Uiso   1.00
Zn649  Zn    0.46226   0.20439   0.78733   0.00000  Uiso   1.00
C650   C     0.71939   0.15956   0.76001   0.00000  Uiso   1.00
C651   C     0.84404   0.16560   0.55794   0.00000  Uiso   1.00
C652   C     0.86933   0.10031   0.56208   0.00000  Uiso   1.00
C653   C     0.94739   0.17377   0.74006   0.00000  Uiso   1.00
C654   C     0.80756   0.19212   0.92011   0.00000  Uiso   1.00
C655   C     0.99322   0.17646   0.73610   0.00000  Uiso   1.00
C656   C     0.67412   0.15698   0.76384   0.00000  Uiso   1.00
C657   C     0.84704   0.32243   0.73663   0.00000  Uiso   1.00
C658   C     0.81843   0.01172   0.76377   0.00000  Uiso   1.00
C659   C     0.82276   0.05584   0.76017   0.00000  Uiso   1.00
C660   C     0.84320   0.27787   0.74021   0.00000  Uiso   1.00
C661   C     0.79152   0.24197   0.98495   0.00000  Uiso   1.00
C662   C     0.85176   0.14795   0.62947   0.00000  Uiso   1.00
C663   C     0.81452   0.18390   0.87110   0.00000  Uiso   1.00
C664   C     0.86604   0.08701   0.51863   0.00000  Uiso   1.00
C665   C     0.85792   0.13904   0.58161   0.00000  Uiso   1.00
C666   C     0.79336   0.23012   0.94001   0.00000  Uiso   1.00
C667   C     0.87975   0.04516   0.99858   0.00000  Uiso   1.00
C668   C     0.77481   0.28194   0.50665   0.00000  Uiso   1.00
C669   C     0.80613   0.21680   0.50987   0.00000  Uiso   1.00
C670   C     0.82111   0.17835   0.99097   0.00000  Uiso   1.00
C671   C     0.81830   0.16458   0.94664   0.00000  Uiso   1.00
C672   C     0.83805   0.15276   0.51489   0.00000  Uiso   1.00
C673   C     0.84905   0.11267   0.99527   0.00000  Uiso   1.00
C674   C     0.84129   0.09836   0.95355   0.00000  Uiso   1.00
C675   C     0.82533   0.12336   0.93031   0.00000  Uiso   1.00
H676   H     0.87966   0.07997   0.58146   0.00000  Uiso   1.00
H677   H     0.87345   0.00364   0.71167   0.00000  Uiso   1.00
H678   H     0.90524   0.04923   0.96725   0.00000  Uiso   1.00
H679   H     0.89274   0.02991   0.52154   0.00000  Uiso   1.00
H680   H     0.85196   0.02404   0.99117   0.00000  Uiso   1.00
H681   H     0.76645   0.29977   0.98237   0.00000  Uiso   1.00
H682   H     0.74562   0.27485   0.53379   0.00000  Uiso   1.00
H683   H     0.79944   0.30174   0.52127   0.00000  Uiso   1.00
H684   H     0.98588   0.13900   0.78977   0.00000  Uiso   1.00
H685   H     0.79164   0.33131   0.78881   0.00000  Uiso   1.00
H686   H     0.84696   0.06739   0.93844   0.00000  Uiso   1.00
H687   H     0.83635   0.19523   0.57513   0.00000  Uiso   1.00
H688   H     0.78427   0.25101   0.92030   0.00000  Uiso   1.00
H689   H     0.80438   0.22793   0.54422   0.00000  Uiso   1.00
H690   H     0.81746   0.10910   0.89985   0.00000  Uiso   1.00
H691   H     0.68217   0.19437   0.71049   0.00000  Uiso   1.00
O692   O     0.83333   0.16667   0.75000   0.00000  Uiso   1.00
O693   O     0.82118   0.12637   0.65458   0.00000  Uiso   1.00
O694   O     0.79607   0.20391   0.84968   0.00000  Uiso   1.00
O695   O     0.87491   0.17759   0.64606   0.00000  Uiso   1.00
O696   O     0.84118   0.15880   0.84968   0.00000  Uiso   1.00
O697   O     0.84597   0.08019   0.78214   0.00000  Uiso   1.00
O698   O     0.81298   0.26085   0.77013   0.00000  Uiso   1.00
O699   O     0.74078   0.13291   0.73413   0.00000  Uiso   1.00
O700   O     0.93360   0.19272   0.71360   0.00000  Uiso   1.00
O701   O     0.73738   0.18878   0.78213   0.00000  Uiso   1.00
O702   O     0.92158   0.15226   0.77014   0.00000  Uiso   1.00
O703   O     0.80426   0.06944   0.73413   0.00000  Uiso   1.00
O704   O     0.87012   0.25620   0.71360   0.00000  Uiso   1.00
Zn705  Zn    0.86005   0.13994   0.78734   0.00000  Uiso   1.00
Zn706  Zn    0.80046   0.12458   0.71876   0.00000  Uiso   1.00
Zn707  Zn    0.87723   0.19775   0.70657   0.00000  Uiso   1.00
Zn708  Zn    0.79560   0.20439   0.78733   0.00000  Uiso   1.00
C709   C     0.05272   0.49289   0.76001   0.00000  Uiso   1.00
C710   C     0.17738   0.49894   0.55794   0.00000  Uiso   1.00
C711   C     0.20267   0.43364   0.56208   0.00000  Uiso   1.00
C712   C     0.28073   0.50710   0.74006   0.00000  Uiso   1.00
C713   C     0.14089   0.52545   0.92011   0.00000  Uiso   1.00
C714   C     0.32656   0.50979   0.73610   0.00000  Uiso   1.00
C715   C     0.00746   0.49031   0.76384   0.00000  Uiso   1.00
C716   C     0.18038   0.65576   0.73663   0.00000  Uiso   1.00
C717   C     0.15177   0.34506   0.76377   0.00000  Uiso   1.00
C718   C     0.15609   0.38917   0.76017   0.00000  Uiso   1.00
C719   C     0.17654   0.61120   0.74021   0.00000  Uiso   1.00
C720   C     0.12486   0.57530   0.98495   0.00000  Uiso   1.00
C721   C     0.18509   0.48128   0.62947   0.00000  Uiso   1.00
C722   C     0.14785   0.51723   0.87110   0.00000  Uiso   1.00
C723   C     0.19937   0.42035   0.51863   0.00000  Uiso   1.00
C724   C     0.19125   0.47238   0.58161   0.00000  Uiso   1.00
C725   C     0.12669   0.56345   0.94001   0.00000  Uiso   1.00
C726   C     0.21308   0.37850   0.99858   0.00000  Uiso   1.00
C727   C     0.10814   0.61527   0.50665   0.00000  Uiso   1.00
C728   C     0.13946   0.55013   0.50987   0.00000  Uiso   1.00
C729   C     0.15444   0.51168   0.99097   0.00000  Uiso   1.00
C730   C     0.15163   0.49792   0.94664   0.00000  Uiso   1.00
C731   C     0.17138   0.48609   0.51489   0.00000  Uiso   1.00
C732   C     0.18238   0.44600   0.99527   0.00000  Uiso   1.00
C733   C     0.17463   0.43170   0.95355   0.00000  Uiso   1.00
C734   C     0.15867   0.45669   0.93031   0.00000  Uiso   1.00
H735   H     0.21299   0.41330   0.58146   0.00000  Uiso   1.00
H736   H     0.20678   0.33697   0.71167   0.00000  Uiso   1.00
H737   H     0.23858   0.38256   0.96725   0.00000  Uiso   1.00
H738   H     0.22607   0.36324   0.52154   0.00000  Uiso   1.00
H739   H     0.18529   0.35737   0.99117   0.00000  Uiso   1.00
H740   H     0.09979   0.63311   0.98237   0.00000  Uiso   1.00
H741   H     0.07895   0.60818   0.53379   0.00000  Uiso   1.00
H742   H     0.13278   0.63508   0.52127   0.00000  Uiso   1.00
H743   H     0.31921   0.47233   0.78977   0.00000  Uiso   1.00
H744   H     0.12497   0.66464   0.78881   0.00000  Uiso   1.00
H745   H     0.18029   0.40072   0.93844   0.00000  Uiso   1.00
H746   H     0.16968   0.52857   0.57513   0.00000  Uiso   1.00
H747   H     0.11761   0.58435   0.92030   0.00000  Uiso   1.00
H748   H     0.13771   0.56126   0.54422   0.00000  Uiso   1.00
H749   H     0.15079   0.44243   0.89985   0.00000  Uiso   1.00
H750   H     0.01551   0.52770   0.71049   0.00000  Uiso   1.00
O751   O     0.16667   0.50000   0.75000   0.00000  Uiso   1.00
O752   O     0.15451   0.45970   0.65458   0.00000  Uiso   1.00
O753   O     0.12940   0.53724   0.84968   0.00000  Uiso   1.00
O754   O     0.20824   0.51092   0.64606   0.00000  Uiso   1.00
O755   O     0.17451   0.49213   0.84968   0.00000  Uiso   1.00
O756   O     0.17930   0.41352   0.78214   0.00000  Uiso   1.00
O757   O     0.14632   0.59418   0.77013   0.00000  Uiso   1.00
O758   O     0.07412   0.46625   0.73413   0.00000  Uiso   1.00
O759   O     0.26693   0.52605   0.71360   0.00000  Uiso   1.00
O760   O     0.07071   0.52211   0.78213   0.00000  Uiso   1.00
O761   O     0.25491   0.48559   0.77014   0.00000  Uiso   1.00
O762   O     0.13760   0.40277   0.73413   0.00000  Uiso   1.00
O763   O     0.20345   0.58953   0.71360   0.00000  Uiso   1.00
Zn764  Zn    0.19338   0.47327   0.78734   0.00000  Uiso   1.00
Zn765  Zn    0.13379   0.45791   0.71876   0.00000  Uiso   1.00
Zn766  Zn    0.21056   0.53109   0.70657   0.00000  Uiso   1.00
Zn767  Zn    0.12893   0.53773   0.78733   0.00000  Uiso   1.00
C768   C     0.38605   0.49289   0.76001   0.00000  Uiso   1.00
C769   C     0.51071   0.49894   0.55794   0.00000  Uiso   1.00
C770   C     0.53600   0.43364   0.56208   0.00000  Uiso   1.00
C771   C     0.61406   0.50710   0.74006   0.00000  Uiso   1.00
C772   C     0.47423   0.52545   0.92011   0.00000  Uiso   1.00
C773   C     0.65989   0.50979   0.73610   0.00000  Uiso   1.00
C774   C     0.34079   0.49031   0.76384   0.00000  Uiso   1.00
C775   C     0.51371   0.65576   0.73663   0.00000  Uiso   1.00
C776   C     0.48510   0.34506   0.76377   0.00000  Uiso   1.00
C777   C     0.48943   0.38917   0.76017   0.00000  Uiso   1.00
C778   C     0.50987   0.61120   0.74021   0.00000  Uiso   1.00
C779   C     0.45819   0.57530   0.98495   0.00000  Uiso   1.00
C780   C     0.51843   0.48128   0.62947   0.00000  Uiso   1.00
C781   C     0.48118   0.51723   0.87110   0.00000  Uiso   1.00
C782   C     0.53270   0.42035   0.51863   0.00000  Uiso   1.00
C783   C     0.52458   0.47238   0.58161   0.00000  Uiso   1.00
C784   C     0.46002   0.56345   0.94001   0.00000  Uiso   1.00
C785   C     0.54642   0.37850   0.99858   0.00000  Uiso   1.00
C786   C     0.44148   0.61527   0.50665   0.00000  Uiso   1.00
C787   C     0.47280   0.55013   0.50987   0.00000  Uiso   1.00
C788   C     0.48777   0.51168   0.99097   0.00000  Uiso   1.00
C789   C     0.48496   0.49792   0.94664   0.00000  Uiso   1.00
C790   C     0.50472   0.48609   0.51489   0.00000  Uiso   1.00
C791   C     0.51572   0.44600   0.99527   0.00000  Uiso   1.00
C792   C     0.50796   0.43170   0.95355   0.00000  Uiso   1.00
C793   C     0.49200   0.45669   0.93031   0.00000  Uiso   1.00
H794   H     0.54633   0.41330   0.58146   0.00000  Uiso   1.00
H795   H     0.54011   0.33697   0.71167   0.00000  Uiso   1.00
H796   H     0.57191   0.38256   0.96725   0.00000  Uiso   1.00
H797   H     0.55941   0.36324   0.52154   0.00000  Uiso   1.00
H798   H     0.51862   0.35737   0.99117   0.00000  Uiso   1.00
H799   H     0.43312   0.63311   0.98237   0.00000  Uiso   1.00
H800   H     0.41229   0.60818   0.53379   0.00000  Uiso   1.00
H801   H     0.46611   0.63508   0.52127   0.00000  Uiso   1.00
H802   H     0.65254   0.47233   0.78977   0.00000  Uiso   1.00
H803   H     0.45830   0.66464   0.78881   0.00000  Uiso   1.00
H804   H     0.51362   0.40072   0.93844   0.00000  Uiso   1.00
H805   H     0.50302   0.52857   0.57513   0.00000  Uiso   1.00
H806   H     0.45094   0.58435   0.92030   0.00000  Uiso   1.00
H807   H     0.47104   0.56126   0.54422   0.00000  Uiso   1.00
H808   H     0.48413   0.44243   0.89985   0.00000  Uiso   1.00
H809   H     0.34884   0.52770   0.71049   0.00000  Uiso   1.00
O810   O     0.50000   0.50000   0.75000   0.00000  Uiso   1.00
O811   O     0.48784   0.45970   0.65458   0.00000  Uiso   1.00
O812   O     0.46274   0.53724   0.84968   0.00000  Uiso   1.00
O813   O     0.54157   0.51092   0.64606   0.00000  Uiso   1.00
O814   O     0.50785   0.49213   0.84968   0.00000  Uiso   1.00
O815   O     0.51264   0.41352   0.78214   0.00000  Uiso   1.00
O816   O     0.47965   0.59418   0.77013   0.00000  Uiso   1.00
O817   O     0.40745   0.46625   0.73413   0.00000  Uiso   1.00
O818   O     0.60026   0.52605   0.71360   0.00000  Uiso   1.00
O819   O     0.40405   0.52211   0.78213   0.00000  Uiso   1.00
O820   O     0.58824   0.48559   0.77014   0.00000  Uiso   1.00
O821   O     0.47093   0.40277   0.73413   0.00000  Uiso   1.00
O822   O     0.53678   0.58953   0.71360   0.00000  Uiso   1.00
Zn823  Zn    0.52672   0.47327   0.78734   0.00000  Uiso   1.00
Zn824  Zn    0.46713   0.45791   0.71876   0.00000  Uiso   1.00
Zn825  Zn    0.54389   0.53109   0.70657   0.00000  Uiso   1.00
Zn826  Zn    0.46226   0.53773   0.78733   0.00000  Uiso   1.00
C827   C     0.71939   0.49289   0.76001   0.00000  Uiso   1.00
C828   C     0.84404   0.49894   0.55794   0.00000  Uiso   1.00
C829   C     0.86933   0.43364   0.56208   0.00000  Uiso   1.00
C830   C     0.94739   0.50710   0.74006   0.00000  Uiso   1.00
C831   C     0.80756   0.52545   0.92011   0.00000  Uiso   1.00
C832   C     0.99322   0.50979   0.73610   0.00000  Uiso   1.00
C833   C     0.67412   0.49031   0.76384   0.00000  Uiso   1.00
C834   C     0.84704   0.65576   0.73663   0.00000  Uiso   1.00
C835   C     0.81843   0.34506   0.76377   0.00000  Uiso   1.00
C836   C     0.82276   0.38917   0.76017   0.00000  Uiso   1.00
C837   C     0.84320   0.61120   0.74021   0.00000  Uiso   1.00
C838   C     0.79152   0.57530   0.98495   0.00000  Uiso   1.00
C839   C     0.85176   0.48128   0.62947   0.00000  Uiso   1.00
C840   C     0.81452   0.51723   0.87110   0.00000  Uiso   1.00
C841   C     0.86604   0.42035   0.51863   0.00000  Uiso   1.00
C842   C     0.85792   0.47238   0.58161   0.00000  Uiso   1.00
C843   C     0.79336   0.56345   0.94001   0.00000  Uiso   1.00
C844   C     0.87975   0.37850   0.99858   0.00000  Uiso   1.00
C845   C     0.77481   0.61527   0.50665   0.00000  Uiso   1.00
C846   C     0.80613   0.55013   0.50987   0.00000  Uiso   1.00
C847   C     0.82111   0.51168   0.99097   0.00000  Uiso   1.00
C848   C     0.81830   0.49792   0.94664   0.00000  Uiso   1.00
C849   C     0.83805   0.48609   0.51489   0.00000  Uiso   1.00
C850   C     0.84905   0.44600   0.99527   0.00000  Uiso   1.00
C851   C     0.84129   0.43170   0.95355   0.00000  Uiso   1.00
C852   C     0.82533   0.45669   0.93031   0.00000  Uiso   1.00
H853   H     0.87966   0.41330   0.58146   0.00000  Uiso   1.00
H854   H     0.87345   0.33697   0.71167   0.00000  Uiso   1.00
H855   H     0.90524   0.38256   0.96725   0.00000  Uiso   1.00
H856   H     0.89274   0.36324   0.52154   0.00000  Uiso   1.00
H857   H     0.85196   0.35737   0.99117   0.00000  Uiso   1.00
H858   H     0.76645   0.63311   0.98237   0.00000  Uiso   1.00
H859   H     0.74562   0.60818   0.53379   0.00000  Uiso   1.00
H860   H     0.79944   0.63508   0.52127   0.00000  Uiso   1.00
H861   H     0.98588   0.47233   0.78977   0.00000  Uiso   1.00
H862   H     0.79164   0.66464   0.78881   0.00000  Uiso   1.00
H863   H     0.84696   0.40072   0.93844   0.00000  Uiso   1.00
H864   H     0.83635   0.52857   0.57513   0.00000  Uiso   1.00
H865   H     0.78427   0.58435   0.92030   0.00000  Uiso   1.00
H866   H     0.80438   0.56126   0.54422   0.00000  Uiso   1.00
H867   H     0.81746   0.44243   0.89985   0.00000  Uiso   1.00
H868   H     0.68217   0.52770   0.71049   0.00000  Uiso   1.00
O869   O     0.83333   0.50000   0.75000   0.00000  Uiso   1.00
O870   O     0.82118   0.45970   0.65458   0.00000  Uiso   1.00
O871   O     0.79607   0.53724   0.84968   0.00000  Uiso   1.00
O872   O     0.87491   0.51092   0.64606   0.00000  Uiso   1.00
O873   O     0.84118   0.49213   0.84968   0.00000  Uiso   1.00
O874   O     0.84597   0.41352   0.78214   0.00000  Uiso   1.00
O875   O     0.81298   0.59418   0.77013   0.00000  Uiso   1.00
O876   O     0.74078   0.46625   0.73413   0.00000  Uiso   1.00
O877   O     0.93360   0.52605   0.71360   0.00000  Uiso   1.00
O878   O     0.73738   0.52211   0.78213   0.00000  Uiso   1.00
O879   O     0.92158   0.48559   0.77014   0.00000  Uiso   1.00
O880   O     0.80426   0.40277   0.73413   0.00000  Uiso   1.00
O881   O     0.87012   0.58953   0.71360   0.00000  Uiso   1.00
Zn882  Zn    0.86005   0.47327   0.78734   0.00000  Uiso   1.00
Zn883  Zn    0.80046   0.45791   0.71876   0.00000  Uiso   1.00
Zn884  Zn    0.87723   0.53109   0.70657   0.00000  Uiso   1.00
Zn885  Zn    0.79560   0.53773   0.78733   0.00000  Uiso   1.00
C886   C     0.05272   0.82622   0.76001   0.00000  Uiso   1.00
C887   C     0.17738   0.83227   0.55794   0.00000  Uiso   1.00
C888   C     0.20267   0.76697   0.56208   0.00000  Uiso   1.00
C889   C     0.28073   0.84044   0.74006   0.00000  Uiso   1.00
C890   C     0.14089   0.85878   0.92011   0.00000  Uiso   1.00
C891   C     0.32656   0.84313   0.73610   0.00000  Uiso   1.00
C892   C     0.00746   0.82365   0.76384   0.00000  Uiso   1.00
C893   C     0.18038   0.98910   0.73663   0.00000  Uiso   1.00
C894   C     0.15177   0.67839   0.76377   0.00000  Uiso   1.00
C895   C     0.15609   0.72251   0.76017   0.00000  Uiso   1.00
C896   C     0.17654   0.94453   0.74021   0.00000  Uiso   1.00
C897   C     0.12486   0.90863   0.98495   0.00000  Uiso   1.00
C898   C     0.18509   0.81462   0.62947   0.00000  Uiso   1.00
C899   C     0.14785   0.85056   0.87110   0.00000  Uiso   1.00
C900   C     0.19937   0.75368   0.51863   0.00000  Uiso   1.00
C901   C     0.19125   0.80571   0.58161   0.00000  Uiso   1.00
C902   C     0.12669   0.89679   0.94001   0.00000  Uiso   1.00
C903   C     0.21308   0.71183   0.99858   0.00000  Uiso   1.00
C904   C     0.10814   0.94861   0.50665   0.00000  Uiso   1.00
C905   C     0.13946   0.88346   0.50987   0.00000  Uiso   1.00
C906   C     0.15444   0.84501   0.99097   0.00000  Uiso   1.00
C907   C     0.15163   0.83125   0.94664   0.00000  Uiso   1.00
C908   C     0.17138   0.81943   0.51489   0.00000  Uiso   1.00
C909   C     0.18238   0.77933   0.99527   0.00000  Uiso   1.00
C910   C     0.17463   0.76503   0.95355   0.00000  Uiso   1.00
C911   C     0.15867   0.79003   0.93031   0.00000  Uiso   1.00
H912   H     0.21299   0.74663   0.58146   0.00000  Uiso   1.00
H913   H     0.20678   0.67030   0.71167   0.00000  Uiso   1.00
H914   H     0.23858   0.71589   0.96725   0.00000  Uiso   1.00
H915   H     0.22607   0.69658   0.52154   0.00000  Uiso   1.00
H916   H     0.18529   0.69070   0.99117   0.00000  Uiso   1.00
H917   H     0.09979   0.96644   0.98237   0.00000  Uiso   1.00
H918   H     0.07895   0.94151   0.53379   0.00000  Uiso   1.00
H919   H     0.13278   0.96841   0.52127   0.00000  Uiso   1.00
H920   H     0.31921   0.80567   0.78977   0.00000  Uiso   1.00
H921   H     0.12497   0.99797   0.78881   0.00000  Uiso   1.00
H922   H     0.18029   0.73405   0.93844   0.00000  Uiso   1.00
H923   H     0.16968   0.86190   0.57513   0.00000  Uiso   1.00
H924   H     0.11761   0.91768   0.92030   0.00000  Uiso   1.00
H925   H     0.13771   0.89459   0.54422   0.00000  Uiso   1.00
H926   H     0.15079   0.77577   0.89985   0.00000  Uiso   1.00
H927   H     0.01551   0.86104   0.71049   0.00000  Uiso   1.00
O928   O     0.16667   0.83333   0.75000   0.00000  Uiso   1.00
O929   O     0.15451   0.79304   0.65458   0.00000  Uiso   1.00
O930   O     0.12940   0.87058   0.84968   0.00000  Uiso   1.00
O931   O     0.20824   0.84425   0.64606   0.00000  Uiso   1.00
O932   O     0.17451   0.82546   0.84968   0.00000  Uiso   1.00
O933   O     0.17930   0.74686   0.78214   0.00000  Uiso   1.00
O934   O     0.14632   0.92751   0.77013   0.00000  Uiso   1.00
O935   O     0.07412   0.79958   0.73413   0.00000  Uiso   1.00
O936   O     0.26693   0.85939   0.71360   0.00000  Uiso   1.00
O937   O     0.07071   0.85544   0.78213   0.00000  Uiso   1.00
O938   O     0.25491   0.81892   0.77014   0.00000  Uiso   1.00
O939   O     0.13760   0.73610   0.73413   0.00000  Uiso   1.00
O940   O     0.20345   0.92286   0.71360   0.00000  Uiso   1.00
Zn941  Zn    0.19338   0.80661   0.78734   0.00000  Uiso   1.00
Zn942  Zn    0.13379   0.79124   0.71876   0.00000  Uiso   1.00
Zn943  Zn    0.21056   0.86442   0.70657   0.00000  Uiso   1.00
Zn944  Zn    0.12893   0.87106   0.78733   0.00000  Uiso   1.00
C945   C     0.38605   0.82622   0.76001   0.00000  Uiso   1.00
C946   C     0.51071   0.83227   0.55794   0.00000  Uiso   1.00
C947   C     0.53600   0.76697   0.56208   0.00000  Uiso   1.00
C948   C     0.61406   0.84044   0.74006   0.00000  Uiso   1.00
C949   C     0.47423   0.85878   0.92011   0.00000  Uiso   1.00
C950   C     0.65989   0.84313   0.73610   0.00000  Uiso   1.00
C951   C     0.34079   0.82365   0.76384   0.00000  Uiso   1.00
C952   C     0.51371   0.98910   0.73663   0.00000  Uiso   1.00
C953   C     0.48510   0.67839   0.76377   0.00000  Uiso   1.00
C954   C     0.48943   0.72251   0.76017   0.00000  Uiso   1.00
C955   C     0.50987   0.94453   0.74021   0.00000  Uiso   1.00
C956   C     0.45819   0.90863   0.98495   0.00000  Uiso   1.00
C957   C     0.51843   0.81462   0.62947   0.00000  Uiso   1.00
C958   C     0.48118   0.85056   0.87110   0.00000  Uiso   1.00
C959   C     0.53270   0.75368   0.51863   0.00000  Uiso   1.00
C960   C     0.52458   0.80571   0.58161   0.00000  Uiso   1.00
C961   C     0.46002   0.89679   0.94001   0.00000  Uiso   1.00
C962   C     0.54642   0.71183   0.99858   0.00000  Uiso   1.00
C963   C     0.44148   0.94861   0.50665   0.00000  Uiso   1.00
C964   C     0.47280   0.88346   0.50987   0.00000  Uiso   1.00
C965   C     0.48777   0.84501   0.99097   0.00000  Uiso   1.00
C966   C     0.48496   0.83125   0.94664   0.00000  Uiso   1.00
C967   C     0.50472   0.81943   0.51489   0.00000  Uiso   1.00
C968   C     0.51572   0.77933   0.99527   0.00000  Uiso   1.00
C969   C     0.50796   0.76503   0.95355   0.00000  Uiso   1.00
C970   C     0.49200   0.79003   0.93031   0.00000  Uiso   1.00
H971   H     0.54633   0.74663   0.58146   0.00000  Uiso   1.00
H972   H     0.54011   0.67030   0.71167   0.00000  Uiso   1.00
H973   H     0.57191   0.71589   0.96725   0.00000  Uiso   1.00
H974   H     0.55941   0.69658   0.52154   0.00000  Uiso   1.00
H975   H     0.51862   0.69070   0.99117   0.00000  Uiso   1.00
H976   H     0.43312   0.96644   0.98237   0.00000  Uiso   1.00
H977   H     0.41229   0.94151   0.53379   0.00000  Uiso   1.00
H978   H     0.46611   0.96841   0.52127   0.00000  Uiso   1.00
H979   H     0.65254   0.80567   0.78977   0.00000  Uiso   1.00
H980   H     0.45830   0.99797   0.78881   0.00000  Uiso   1.00
H981   H     0.51362   0.73405   0.93844   0.00000  Uiso   1.00
H982   H     0.50302   0.86190   0.57513   0.00000  Uiso   1.00
H983   H     0.45094   0.91768   0.92030   0.00000  Uiso   1.00
H984   H     0.47104   0.89459   0.54422   0.00000  Uiso   1.00
H985   H     0.48413   0.77577   0.89985   0.00000  Uiso   1.00
H986   H     0.34884   0.86104   0.71049   0.00000  Uiso   1.00
O987   O     0.50000   0.83333   0.75000   0.00000  Uiso   1.00
O988   O     0.48784   0.79304   0.65458   0.00000  Uiso   1.00
O989   O     0.46274   0.87058   0.84968   0.00000  Uiso   1.00
O990   O     0.54157   0.84425   0.64606   0.00000  Uiso   1.00
O991   O     0.50785   0.82546   0.84968   0.00000  Uiso   1.00
O992   O     0.51264   0.74686   0.78214   0.00000  Uiso   1.00
O993   O     0.47965   0.92751   0.77013   0.00000  Uiso   1.00
O994   O     0.40745   0.79958   0.73413   0.00000  Uiso   1.00
O995   O     0.60026   0.85939   0.71360   0.00000  Uiso   1.00
O996   O     0.40405   0.85544   0.78213   0.00000  Uiso   1.00
O997   O     0.58824   0.81892   0.77014   0.00000  Uiso   1.00
O998   O     0.47093   0.73610   0.73413   0.00000  Uiso   1.00
O999   O     0.53678   0.92286   0.71360   0.00000  Uiso   1.00
Zn1000 Zn    0.52672   0.80661   0.78734   0.00000  Uiso   1.00
Zn1001 Zn    0.46713   0.79124   0.71876   0.00000  Uiso   1.00
Zn1002 Zn    0.54389   0.86442   0.70657   0.00000  Uiso   1.00
Zn1003 Zn    0.46226   0.87106   0.78733   0.00000  Uiso   1.00
C1004  C     0.71939   0.82622   0.76001   0.00000  Uiso   1.00
C1005  C     0.84404   0.83227   0.55794   0.00000  Uiso   1.00
C1006  C     0.86933   0.76697   0.56208   0.00000  Uiso   1.00
C1007  C     0.94739   0.84044   0.74006   0.00000  Uiso   1.00
C1008  C     0.80756   0.85878   0.92011   0.00000  Uiso   1.00
C1009  C     0.99322   0.84313   0.73610   0.00000  Uiso   1.00
C1010  C     0.67412   0.82365   0.76384   0.00000  Uiso   1.00
C1011  C     0.84704   0.98910   0.73663   0.00000  Uiso   1.00
C1012  C     0.81843   0.67839   0.76377   0.00000  Uiso   1.00
C1013  C     0.82276   0.72251   0.76017   0.00000  Uiso   1.00
C1014  C     0.84320   0.94453   0.74021   0.00000  Uiso   1.00
C1015  C     0.79152   0.90863   0.98495   0.00000  Uiso   1.00
C1016  C     0.85176   0.81462   0.62947   0.00000  Uiso   1.00
C1017  C     0.81452   0.85056   0.87110   0.00000  Uiso   1.00
C1018  C     0.86604   0.75368   0.51863   0.00000  Uiso   1.00
C1019  C     0.85792   0.80571   0.58161   0.00000  Uiso   1.00
C1020  C     0.79336   0.89679   0.94001   0.00000  Uiso   1.00
C1021  C     0.87975   0.71183   0.99858   0.00000  Uiso   1.00
C1022  C     0.77481   0.94861   0.50665   0.00000  Uiso   1.00
C1023  C     0.80613   0.88346   0.50987   0.00000  Uiso   1.00
C1024  C     0.82111   0.84501   0.99097   0.00000  Uiso   1.00
C1025  C     0.81830   0.83125   0.94664   0.00000  Uiso   1.00
C1026  C     0.83805   0.81943   0.51489   0.00000  Uiso   1.00
C1027  C     0.84905   0.77933   0.99527   0.00000  Uiso   1.00
C1028  C     0.84129   0.76503   0.95355   0.00000  Uiso   1.00
C1029  C     0.82533   0.79003   0.93031   0.00000  Uiso   1.00
H1030  H     0.87966   0.74663   0.58146   0.00000  Uiso   1.00
H1031  H     0.87345   0.67030   0.71167   0.00000  Uiso   1.00
H1032  H     0.90524   0.71589   0.96725   0.00000  Uiso   1.00
H1033  H     0.89274   0.69658   0.52154   0.00000  Uiso   1.00
H1034  H     0.85196   0.69070   0.99117   0.00000  Uiso   1.00
H1035  H     0.76645   0.96644   0.98237   0.00000  Uiso   1.00
H1036  H     0.74562   0.94151   0.53379   0.00000  Uiso   1.00
H1037  H     0.79944   0.96841   0.52127   0.00000  Uiso   1.00
H1038  H     0.98588   0.80567   0.78977   0.00000  Uiso   1.00
H1039  H     0.79164   0.99797   0.78881   0.00000  Uiso   1.00
H1040  H     0.84696   0.73405   0.93844   0.00000  Uiso   1.00
H1041  H     0.83635   0.86190   0.57513   0.00000  Uiso   1.00
H1042  H     0.78427   0.91768   0.92030   0.00000  Uiso   1.00
H1043  H     0.80438   0.89459   0.54422   0.00000  Uiso   1.00
H1044  H     0.81746   0.77577   0.89985   0.00000  Uiso   1.00
H1045  H     0.68217   0.86104   0.71049   0.00000  Uiso   1.00
O1046  O     0.83333   0.83333   0.75000   0.00000  Uiso   1.00
O1047  O     0.82118   0.79304   0.65458   0.00000  Uiso   1.00
O1048  O     0.79607   0.87058   0.84968   0.00000  Uiso   1.00
O1049  O     0.87491   0.84425   0.64606   0.00000  Uiso   1.00
O1050  O     0.84118   0.82546   0.84968   0.00000  Uiso   1.00
O1051  O     0.84597   0.74686   0.78214   0.00000  Uiso   1.00
O1052  O     0.81298   0.92751   0.77013   0.00000  Uiso   1.00
O1053  O     0.74078   0.79958   0.73413   0.00000  Uiso   1.00
O1054  O     0.93360   0.85939   0.71360   0.00000  Uiso   1.00
O1055  O     0.73738   0.85544   0.78213   0.00000  Uiso   1.00
O1056  O     0.92158   0.81892   0.77014   0.00000  Uiso   1.00
O1057  O     0.80426   0.73610   0.73413   0.00000  Uiso   1.00
O1058  O     0.87012   0.92286   0.71360   0.00000  Uiso   1.00
Zn1059 Zn    0.86005   0.80661   0.78734   0.00000  Uiso   1.00
Zn1060 Zn    0.80046   0.79124   0.71876   0.00000  Uiso   1.00
Zn1061 Zn    0.87723   0.86442   0.70657   0.00000  Uiso   1.00
Zn1062 Zn    0.79560   0.87106   0.78733   0.00000  Uiso   1.00
loop_
_geom_bond_atom_site_label_1
_geom_bond_atom_site_label_2
_geom_bond_distance
_geom_bond_site_symmetry_2
_ccdc_geom_bond_type
C1     O50     1.269   .     A
C1     O52     1.269   .     A
C1     C7      1.437   .     S
C2     C16     1.388   .     A
C2     H38     1.077   .     S
C2     C23     1.408   .     A
C3     H27     1.084   .     S
C3     C15     1.395   .     A
C3     C16     1.392   .     A
C4     O53     1.281   .     A
C4     O51     1.284   .     A
C4     C6      1.454   .     S
C5     C14     1.479   .     S
C5     C17     1.403   .     A
C5     C22     1.420   .     A
C6     C66     1.334   .     S
C6     H101    1.088   .     S
C7     C124    1.334   1_455 S
C7     H153    1.086   1_455 S
C8     C11     1.451   .     S
C8     C186    1.331   .     S
C8     H205    1.088   .     S
C9     C10     1.436   .     S
C9     C362    1.331   1_545 S
C9     H390    1.086   1_545 S
C10    O48     1.275   .     A
C10    O54     1.275   .     A
C11    O55     1.273   .     A
C11    O49     1.274   .     A
C12    C17     1.394   .     A
C12    C550    1.502   .     S
C12    C551    1.396   .     S
C13    C16     1.449   .     S
C13    O46     1.277   .     A
C13    O44     1.269   .     A
C14    O47     1.283   .     A
C14    O45     1.284   .     A
C15    C549    1.510   1_554 S
C15    C555    1.419   1_554 S
C17    H39     1.084   .     S
C18    H29     1.111   .     S
C18    H31     1.109   .     S
C18    C546    1.510   .     S
C18    H561    1.111   .     S
C19    H33     1.110   .     S
C19    H34     1.109   .     S
C19    C543    1.502   1_554 S
C19    H563    1.111   1_554 S
C20    H40     1.076   .     S
C20    C543    1.396   1_554 S
C20    C552    1.417   1_554 S
C21    C22     1.420   .     A
C21    C551    1.417   .     S
C21    C554    1.428   .     S
C22    C26     1.407   .     A
C23    C552    1.428   1_554 S
C23    C555    1.429   1_554 S
C24    C25     1.398   .     A
C24    C554    1.429   .     S
C24    C546    1.419   .     S
C25    C26     1.381   .     A
C25    H37     1.082   .     S
C26    H41     1.079   .     S
H28    C362    1.088   1_545 S
H30    C549    1.111   1_554 S
H32    C550    1.111   .     S
H35    C66     1.086   .     S
H36    C186    1.086   .     S
H42    C124    1.088   1_455 S
O43    Zn59    1.934   .     S
O43    Zn57    1.937   .     S
O43    Zn56    1.959   .     S
O43    Zn58    1.943   .     S
O44    Zn57    1.938   .     S
O45    Zn59    1.944   .     S
O46    Zn58    1.935   .     S
O47    Zn56    1.931   .     S
O48    Zn56    1.927   .     S
O49    Zn59    1.934   .     S
O50    Zn57    1.928   .     S
O51    Zn58    1.934   .     S
O52    Zn59    1.930   .     S
O53    Zn56    1.926   .     S
O54    Zn57    1.938   .     S
O55    Zn58    1.929   .     S
C60    O109    1.269   .     A
C60    O111    1.269   .     A
C60    C66     1.437   .     S
C61    C75     1.388   .     A
C61    H97     1.077   .     S
C61    C82     1.408   .     A
C62    H86     1.084   .     S
C62    C74     1.395   .     A
C62    C75     1.392   .     A
C63    O112    1.281   .     A
C63    O110    1.284   .     A
C63    C65     1.454   .     S
C64    C73     1.479   .     S
C64    C76     1.403   .     A
C64    C81     1.420   .     A
C65    C125    1.334   .     S
C65    H160    1.088   .     S
C67    C70     1.451   .     S
C67    C245    1.331   .     S
C67    H264    1.088   .     S
C68    C69     1.436   .     S
C68    C421    1.331   1_545 S
C68    H449    1.086   1_545 S
C69    O107    1.275   .     A
C69    O113    1.275   .     A
C70    O114    1.273   .     A
C70    O108    1.274   .     A
C71    C76     1.394   .     A
C71    C609    1.502   .     S
C71    C610    1.396   .     S
C72    C75     1.449   .     S
C72    O105    1.277   .     A
C72    O103    1.269   .     A
C73    O106    1.283   .     A
C73    O104    1.284   .     A
C74    C608    1.510   1_554 S
C74    C614    1.419   1_554 S
C76    H98     1.084   .     S
C77    H88     1.111   .     S
C77    H90     1.109   .     S
C77    C605    1.510   .     S
C77    H620    1.111   .     S
C78    H92     1.110   .     S
C78    H93     1.109   .     S
C78    C602    1.502   1_554 S
C78    H622    1.111   1_554 S
C79    H99     1.076   .     S
C79    C602    1.396   1_554 S
C79    C611    1.417   1_554 S
C80    C81     1.420   .     A
C80    C610    1.417   .     S
C80    C613    1.428   .     S
C81    C85     1.407   .     A
C82    C611    1.428   1_554 S
C82    C614    1.429   1_554 S
C83    C84     1.398   .     A
C83    C613    1.429   .     S
C83    C605    1.419   .     S
C84    C85     1.381   .     A
C84    H96     1.082   .     S
C85    H100    1.079   .     S
H87    C421    1.088   1_545 S
H89    C608    1.111   1_554 S
H91    C609    1.111   .     S
H94    C125    1.086   .     S
H95    C245    1.086   .     S
O102   Zn118   1.934   .     S
O102   Zn116   1.937   .     S
O102   Zn115   1.959   .     S
O102   Zn117   1.943   .     S
O103   Zn116   1.938   .     S
O104   Zn118   1.944   .     S
O105   Zn117   1.935   .     S
O106   Zn115   1.931   .     S
O107   Zn115   1.927   .     S
O108   Zn118   1.934   .     S
O109   Zn116   1.928   .     S
O110   Zn117   1.934   .     S
O111   Zn118   1.930   .     S
O112   Zn115   1.926   .     S
O113   Zn116   1.938   .     S
O114   Zn117   1.929   .     S
C119   O168    1.269   .     A
C119   O170    1.269   .     A
C119   C125    1.437   .     S
C120   C134    1.388   .     A
C120   H156    1.077   .     S
C120   C141    1.408   .     A
C121   H145    1.084   .     S
C121   C133    1.395   .     A
C121   C134    1.392   .     A
C122   O171    1.281   .     A
C122   O169    1.284   .     A
C122   C124    1.454   .     S
C123   C132    1.479   .     S
C123   C135    1.403   .     A
C123   C140    1.420   .     A
C124   C7      1.334   1_655 S
C124   H42     1.088   1_655 S
C126   C129    1.451   .     S
C126   C304    1.331   .     S
C126   H323    1.088   .     S
C127   C128    1.436   .     S
C127   C480    1.331   1_545 S
C127   H508    1.086   1_545 S
C128   O166    1.275   .     A
C128   O172    1.275   .     A
C129   O173    1.273   .     A
C129   O167    1.274   .     A
C130   C135    1.394   .     A
C130   C668    1.502   .     S
C130   C669    1.396   .     S
C131   C134    1.449   .     S
C131   O164    1.277   .     A
C131   O162    1.269   .     A
C132   O165    1.283   .     A
C132   O163    1.284   .     A
C133   C667    1.510   1_554 S
C133   C673    1.419   1_554 S
C135   H157    1.084   .     S
C136   H147    1.111   .     S
C136   H149    1.109   .     S
C136   C664    1.510   .     S
C136   H679    1.111   .     S
C137   H151    1.110   .     S
C137   H152    1.109   .     S
C137   C661    1.502   1_554 S
C137   H681    1.111   1_554 S
C138   H158    1.076   .     S
C138   C661    1.396   1_554 S
C138   C670    1.417   1_554 S
C139   C140    1.420   .     A
C139   C669    1.417   .     S
C139   C672    1.428   .     S
C140   C144    1.407   .     A
C141   C670    1.428   1_554 S
C141   C673    1.429   1_554 S
C142   C143    1.398   .     A
C142   C672    1.429   .     S
C142   C664    1.419   .     S
C143   C144    1.381   .     A
C143   H155    1.082   .     S
C144   H159    1.079   .     S
H146   C480    1.088   1_545 S
H148   C667    1.111   1_554 S
H150   C668    1.111   .     S
H153   C7      1.086   1_655 S
H154   C304    1.086   .     S
O161   Zn177   1.934   .     S
O161   Zn175   1.937   .     S
O161   Zn174   1.959   .     S
O161   Zn176   1.943   .     S
O162   Zn175   1.938   .     S
O163   Zn177   1.944   .     S
O164   Zn176   1.935   .     S
O165   Zn174   1.931   .     S
O166   Zn174   1.927   .     S
O167   Zn177   1.934   .     S
O168   Zn175   1.928   .     S
O169   Zn176   1.934   .     S
O170   Zn177   1.930   .     S
O171   Zn174   1.926   .     S
O172   Zn175   1.938   .     S
O173   Zn176   1.929   .     S
C178   O227    1.269   .     A
C178   O229    1.269   .     A
C178   C184    1.437   .     S
C179   C193    1.388   .     A
C179   H215    1.077   .     S
C179   C200    1.408   .     A
C180   H204    1.084   .     S
C180   C192    1.395   .     A
C180   C193    1.392   .     A
C181   O230    1.281   .     A
C181   O228    1.284   .     A
C181   C183    1.454   .     S
C182   C191    1.479   .     S
C182   C194    1.403   .     A
C182   C199    1.420   .     A
C183   C243    1.334   .     S
C183   H278    1.088   .     S
C184   C301    1.334   1_455 S
C184   H330    1.086   1_455 S
C185   C188    1.451   .     S
C185   C363    1.331   .     S
C185   H382    1.088   .     S
C186   C187    1.436   .     S
C187   O225    1.275   .     A
C187   O231    1.275   .     A
C188   O232    1.273   .     A
C188   O226    1.274   .     A
C189   C194    1.394   .     A
C189   C727    1.502   .     S
C189   C728    1.396   .     S
C190   C193    1.449   .     S
C190   O223    1.277   .     A
C190   O221    1.269   .     A
C191   O224    1.283   .     A
C191   O222    1.284   .     A
C192   C726    1.510   1_554 S
C192   C732    1.419   1_554 S
C194   H216    1.084   .     S
C195   H206    1.111   .     S
C195   H208    1.109   .     S
C195   C723    1.510   .     S
C195   H738    1.111   .     S
C196   H210    1.110   .     S
C196   H211    1.109   .     S
C196   C720    1.502   1_554 S
C196   H740    1.111   1_554 S
C197   H217    1.076   .     S
C197   C720    1.396   1_554 S
C197   C729    1.417   1_554 S
C198   C199    1.420   .     A
C198   C728    1.417   .     S
C198   C731    1.428   .     S
C199   C203    1.407   .     A
C200   C729    1.428   1_554 S
C200   C732    1.429   1_554 S
C201   C202    1.398   .     A
C201   C731    1.429   .     S
C201   C723    1.419   .     S
C202   C203    1.381   .     A
C202   H214    1.082   .     S
C203   H218    1.079   .     S
H207   C726    1.111   1_554 S
H209   C727    1.111   .     S
H212   C243    1.086   .     S
H213   C363    1.086   .     S
H219   C301    1.088   1_455 S
O220   Zn236   1.934   .     S
O220   Zn234   1.937   .     S
O220   Zn233   1.959   .     S
O220   Zn235   1.943   .     S
O221   Zn234   1.938   .     S
O222   Zn236   1.944   .     S
O223   Zn235   1.935   .     S
O224   Zn233   1.931   .     S
O225   Zn233   1.927   .     S
O226   Zn236   1.934   .     S
O227   Zn234   1.928   .     S
O228   Zn235   1.934   .     S
O229   Zn236   1.930   .     S
O230   Zn233   1.926   .     S
O231   Zn234   1.938   .     S
O232   Zn235   1.929   .     S
C237   O286    1.269   .     A
C237   O288    1.269   .     A
C237   C243    1.437   .     S
C238   C252    1.388   .     A
C238   H274    1.077   .     S
C238   C259    1.408   .     A
C239   H263    1.084   .     S
C239   C251    1.395   .     A
C239   C252    1.392   .     A
C240   O289    1.281   .     A
C240   O287    1.284   .     A
C240   C242    1.454   .     S
C241   C250    1.479   .     S
C241   C253    1.403   .     A
C241   C258    1.420   .     A
C242   C302    1.334   .     S
C242   H337    1.088   .     S
C244   C247    1.451   .     S
C244   C422    1.331   .     S
C244   H441    1.088   .     S
C245   C246    1.436   .     S
C246   O284    1.275   .     A
C246   O290    1.275   .     A
C247   O291    1.273   .     A
C247   O285    1.274   .     A
C248   C253    1.394   .     A
C248   C786    1.502   .     S
C248   C787    1.396   .     S
C249   C252    1.449   .     S
C249   O282    1.277   .     A
C249   O280    1.269   .     A
C250   O283    1.283   .     A
C250   O281    1.284   .     A
C251   C785    1.510   1_554 S
C251   C791    1.419   1_554 S
C253   H275    1.084   .     S
C254   H265    1.111   .     S
C254   H267    1.109   .     S
C254   C782    1.510   .     S
C254   H797    1.111   .     S
C255   H269    1.110   .     S
C255   H270    1.109   .     S
C255   C779    1.502   1_554 S
C255   H799    1.111   1_554 S
C256   H276    1.076   .     S
C256   C779    1.396   1_554 S
C256   C788    1.417   1_554 S
C257   C258    1.420   .     A
C257   C787    1.417   .     S
C257   C790    1.428   .     S
C258   C262    1.407   .     A
C259   C788    1.428   1_554 S
C259   C791    1.429   1_554 S
C260   C261    1.398   .     A
C260   C790    1.429   .     S
C260   C782    1.419   .     S
C261   C262    1.381   .     A
C261   H273    1.082   .     S
C262   H277    1.079   .     S
H266   C785    1.111   1_554 S
H268   C786    1.111   .     S
H271   C302    1.086   .     S
H272   C422    1.086   .     S
O279   Zn295   1.934   .     S
O279   Zn293   1.937   .     S
O279   Zn292   1.959   .     S
O279   Zn294   1.943   .     S
O280   Zn293   1.938   .     S
O281   Zn295   1.944   .     S
O282   Zn294   1.935   .     S
O283   Zn292   1.931   .     S
O284   Zn292   1.927   .     S
O285   Zn295   1.934   .     S
O286   Zn293   1.928   .     S
O287   Zn294   1.934   .     S
O288   Zn295   1.930   .     S
O289   Zn292   1.926   .     S
O290   Zn293   1.938   .     S
O291   Zn294   1.929   .     S
C296   O345    1.269   .     A
C296   O347    1.269   .     A
C296   C302    1.437   .     S
C297   C311    1.388   .     A
C297   H333    1.077   .     S
C297   C318    1.408   .     A
C298   H322    1.084   .     S
C298   C310    1.395   .     A
C298   C311    1.392   .     A
C299   O348    1.281   .     A
C299   O346    1.284   .     A
C299   C301    1.454   .     S
C300   C309    1.479   .     S
C300   C312    1.403   .     A
C300   C317    1.420   .     A
C301   C184    1.334   1_655 S
C301   H219    1.088   1_655 S
C303   C306    1.451   .     S
C303   C481    1.331   .     S
C303   H500    1.088   .     S
C304   C305    1.436   .     S
C305   O343    1.275   .     A
C305   O349    1.275   .     A
C306   O350    1.273   .     A
C306   O344    1.274   .     A
C307   C312    1.394   .     A
C307   C845    1.502   .     S
C307   C846    1.396   .     S
C308   C311    1.449   .     S
C308   O341    1.277   .     A
C308   O339    1.269   .     A
C309   O342    1.283   .     A
C309   O340    1.284   .     A
C310   C844    1.510   1_554 S
C310   C850    1.419   1_554 S
C312   H334    1.084   .     S
C313   H324    1.111   .     S
C313   H326    1.109   .     S
C313   C841    1.510   .     S
C313   H856    1.111   .     S
C314   H328    1.110   .     S
C314   H329    1.109   .     S
C314   C838    1.502   1_554 S
C314   H858    1.111   1_554 S
C315   H335    1.076   .     S
C315   C838    1.396   1_554 S
C315   C847    1.417   1_554 S
C316   C317    1.420   .     A
C316   C846    1.417   .     S
C316   C849    1.428   .     S
C317   C321    1.407   .     A
C318   C847    1.428   1_554 S
C318   C850    1.429   1_554 S
C319   C320    1.398   .     A
C319   C849    1.429   .     S
C319   C841    1.419   .     S
C320   C321    1.381   .     A
C320   H332    1.082   .     S
C321   H336    1.079   .     S
H325   C844    1.111   1_554 S
H327   C845    1.111   .     S
H330   C184    1.086   1_655 S
H331   C481    1.086   .     S
O338   Zn354   1.934   .     S
O338   Zn352   1.937   .     S
O338   Zn351   1.959   .     S
O338   Zn353   1.943   .     S
O339   Zn352   1.938   .     S
O340   Zn354   1.944   .     S
O341   Zn353   1.935   .     S
O342   Zn351   1.931   .     S
O343   Zn351   1.927   .     S
O344   Zn354   1.934   .     S
O345   Zn352   1.928   .     S
O346   Zn353   1.934   .     S
O347   Zn354   1.930   .     S
O348   Zn351   1.926   .     S
O349   Zn352   1.938   .     S
O350   Zn353   1.929   .     S
C355   O404    1.269   .     A
C355   O406    1.269   .     A
C355   C361    1.437   .     S
C356   C370    1.388   .     A
C356   H392    1.077   .     S
C356   C377    1.408   .     A
C357   H381    1.084   .     S
C357   C369    1.395   .     A
C357   C370    1.392   .     A
C358   O407    1.281   .     A
C358   O405    1.284   .     A
C358   C360    1.454   .     S
C359   C368    1.479   .     S
C359   C371    1.403   .     A
C359   C376    1.420   .     A
C360   C420    1.334   .     S
C360   H455    1.088   .     S
C361   C478    1.334   1_455 S
C361   H507    1.086   1_455 S
C362   C365    1.451   .     S
C362   C9      1.331   1_565 S
C362   H28     1.088   1_565 S
C363   C364    1.436   .     S
C364   O402    1.275   .     A
C364   O408    1.275   .     A
C365   O409    1.273   .     A
C365   O403    1.274   .     A
C366   C371    1.394   .     A
C366   C904    1.502   .     S
C366   C905    1.396   .     S
C367   C370    1.449   .     S
C367   O400    1.277   .     A
C367   O398    1.269   .     A
C368   O401    1.283   .     A
C368   O399    1.284   .     A
C369   C903    1.510   1_554 S
C369   C909    1.419   1_554 S
C371   H393    1.084   .     S
C372   H383    1.111   .     S
C372   H385    1.109   .     S
C372   C900    1.510   .     S
C372   H915    1.111   .     S
C373   H387    1.110   .     S
C373   H388    1.109   .     S
C373   C897    1.502   1_554 S
C373   H917    1.111   1_554 S
C374   H394    1.076   .     S
C374   C897    1.396   1_554 S
C374   C906    1.417   1_554 S
C375   C376    1.420   .     A
C375   C905    1.417   .     S
C375   C908    1.428   .     S
C376   C380    1.407   .     A
C377   C906    1.428   1_554 S
C377   C909    1.429   1_554 S
C378   C379    1.398   .     A
C378   C908    1.429   .     S
C378   C900    1.419   .     S
C379   C380    1.381   .     A
C379   H391    1.082   .     S
C380   H395    1.079   .     S
H384   C903    1.111   1_554 S
H386   C904    1.111   .     S
H389   C420    1.086   .     S
H390   C9      1.086   1_565 S
H396   C478    1.088   1_455 S
O397   Zn413   1.934   .     S
O397   Zn411   1.937   .     S
O397   Zn410   1.959   .     S
O397   Zn412   1.943   .     S
O398   Zn411   1.938   .     S
O399   Zn413   1.944   .     S
O400   Zn412   1.935   .     S
O401   Zn410   1.931   .     S
O402   Zn410   1.927   .     S
O403   Zn413   1.934   .     S
O404   Zn411   1.928   .     S
O405   Zn412   1.934   .     S
O406   Zn413   1.930   .     S
O407   Zn410   1.926   .     S
O408   Zn411   1.938   .     S
O409   Zn412   1.929   .     S
C414   O463    1.269   .     A
C414   O465    1.269   .     A
C414   C420    1.437   .     S
C415   C429    1.388   .     A
C415   H451    1.077   .     S
C415   C436    1.408   .     A
C416   H440    1.084   .     S
C416   C428    1.395   .     A
C416   C429    1.392   .     A
C417   O466    1.281   .     A
C417   O464    1.284   .     A
C417   C419    1.454   .     S
C418   C427    1.479   .     S
C418   C430    1.403   .     A
C418   C435    1.420   .     A
C419   C479    1.334   .     S
C419   H514    1.088   .     S
C421   C424    1.451   .     S
C421   C68     1.331   1_565 S
C421   H87     1.088   1_565 S
C422   C423    1.436   .     S
C423   O461    1.275   .     A
C423   O467    1.275   .     A
C424   O468    1.273   .     A
C424   O462    1.274   .     A
C425   C430    1.394   .     A
C425   C963    1.502   .     S
C425   C964    1.396   .     S
C426   C429    1.449   .     S
C426   O459    1.277   .     A
C426   O457    1.269   .     A
C427   O460    1.283   .     A
C427   O458    1.284   .     A
C428   C962    1.510   1_554 S
C428   C968    1.419   1_554 S
C430   H452    1.084   .     S
C431   H442    1.111   .     S
C431   H444    1.109   .     S
C431   C959    1.510   .     S
C431   H974    1.111   .     S
C432   H446    1.110   .     S
C432   H447    1.109   .     S
C432   C956    1.502   1_554 S
C432   H976    1.111   1_554 S
C433   H453    1.076   .     S
C433   C956    1.396   1_554 S
C433   C965    1.417   1_554 S
C434   C435    1.420   .     A
C434   C964    1.417   .     S
C434   C967    1.428   .     S
C435   C439    1.407   .     A
C436   C965    1.428   1_554 S
C436   C968    1.429   1_554 S
C437   C438    1.398   .     A
C437   C967    1.429   .     S
C437   C959    1.419   .     S
C438   C439    1.381   .     A
C438   H450    1.082   .     S
C439   H454    1.079   .     S
H443   C962    1.111   1_554 S
H445   C963    1.111   .     S
H448   C479    1.086   .     S
H449   C68     1.086   1_565 S
O456   Zn472   1.934   .     S
O456   Zn470   1.937   .     S
O456   Zn469   1.959   .     S
O456   Zn471   1.943   .     S
O457   Zn470   1.938   .     S
O458   Zn472   1.944   .     S
O459   Zn471   1.935   .     S
O460   Zn469   1.931   .     S
O461   Zn469   1.927   .     S
O462   Zn472   1.934   .     S
O463   Zn470   1.928   .     S
O464   Zn471   1.934   .     S
O465   Zn472   1.930   .     S
O466   Zn469   1.926   .     S
O467   Zn470   1.938   .     S
O468   Zn471   1.929   .     S
C473   O522    1.269   .     A
C473   O524    1.269   .     A
C473   C479    1.437   .     S
C474   C488    1.388   .     A
C474   H510    1.077   .     S
C474   C495    1.408   .     A
C475   H499    1.084   .     S
C475   C487    1.395   .     A
C475   C488    1.392   .     A
C476   O525    1.281   .     A
C476   O523    1.284   .     A
C476   C478    1.454   .     S
C477   C486    1.479   .     S
C477   C489    1.403   .     A
C477   C494    1.420   .     A
C478   C361    1.334   1_655 S
C478   H396    1.088   1_655 S
C480   C483    1.451   .     S
C480   C127    1.331   1_565 S
C480   H146    1.088   1_565 S
C481   C482    1.436   .     S
C482   O520    1.275   .     A
C482   O526    1.275   .     A
C483   O527    1.273   .     A
C483   O521    1.274   .     A
C484   C489    1.394   .     A
C484   C1022   1.502   .     S
C484   C1023   1.396   .     S
C485   C488    1.449   .     S
C485   O518    1.277   .     A
C485   O516    1.269   .     A
C486   O519    1.283   .     A
C486   O517    1.284   .     A
C487   C1021   1.510   1_554 S
C487   C1027   1.419   1_554 S
C489   H511    1.084   .     S
C490   H501    1.111   .     S
C490   H503    1.109   .     S
C490   C1018   1.510   .     S
C490   H1033   1.111   .     S
C491   H505    1.110   .     S
C491   H506    1.109   .     S
C491   C1015   1.502   1_554 S
C491   H1035   1.111   1_554 S
C492   H512    1.076   .     S
C492   C1015   1.396   1_554 S
C492   C1024   1.417   1_554 S
C493   C494    1.420   .     A
C493   C1023   1.417   .     S
C493   C1026   1.428   .     S
C494   C498    1.407   .     A
C495   C1024   1.428   1_554 S
C495   C1027   1.429   1_554 S
C496   C497    1.398   .     A
C496   C1026   1.429   .     S
C496   C1018   1.419   .     S
C497   C498    1.381   .     A
C497   H509    1.082   .     S
C498   H513    1.079   .     S
H502   C1021   1.111   1_554 S
H504   C1022   1.111   .     S
H507   C361    1.086   1_655 S
H508   C127    1.086   1_565 S
O515   Zn531   1.934   .     S
O515   Zn529   1.937   .     S
O515   Zn528   1.959   .     S
O515   Zn530   1.943   .     S
O516   Zn529   1.938   .     S
O517   Zn531   1.944   .     S
O518   Zn530   1.935   .     S
O519   Zn528   1.931   .     S
O520   Zn528   1.927   .     S
O521   Zn531   1.934   .     S
O522   Zn529   1.928   .     S
O523   Zn530   1.934   .     S
O524   Zn531   1.930   .     S
O525   Zn528   1.926   .     S
O526   Zn529   1.938   .     S
O527   Zn530   1.929   .     S
C532   O581    1.269   .     A
C532   O583    1.269   .     A
C532   C538    1.437   .     S
C533   C547    1.388   .     A
C533   H569    1.077   .     S
C533   C554    1.408   .     A
C534   H558    1.084   .     S
C534   C546    1.395   .     A
C534   C547    1.392   .     A
C535   O584    1.281   .     A
C535   O582    1.284   .     A
C535   C537    1.454   .     S
C536   C545    1.479   .     S
C536   C548    1.403   .     A
C536   C553    1.420   .     A
C537   C597    1.334   .     S
C537   H632    1.088   .     S
C538   C655    1.334   1_455 S
C538   H684    1.086   1_455 S
C539   C542    1.451   .     S
C539   C717    1.331   .     S
C539   H736    1.088   .     S
C540   C541    1.436   .     S
C540   C893    1.331   1_545 S
C540   H921    1.086   1_545 S
C541   O579    1.275   .     A
C541   O585    1.275   .     A
C542   O586    1.273   .     A
C542   O580    1.274   .     A
C543   C548    1.394   .     A
C543   C19     1.502   1_556 S
C543   C20     1.396   1_556 S
C544   C547    1.449   .     S
C544   O577    1.277   .     A
C544   O575    1.269   .     A
C545   O578    1.283   .     A
C545   O576    1.284   .     A
C548   H570    1.084   .     S
C549   H560    1.111   .     S
C549   H562    1.109   .     S
C549   C15     1.510   1_556 S
C549   H30     1.111   1_556 S
C550   H564    1.110   .     S
C550   H565    1.109   .     S
C551   H571    1.076   .     S
C552   C553    1.420   .     A
C552   C20     1.417   1_556 S
C552   C23     1.428   1_556 S
C553   C557    1.407   .     A
C555   C556    1.398   .     A
C555   C23     1.429   1_556 S
C555   C15     1.419   1_556 S
C556   C557    1.381   .     A
C556   H568    1.082   .     S
C557   H572    1.079   .     S
H559   C893    1.088   1_545 S
H563   C19     1.111   1_556 S
H566   C597    1.086   .     S
H567   C717    1.086   .     S
H573   C655    1.088   1_455 S
O574   Zn590   1.934   .     S
O574   Zn588   1.937   .     S
O574   Zn587   1.959   .     S
O574   Zn589   1.943   .     S
O575   Zn588   1.938   .     S
O576   Zn590   1.944   .     S
O577   Zn589   1.935   .     S
O578   Zn587   1.931   .     S
O579   Zn587   1.927   .     S
O580   Zn590   1.934   .     S
O581   Zn588   1.928   .     S
O582   Zn589   1.934   .     S
O583   Zn590   1.930   .     S
O584   Zn587   1.926   .     S
O585   Zn588   1.938   .     S
O586   Zn589   1.929   .     S
C591   O640    1.269   .     A
C591   O642    1.269   .     A
C591   C597    1.437   .     S
C592   C606    1.388   .     A
C592   H628    1.077   .     S
C592   C613    1.408   .     A
C593   H617    1.084   .     S
C593   C605    1.395   .     A
C593   C606    1.392   .     A
C594   O643    1.281   .     A
C594   O641    1.284   .     A
C594   C596    1.454   .     S
C595   C604    1.479   .     S
C595   C607    1.403   .     A
C595   C612    1.420   .     A
C596   C656    1.334   .     S
C596   H691    1.088   .     S
C598   C601    1.451   .     S
C598   C776    1.331   .     S
C598   H795    1.088   .     S
C599   C600    1.436   .     S
C599   C952    1.331   1_545 S
C599   H980    1.086   1_545 S
C600   O638    1.275   .     A
C600   O644    1.275   .     A
C601   O645    1.273   .     A
C601   O639    1.274   .     A
C602   C607    1.394   .     A
C602   C78     1.502   1_556 S
C602   C79     1.396   1_556 S
C603   C606    1.449   .     S
C603   O636    1.277   .     A
C603   O634    1.269   .     A
C604   O637    1.283   .     A
C604   O635    1.284   .     A
C607   H629    1.084   .     S
C608   H619    1.111   .     S
C608   H621    1.109   .     S
C608   C74     1.510   1_556 S
C608   H89     1.111   1_556 S
C609   H623    1.110   .     S
C609   H624    1.109   .     S
C610   H630    1.076   .     S
C611   C612    1.420   .     A
C611   C79     1.417   1_556 S
C611   C82     1.428   1_556 S
C612   C616    1.407   .     A
C614   C615    1.398   .     A
C614   C82     1.429   1_556 S
C614   C74     1.419   1_556 S
C615   C616    1.381   .     A
C615   H627    1.082   .     S
C616   H631    1.079   .     S
H618   C952    1.088   1_545 S
H622   C78     1.111   1_556 S
H625   C656    1.086   .     S
H626   C776    1.086   .     S
O633   Zn649   1.934   .     S
O633   Zn647   1.937   .     S
O633   Zn646   1.959   .     S
O633   Zn648   1.943   .     S
O634   Zn647   1.938   .     S
O635   Zn649   1.944   .     S
O636   Zn648   1.935   .     S
O637   Zn646   1.931   .     S
O638   Zn646   1.927   .     S
O639   Zn649   1.934   .     S
O640   Zn647   1.928   .     S
O641   Zn648   1.934   .     S
O642   Zn649   1.930   .     S
O643   Zn646   1.926   .     S
O644   Zn647   1.938   .     S
O645   Zn648   1.929   .     S
C650   O699    1.269   .     A
C650   O701    1.269   .     A
C650   C656    1.437   .     S
C651   C665    1.388   .     A
C651   H687    1.077   .     S
C651   C672    1.408   .     A
C652   H676    1.084   .     S
C652   C664    1.395   .     A
C652   C665    1.392   .     A
C653   O702    1.281   .     A
C653   O700    1.284   .     A
C653   C655    1.454   .     S
C654   C663    1.479   .     S
C654   C666    1.403   .     A
C654   C671    1.420   .     A
C655   C538    1.334   1_655 S
C655   H573    1.088   1_655 S
C657   C660    1.451   .     S
C657   C835    1.331   .     S
C657   H854    1.088   .     S
C658   C659    1.436   .     S
C658   C1011   1.331   1_545 S
C658   H1039   1.086   1_545 S
C659   O697    1.275   .     A
C659   O703    1.275   .     A
C660   O704    1.273   .     A
C660   O698    1.274   .     A
C661   C666    1.394   .     A
C661   C137    1.502   1_556 S
C661   C138    1.396   1_556 S
C662   C665    1.449   .     S
C662   O695    1.277   .     A
C662   O693    1.269   .     A
C663   O696    1.283   .     A
C663   O694    1.284   .     A
C666   H688    1.084   .     S
C667   H678    1.111   .     S
C667   H680    1.109   .     S
C667   C133    1.510   1_556 S
C667   H148    1.111   1_556 S
C668   H682    1.110   .     S
C668   H683    1.109   .     S
C669   H689    1.076   .     S
C670   C671    1.420   .     A
C670   C138    1.417   1_556 S
C670   C141    1.428   1_556 S
C671   C675    1.407   .     A
C673   C674    1.398   .     A
C673   C141    1.429   1_556 S
C673   C133    1.419   1_556 S
C674   C675    1.381   .     A
C674   H686    1.082   .     S
C675   H690    1.079   .     S
H677   C1011   1.088   1_545 S
H681   C137    1.111   1_556 S
H684   C538    1.086   1_655 S
H685   C835    1.086   .     S
O692   Zn708   1.934   .     S
O692   Zn706   1.937   .     S
O692   Zn705   1.959   .     S
O692   Zn707   1.943   .     S
O693   Zn706   1.938   .     S
O694   Zn708   1.944   .     S
O695   Zn707   1.935   .     S
O696   Zn705   1.931   .     S
O697   Zn705   1.927   .     S
O698   Zn708   1.934   .     S
O699   Zn706   1.928   .     S
O700   Zn707   1.934   .     S
O701   Zn708   1.930   .     S
O702   Zn705   1.926   .     S
O703   Zn706   1.938   .     S
O704   Zn707   1.929   .     S
C709   O758    1.269   .     A
C709   O760    1.269   .     A
C709   C715    1.437   .     S
C710   C724    1.388   .     A
C710   H746    1.077   .     S
C710   C731    1.408   .     A
C711   H735    1.084   .     S
C711   C723    1.395   .     A
C711   C724    1.392   .     A
C712   O761    1.281   .     A
C712   O759    1.284   .     A
C712   C714    1.454   .     S
C713   C722    1.479   .     S
C713   C725    1.403   .     A
C713   C730    1.420   .     A
C714   C774    1.334   .     S
C714   H809    1.088   .     S
C715   C832    1.334   1_455 S
C715   H861    1.086   1_455 S
C716   C719    1.451   .     S
C716   C894    1.331   .     S
C716   H913    1.088   .     S
C717   C718    1.436   .     S
C718   O756    1.275   .     A
C718   O762    1.275   .     A
C719   O763    1.273   .     A
C719   O757    1.274   .     A
C720   C725    1.394   .     A
C720   C196    1.502   1_556 S
C720   C197    1.396   1_556 S
C721   C724    1.449   .     S
C721   O754    1.277   .     A
C721   O752    1.269   .     A
C722   O755    1.283   .     A
C722   O753    1.284   .     A
C725   H747    1.084   .     S
C726   H737    1.111   .     S
C726   H739    1.109   .     S
C726   C192    1.510   1_556 S
C726   H207    1.111   1_556 S
C727   H741    1.110   .     S
C727   H742    1.109   .     S
C728   H748    1.076   .     S
C729   C730    1.420   .     A
C729   C197    1.417   1_556 S
C729   C200    1.428   1_556 S
C730   C734    1.407   .     A
C732   C733    1.398   .     A
C732   C200    1.429   1_556 S
C732   C192    1.419   1_556 S
C733   C734    1.381   .     A
C733   H745    1.082   .     S
C734   H749    1.079   .     S
H740   C196    1.111   1_556 S
H743   C774    1.086   .     S
H744   C894    1.086   .     S
H750   C832    1.088   1_455 S
O751   Zn767   1.934   .     S
O751   Zn765   1.937   .     S
O751   Zn764   1.959   .     S
O751   Zn766   1.943   .     S
O752   Zn765   1.938   .     S
O753   Zn767   1.944   .     S
O754   Zn766   1.935   .     S
O755   Zn764   1.931   .     S
O756   Zn764   1.927   .     S
O757   Zn767   1.934   .     S
O758   Zn765   1.928   .     S
O759   Zn766   1.934   .     S
O760   Zn767   1.930   .     S
O761   Zn764   1.926   .     S
O762   Zn765   1.938   .     S
O763   Zn766   1.929   .     S
C768   O817    1.269   .     A
C768   O819    1.269   .     A
C768   C774    1.437   .     S
C769   C783    1.388   .     A
C769   H805    1.077   .     S
C769   C790    1.408   .     A
C770   H794    1.084   .     S
C770   C782    1.395   .     A
C770   C783    1.392   .     A
C771   O820    1.281   .     A
C771   O818    1.284   .     A
C771   C773    1.454   .     S
C772   C781    1.479   .     S
C772   C784    1.403   .     A
C772   C789    1.420   .     A
C773   C833    1.334   .     S
C773   H868    1.088   .     S
C775   C778    1.451   .     S
C775   C953    1.331   .     S
C775   H972    1.088   .     S
C776   C777    1.436   .     S
C777   O815    1.275   .     A
C777   O821    1.275   .     A
C778   O822    1.273   .     A
C778   O816    1.274   .     A
C779   C784    1.394   .     A
C779   C255    1.502   1_556 S
C779   C256    1.396   1_556 S
C780   C783    1.449   .     S
C780   O813    1.277   .     A
C780   O811    1.269   .     A
C781   O814    1.283   .     A
C781   O812    1.284   .     A
C784   H806    1.084   .     S
C785   H796    1.111   .     S
C785   H798    1.109   .     S
C785   C251    1.510   1_556 S
C785   H266    1.111   1_556 S
C786   H800    1.110   .     S
C786   H801    1.109   .     S
C787   H807    1.076   .     S
C788   C789    1.420   .     A
C788   C256    1.417   1_556 S
C788   C259    1.428   1_556 S
C789   C793    1.407   .     A
C791   C792    1.398   .     A
C791   C259    1.429   1_556 S
C791   C251    1.419   1_556 S
C792   C793    1.381   .     A
C792   H804    1.082   .     S
C793   H808    1.079   .     S
H799   C255    1.111   1_556 S
H802   C833    1.086   .     S
H803   C953    1.086   .     S
O810   Zn826   1.934   .     S
O810   Zn824   1.937   .     S
O810   Zn823   1.959   .     S
O810   Zn825   1.943   .     S
O811   Zn824   1.938   .     S
O812   Zn826   1.944   .     S
O813   Zn825   1.935   .     S
O814   Zn823   1.931   .     S
O815   Zn823   1.927   .     S
O816   Zn826   1.934   .     S
O817   Zn824   1.928   .     S
O818   Zn825   1.934   .     S
O819   Zn826   1.930   .     S
O820   Zn823   1.926   .     S
O821   Zn824   1.938   .     S
O822   Zn825   1.929   .     S
C827   O876    1.269   .     A
C827   O878    1.269   .     A
C827   C833    1.437   .     S
C828   C842    1.388   .     A
C828   H864    1.077   .     S
C828   C849    1.408   .     A
C829   H853    1.084   .     S
C829   C841    1.395   .     A
C829   C842    1.392   .     A
C830   O879    1.281   .     A
C830   O877    1.284   .     A
C830   C832    1.454   .     S
C831   C840    1.479   .     S
C831   C843    1.403   .     A
C831   C848    1.420   .     A
C832   C715    1.334   1_655 S
C832   H750    1.088   1_655 S
C834   C837    1.451   .     S
C834   C1012   1.331   .     S
C834   H1031   1.088   .     S
C835   C836    1.436   .     S
C836   O874    1.275   .     A
C836   O880    1.275   .     A
C837   O881    1.273   .     A
C837   O875    1.274   .     A
C838   C843    1.394   .     A
C838   C314    1.502   1_556 S
C838   C315    1.396   1_556 S
C839   C842    1.449   .     S
C839   O872    1.277   .     A
C839   O870    1.269   .     A
C840   O873    1.283   .     A
C840   O871    1.284   .     A
C843   H865    1.084   .     S
C844   H855    1.111   .     S
C844   H857    1.109   .     S
C844   C310    1.510   1_556 S
C844   H325    1.111   1_556 S
C845   H859    1.110   .     S
C845   H860    1.109   .     S
C846   H866    1.076   .     S
C847   C848    1.420   .     A
C847   C315    1.417   1_556 S
C847   C318    1.428   1_556 S
C848   C852    1.407   .     A
C850   C851    1.398   .     A
C850   C318    1.429   1_556 S
C850   C310    1.419   1_556 S
C851   C852    1.381   .     A
C851   H863    1.082   .     S
C852   H867    1.079   .     S
H858   C314    1.111   1_556 S
H861   C715    1.086   1_655 S
H862   C1012   1.086   .     S
O869   Zn885   1.934   .     S
O869   Zn883   1.937   .     S
O869   Zn882   1.959   .     S
O869   Zn884   1.943   .     S
O870   Zn883   1.938   .     S
O871   Zn885   1.944   .     S
O872   Zn884   1.935   .     S
O873   Zn882   1.931   .     S
O874   Zn882   1.927   .     S
O875   Zn885   1.934   .     S
O876   Zn883   1.928   .     S
O877   Zn884   1.934   .     S
O878   Zn885   1.930   .     S
O879   Zn882   1.926   .     S
O880   Zn883   1.938   .     S
O881   Zn884   1.929   .     S
C886   O935    1.269   .     A
C886   O937    1.269   .     A
C886   C892    1.437   .     S
C887   C901    1.388   .     A
C887   H923    1.077   .     S
C887   C908    1.408   .     A
C888   H912    1.084   .     S
C888   C900    1.395   .     A
C888   C901    1.392   .     A
C889   O938    1.281   .     A
C889   O936    1.284   .     A
C889   C891    1.454   .     S
C890   C899    1.479   .     S
C890   C902    1.403   .     A
C890   C907    1.420   .     A
C891   C951    1.334   .     S
C891   H986    1.088   .     S
C892   C1009   1.334   1_455 S
C892   H1038   1.086   1_455 S
C893   C896    1.451   .     S
C893   C540    1.331   1_565 S
C893   H559    1.088   1_565 S
C894   C895    1.436   .     S
C895   O933    1.275   .     A
C895   O939    1.275   .     A
C896   O940    1.273   .     A
C896   O934    1.274   .     A
C897   C902    1.394   .     A
C897   C373    1.502   1_556 S
C897   C374    1.396   1_556 S
C898   C901    1.449   .     S
C898   O931    1.277   .     A
C898   O929    1.269   .     A
C899   O932    1.283   .     A
C899   O930    1.284   .     A
C902   H924    1.084   .     S
C903   H914    1.111   .     S
C903   H916    1.109   .     S
C903   C369    1.510   1_556 S
C903   H384    1.111   1_556 S
C904   H918    1.110   .     S
C904   H919    1.109   .     S
C905   H925    1.076   .     S
C906   C907    1.420   .     A
C906   C374    1.417   1_556 S
C906   C377    1.428   1_556 S
C907   C911    1.407   .     A
C909   C910    1.398   .     A
C909   C377    1.429   1_556 S
C909   C369    1.419   1_556 S
C910   C911    1.381   .     A
C910   H922    1.082   .     S
C911   H926    1.079   .     S
H917   C373    1.111   1_556 S
H920   C951    1.086   .     S
H921   C540    1.086   1_565 S
H927   C1009   1.088   1_455 S
O928   Zn944   1.934   .     S
O928   Zn942   1.937   .     S
O928   Zn941   1.959   .     S
O928   Zn943   1.943   .     S
O929   Zn942   1.938   .     S
O930   Zn944   1.944   .     S
O931   Zn943   1.935   .     S
O932   Zn941   1.931   .     S
O933   Zn941   1.927   .     S
O934   Zn944   1.934   .     S
O935   Zn942   1.928   .     S
O936   Zn943   1.934   .     S
O937   Zn944   1.930   .     S
O938   Zn941   1.926   .     S
O939   Zn942   1.938   .     S
O940   Zn943   1.929   .     S
C945   O994    1.269   .     A
C945   O996    1.269   .     A
C945   C951    1.437   .     S
C946   C960    1.388   .     A
C946   H982    1.077   .     S
C946   C967    1.408   .     A
C947   H971    1.084   .     S
C947   C959    1.395   .     A
C947   C960    1.392   .     A
C948   O997    1.281   .     A
C948   O995    1.284   .     A
C948   C950    1.454   .     S
C949   C958    1.479   .     S
C949   C961    1.403   .     A
C949   C966    1.420   .     A
C950   C1010   1.334   .     S
C950   H1045   1.088   .     S
C952   C955    1.451   .     S
C952   C599    1.331   1_565 S
C952   H618    1.088   1_565 S
C953   C954    1.436   .     S
C954   O992    1.275   .     A
C954   O998    1.275   .     A
C955   O999    1.273   .     A
C955   O993    1.274   .     A
C956   C961    1.394   .     A
C956   C432    1.502   1_556 S
C956   C433    1.396   1_556 S
C957   C960    1.449   .     S
C957   O990    1.277   .     A
C957   O988    1.269   .     A
C958   O991    1.283   .     A
C958   O989    1.284   .     A
C961   H983    1.084   .     S
C962   H973    1.111   .     S
C962   H975    1.109   .     S
C962   C428    1.510   1_556 S
C962   H443    1.111   1_556 S
C963   H977    1.110   .     S
C963   H978    1.109   .     S
C964   H984    1.076   .     S
C965   C966    1.420   .     A
C965   C433    1.417   1_556 S
C965   C436    1.428   1_556 S
C966   C970    1.407   .     A
C968   C969    1.398   .     A
C968   C436    1.429   1_556 S
C968   C428    1.419   1_556 S
C969   C970    1.381   .     A
C969   H981    1.082   .     S
C970   H985    1.079   .     S
H976   C432    1.111   1_556 S
H979   C1010   1.086   .     S
H980   C599    1.086   1_565 S
O987   Zn1003  1.934   .     S
O987   Zn1001  1.937   .     S
O987   Zn1000  1.959   .     S
O987   Zn1002  1.943   .     S
O988   Zn1001  1.938   .     S
O989   Zn1003  1.944   .     S
O990   Zn1002  1.935   .     S
O991   Zn1000  1.931   .     S
O992   Zn1000  1.927   .     S
O993   Zn1003  1.934   .     S
O994   Zn1001  1.928   .     S
O995   Zn1002  1.934   .     S
O996   Zn1003  1.930   .     S
O997   Zn1000  1.926   .     S
O998   Zn1001  1.938   .     S
O999   Zn1002  1.929   .     S
C1004  O1053   1.269   .     A
C1004  O1055   1.269   .     A
C1004  C1010   1.437   .     S
C1005  C1019   1.388   .     A
C1005  H1041   1.077   .     S
C1005  C1026   1.408   .     A
C1006  H1030   1.084   .     S
C1006  C1018   1.395   .     A
C1006  C1019   1.392   .     A
C1007  O1056   1.281   .     A
C1007  O1054   1.284   .     A
C1007  C1009   1.454   .     S
C1008  C1017   1.479   .     S
C1008  C1020   1.403   .     A
C1008  C1025   1.420   .     A
C1009  C892    1.334   1_655 S
C1009  H927    1.088   1_655 S
C1011  C1014   1.451   .     S
C1011  C658    1.331   1_565 S
C1011  H677    1.088   1_565 S
C1012  C1013   1.436   .     S
C1013  O1051   1.275   .     A
C1013  O1057   1.275   .     A
C1014  O1058   1.273   .     A
C1014  O1052   1.274   .     A
C1015  C1020   1.394   .     A
C1015  C491    1.502   1_556 S
C1015  C492    1.396   1_556 S
C1016  C1019   1.449   .     S
C1016  O1049   1.277   .     A
C1016  O1047   1.269   .     A
C1017  O1050   1.283   .     A
C1017  O1048   1.284   .     A
C1020  H1042   1.084   .     S
C1021  H1032   1.111   .     S
C1021  H1034   1.109   .     S
C1021  C487    1.510   1_556 S
C1021  H502    1.111   1_556 S
C1022  H1036   1.110   .     S
C1022  H1037   1.109   .     S
C1023  H1043   1.076   .     S
C1024  C1025   1.420   .     A
C1024  C492    1.417   1_556 S
C1024  C495    1.428   1_556 S
C1025  C1029   1.407   .     A
C1027  C1028   1.398   .     A
C1027  C495    1.429   1_556 S
C1027  C487    1.419   1_556 S
C1028  C1029   1.381   .     A
C1028  H1040   1.082   .     S
C1029  H1044   1.079   .     S
H1035  C491    1.111   1_556 S
H1038  C892    1.086   1_655 S
H1039  C658    1.086   1_565 S
O1046  Zn1062  1.934   .     S
O1046  Zn1060  1.937   .     S
O1046  Zn1059  1.959   .     S
O1046  Zn1061  1.943   .     S
O1047  Zn1060  1.938   .     S
O1048  Zn1062  1.944   .     S
O1049  Zn1061  1.935   .     S
O1050  Zn1059  1.931   .     S
O1051  Zn1059  1.927   .     S
O1052  Zn1062  1.934   .     S
O1053  Zn1060  1.928   .     S
O1054  Zn1061  1.934   .     S
O1055  Zn1062  1.930   .     S
O1056  Zn1059  1.926   .     S
O1057  Zn1060  1.938   .     S
O1058  Zn1061  1.929   .     S
