data_str_m3_o1_o18_pcu_sym.177
_audit_creation_date              2020-01-03
_audit_creation_method            'Materials Studio'
_symmetry_space_group_name_H-M    'P1'
_symmetry_Int_Tables_number       1
_symmetry_cell_setting            triclinic
loop_
_symmetry_equiv_pos_as_xyz
  x,y,z
_cell_length_a                    29.8055
_cell_length_b                    32.2598
_cell_length_c                    30.8415
_cell_angle_alpha                 92.8058
_cell_angle_beta                  65.6025
_cell_angle_gamma                 89.6114
loop_
_atom_site_label
_atom_site_type_symbol
_atom_site_fract_x
_atom_site_fract_y
_atom_site_fract_z
_atom_site_U_iso_or_equiv
_atom_site_adp_type
_atom_site_occupancy
C1     C     0.16820   0.24652   0.24619   0.00000  Uiso   1.00
C2     C     0.16455   0.08712   0.25501   0.00000  Uiso   1.00
C3     C     0.14055   0.22121   0.03972   0.00000  Uiso   1.00
C4     C     0.22364   0.14766   0.44268   0.00000  Uiso   1.00
C5     C     0.11170   0.23803   0.01810   0.00000  Uiso   1.00
C6     C     0.25675   0.13531   0.46213   0.00000  Uiso   1.00
C7     C     0.20923   0.31263   0.24609   0.00000  Uiso   1.00
C8     C     0.12134   0.02158   0.25955   0.00000  Uiso   1.00
C9     C     0.20338   0.02104   0.25959   0.00000  Uiso   1.00
C10    C     0.12667   0.31302   0.24670   0.00000  Uiso   1.00
C11    C     0.16188   0.04294   0.26091   0.00000  Uiso   1.00
C12    C     0.16915   0.29114   0.24361   0.00000  Uiso   1.00
C13    C     0.32275   0.13939   0.22004   0.00000  Uiso   1.00
C14    C     0.01008   0.19329   0.28030   0.00000  Uiso   1.00
C15    C     0.03720   0.13959   0.22016   0.00000  Uiso   1.00
C16    C     0.29610   0.19378   0.27961   0.00000  Uiso   1.00
C17    C     0.13549   0.16916   0.33863   0.00000  Uiso   1.00
C18    C     0.19837   0.16665   0.16103   0.00000  Uiso   1.00
C19    C     0.11621   0.18072   0.39018   0.00000  Uiso   1.00
C20    C     0.21996   0.16515   0.10799   0.00000  Uiso   1.00
C21    C     0.07564   0.22831   0.45901   0.00000  Uiso   1.00
C22    C     0.28453   0.14798   0.02840   0.00000  Uiso   1.00
C23    C     0.08673   0.21692   0.41131   0.00000  Uiso   1.00
C24    C     0.27095   0.16003   0.07723   0.00000  Uiso   1.00
C25    C     0.13876   0.16127   0.41583   0.00000  Uiso   1.00
C26    C     0.18672   0.16884   0.08709   0.00000  Uiso   1.00
C27    C     0.14282   0.18247   0.45500   0.00000  Uiso   1.00
C28    C     0.20267   0.16893   0.03790   0.00000  Uiso   1.00
C29    C     0.10878   0.21601   0.47858   0.00000  Uiso   1.00
C30    C     0.24859   0.14972   0.00904   0.00000  Uiso   1.00
C31    C     0.17933   0.17115   0.47128   0.00000  Uiso   1.00
C32    C     0.17242   0.18586   0.01765   0.00000  Uiso   1.00
H33    H     0.14764   0.17320   0.10913   0.00000  Uiso   1.00
H34    H     0.15665   0.13128   0.40222   0.00000  Uiso   1.00
N35    N     0.04759   0.16668   0.25001   0.00000  Uiso   1.00
N36    N     0.28574   0.16666   0.24999   0.00000  Uiso   1.00
O37    O     0.12846   0.22775   0.25000   0.00000  Uiso   1.00
O38    O     0.20488   0.10558   0.25000   0.00000  Uiso   1.00
O39    O     0.20490   0.22774   0.25000   0.00000  Uiso   1.00
O40    O     0.12843   0.10559   0.25000   0.00000  Uiso   1.00
O41    O     0.10661   0.16667   0.31613   0.00000  Uiso   1.00
O42    O     0.22672   0.16666   0.18388   0.00000  Uiso   1.00
O43    O     0.18305   0.16666   0.31612   0.00000  Uiso   1.00
O44    O     0.15028   0.16667   0.18388   0.00000  Uiso   1.00
Zn45   Zn    0.11562   0.16667   0.25000   0.00000  Uiso   1.00
Zn46   Zn    0.21771   0.16666   0.25000   0.00000  Uiso   1.00
C47    C     0.09057   0.28206   0.03318   0.00000  Uiso   1.00
H48    H     0.08812   0.29802   0.00318   0.00000  Uiso   1.00
H49    H     0.05397   0.28176   0.06383   0.00000  Uiso   1.00
H50    H     0.11522   0.30217   0.04313   0.00000  Uiso   1.00
C51    C     0.29627   0.10259   0.43436   0.00000  Uiso   1.00
H52    H     0.28414   0.08145   0.41203   0.00000  Uiso   1.00
H53    H     0.33060   0.11749   0.41079   0.00000  Uiso   1.00
H54    H     0.30327   0.08184   0.45868   0.00000  Uiso   1.00
C55    C     0.31167   0.16916   0.09323   0.00000  Uiso   1.00
H56    H     0.33151   0.13986   0.09247   0.00000  Uiso   1.00
H57    H     0.00502   0.19002   0.06817   0.00000  Uiso   1.00
H58    H     0.29971   0.18622   0.12816   0.00000  Uiso   1.00
C59    C     0.07536   0.24891   0.38323   0.00000  Uiso   1.00
H60    H     0.08216   0.28044   0.39504   0.00000  Uiso   1.00
H61    H     0.03596   0.24804   0.38997   0.00000  Uiso   1.00
H62    H     0.10031   0.24553   0.34496   0.00000  Uiso   1.00
Cl63   Cl    0.01868   0.25520   0.49267   0.00000  Uiso   1.00
Cl64   Cl    0.01462   0.13778   0.49168   0.00000  Uiso   1.00
Cl65   Cl    0.14357   0.25057   0.08901   0.00000  Uiso   1.00
Cl66   Cl    0.24657   0.14196   0.37958   0.00000  Uiso   1.00
Cl67   Cl    0.26944   0.29016   0.22669   0.00000  Uiso   1.00
Cl68   Cl    0.06158   0.04505   0.27870   0.00000  Uiso   1.00
Cl69   Cl    0.24580   0.04358   0.28009   0.00000  Uiso   1.00
Cl70   Cl    0.08199   0.29065   0.22912   0.00000  Uiso   1.00
C71    C     0.31422   0.10834   0.18647   0.00000  Uiso   1.00
H72    H     0.31581   0.07650   0.19781   0.00000  Uiso   1.00
H73    H     0.27923   0.11322   0.18372   0.00000  Uiso   1.00
H74    H     0.01032   0.11023   0.15013   0.00000  Uiso   1.00
C75    C     0.01702   0.22131   0.31652   0.00000  Uiso   1.00
H76    H     0.00978   0.25418   0.31176   0.00000  Uiso   1.00
H77    H     0.32506   0.21268   0.35278   0.00000  Uiso   1.00
H78    H     0.05433   0.21825   0.31315   0.00000  Uiso   1.00
Cl79   Cl    0.08349   0.10416   0.18146   0.00000  Uiso   1.00
Cl80   Cl    0.24978   0.22922   0.31850   0.00000  Uiso   1.00
C81    C     0.50154   0.24652   0.24619   0.00000  Uiso   1.00
C82    C     0.49789   0.08712   0.25501   0.00000  Uiso   1.00
C83    C     0.47388   0.22121   0.03972   0.00000  Uiso   1.00
C84    C     0.55697   0.14766   0.44268   0.00000  Uiso   1.00
C85    C     0.44503   0.23803   0.01810   0.00000  Uiso   1.00
C86    C     0.59009   0.13531   0.46213   0.00000  Uiso   1.00
C87    C     0.54256   0.31263   0.24609   0.00000  Uiso   1.00
C88    C     0.45467   0.02158   0.25955   0.00000  Uiso   1.00
C89    C     0.53671   0.02104   0.25959   0.00000  Uiso   1.00
C90    C     0.46001   0.31302   0.24670   0.00000  Uiso   1.00
C91    C     0.49521   0.04294   0.26091   0.00000  Uiso   1.00
C92    C     0.50249   0.29114   0.24361   0.00000  Uiso   1.00
C93    C     0.65609   0.13939   0.22004   0.00000  Uiso   1.00
C94    C     0.34341   0.19329   0.28030   0.00000  Uiso   1.00
C95    C     0.37053   0.13959   0.22016   0.00000  Uiso   1.00
C96    C     0.62943   0.19378   0.27961   0.00000  Uiso   1.00
C97    C     0.46882   0.16916   0.33863   0.00000  Uiso   1.00
C98    C     0.53171   0.16665   0.16103   0.00000  Uiso   1.00
C99    C     0.44955   0.18072   0.39018   0.00000  Uiso   1.00
C100   C     0.55329   0.16515   0.10799   0.00000  Uiso   1.00
C101   C     0.40898   0.22831   0.45901   0.00000  Uiso   1.00
C102   C     0.61786   0.14798   0.02840   0.00000  Uiso   1.00
C103   C     0.42006   0.21692   0.41131   0.00000  Uiso   1.00
C104   C     0.60428   0.16003   0.07723   0.00000  Uiso   1.00
C105   C     0.47210   0.16127   0.41583   0.00000  Uiso   1.00
C106   C     0.52005   0.16884   0.08709   0.00000  Uiso   1.00
C107   C     0.47615   0.18247   0.45500   0.00000  Uiso   1.00
C108   C     0.53600   0.16893   0.03790   0.00000  Uiso   1.00
C109   C     0.44211   0.21601   0.47858   0.00000  Uiso   1.00
C110   C     0.58193   0.14972   0.00904   0.00000  Uiso   1.00
C111   C     0.51266   0.17115   0.47128   0.00000  Uiso   1.00
C112   C     0.50575   0.18586   0.01765   0.00000  Uiso   1.00
H113   H     0.48097   0.17320   0.10913   0.00000  Uiso   1.00
H114   H     0.48998   0.13128   0.40222   0.00000  Uiso   1.00
N115   N     0.38093   0.16668   0.25001   0.00000  Uiso   1.00
N116   N     0.61907   0.16666   0.24999   0.00000  Uiso   1.00
O117   O     0.46179   0.22775   0.25000   0.00000  Uiso   1.00
O118   O     0.53821   0.10558   0.25000   0.00000  Uiso   1.00
O119   O     0.53823   0.22774   0.25000   0.00000  Uiso   1.00
O120   O     0.46177   0.10559   0.25000   0.00000  Uiso   1.00
O121   O     0.43994   0.16667   0.31613   0.00000  Uiso   1.00
O122   O     0.56006   0.16666   0.18388   0.00000  Uiso   1.00
O123   O     0.51639   0.16666   0.31612   0.00000  Uiso   1.00
O124   O     0.48361   0.16667   0.18388   0.00000  Uiso   1.00
Zn125  Zn    0.44896   0.16667   0.25000   0.00000  Uiso   1.00
Zn126  Zn    0.55104   0.16666   0.25000   0.00000  Uiso   1.00
C127   C     0.42390   0.28206   0.03318   0.00000  Uiso   1.00
H128   H     0.42145   0.29802   0.00318   0.00000  Uiso   1.00
H129   H     0.38731   0.28176   0.06383   0.00000  Uiso   1.00
H130   H     0.44855   0.30217   0.04313   0.00000  Uiso   1.00
C131   C     0.62960   0.10259   0.43436   0.00000  Uiso   1.00
H132   H     0.61747   0.08145   0.41203   0.00000  Uiso   1.00
H133   H     0.66394   0.11749   0.41079   0.00000  Uiso   1.00
H134   H     0.63660   0.08184   0.45868   0.00000  Uiso   1.00
C135   C     0.64501   0.16916   0.09323   0.00000  Uiso   1.00
H136   H     0.66485   0.13986   0.09247   0.00000  Uiso   1.00
H137   H     0.33835   0.19002   0.06817   0.00000  Uiso   1.00
H138   H     0.63304   0.18622   0.12816   0.00000  Uiso   1.00
C139   C     0.40870   0.24891   0.38323   0.00000  Uiso   1.00
H140   H     0.41550   0.28044   0.39504   0.00000  Uiso   1.00
H141   H     0.36930   0.24804   0.38997   0.00000  Uiso   1.00
H142   H     0.43365   0.24553   0.34496   0.00000  Uiso   1.00
Cl143  Cl    0.35201   0.25520   0.49267   0.00000  Uiso   1.00
Cl144  Cl    0.34795   0.13778   0.49168   0.00000  Uiso   1.00
Cl145  Cl    0.47690   0.25057   0.08901   0.00000  Uiso   1.00
Cl146  Cl    0.57990   0.14196   0.37958   0.00000  Uiso   1.00
Cl147  Cl    0.60277   0.29016   0.22669   0.00000  Uiso   1.00
Cl148  Cl    0.39492   0.04505   0.27870   0.00000  Uiso   1.00
Cl149  Cl    0.57913   0.04358   0.28009   0.00000  Uiso   1.00
Cl150  Cl    0.41532   0.29065   0.22912   0.00000  Uiso   1.00
C151   C     0.64756   0.10834   0.18647   0.00000  Uiso   1.00
H152   H     0.64914   0.07650   0.19781   0.00000  Uiso   1.00
H153   H     0.61256   0.11322   0.18372   0.00000  Uiso   1.00
H154   H     0.34365   0.11023   0.15013   0.00000  Uiso   1.00
C155   C     0.35035   0.22131   0.31652   0.00000  Uiso   1.00
H156   H     0.34311   0.25418   0.31176   0.00000  Uiso   1.00
H157   H     0.65840   0.21268   0.35278   0.00000  Uiso   1.00
H158   H     0.38766   0.21825   0.31315   0.00000  Uiso   1.00
Cl159  Cl    0.41682   0.10416   0.18146   0.00000  Uiso   1.00
Cl160  Cl    0.58311   0.22922   0.31850   0.00000  Uiso   1.00
C161   C     0.83487   0.24652   0.24619   0.00000  Uiso   1.00
C162   C     0.83122   0.08712   0.25501   0.00000  Uiso   1.00
C163   C     0.80721   0.22121   0.03972   0.00000  Uiso   1.00
C164   C     0.89031   0.14766   0.44268   0.00000  Uiso   1.00
C165   C     0.77836   0.23803   0.01810   0.00000  Uiso   1.00
C166   C     0.92342   0.13531   0.46213   0.00000  Uiso   1.00
C167   C     0.87589   0.31263   0.24609   0.00000  Uiso   1.00
C168   C     0.78801   0.02158   0.25955   0.00000  Uiso   1.00
C169   C     0.87005   0.02104   0.25959   0.00000  Uiso   1.00
C170   C     0.79334   0.31302   0.24670   0.00000  Uiso   1.00
C171   C     0.82855   0.04294   0.26091   0.00000  Uiso   1.00
C172   C     0.83582   0.29114   0.24361   0.00000  Uiso   1.00
C173   C     0.98942   0.13939   0.22004   0.00000  Uiso   1.00
C174   C     0.67674   0.19329   0.28030   0.00000  Uiso   1.00
C175   C     0.70387   0.13959   0.22016   0.00000  Uiso   1.00
C176   C     0.96277   0.19378   0.27961   0.00000  Uiso   1.00
C177   C     0.80216   0.16916   0.33863   0.00000  Uiso   1.00
C178   C     0.86504   0.16665   0.16103   0.00000  Uiso   1.00
C179   C     0.78288   0.18072   0.39018   0.00000  Uiso   1.00
C180   C     0.88663   0.16515   0.10799   0.00000  Uiso   1.00
C181   C     0.74231   0.22831   0.45901   0.00000  Uiso   1.00
C182   C     0.95119   0.14798   0.02840   0.00000  Uiso   1.00
C183   C     0.75339   0.21692   0.41131   0.00000  Uiso   1.00
C184   C     0.93761   0.16003   0.07723   0.00000  Uiso   1.00
C185   C     0.80543   0.16127   0.41583   0.00000  Uiso   1.00
C186   C     0.85338   0.16884   0.08709   0.00000  Uiso   1.00
C187   C     0.80949   0.18247   0.45500   0.00000  Uiso   1.00
C188   C     0.86933   0.16893   0.03790   0.00000  Uiso   1.00
C189   C     0.77544   0.21601   0.47858   0.00000  Uiso   1.00
C190   C     0.91526   0.14972   0.00904   0.00000  Uiso   1.00
C191   C     0.84600   0.17115   0.47128   0.00000  Uiso   1.00
C192   C     0.83909   0.18586   0.01765   0.00000  Uiso   1.00
H193   H     0.81431   0.17320   0.10913   0.00000  Uiso   1.00
H194   H     0.82332   0.13128   0.40222   0.00000  Uiso   1.00
N195   N     0.71426   0.16668   0.25001   0.00000  Uiso   1.00
N196   N     0.95241   0.16666   0.24999   0.00000  Uiso   1.00
O197   O     0.79512   0.22775   0.25000   0.00000  Uiso   1.00
O198   O     0.87154   0.10558   0.25000   0.00000  Uiso   1.00
O199   O     0.87157   0.22774   0.25000   0.00000  Uiso   1.00
O200   O     0.79510   0.10559   0.25000   0.00000  Uiso   1.00
O201   O     0.77328   0.16667   0.31613   0.00000  Uiso   1.00
O202   O     0.89339   0.16666   0.18388   0.00000  Uiso   1.00
O203   O     0.84972   0.16666   0.31612   0.00000  Uiso   1.00
O204   O     0.81695   0.16667   0.18388   0.00000  Uiso   1.00
Zn205  Zn    0.78229   0.16667   0.25000   0.00000  Uiso   1.00
Zn206  Zn    0.88438   0.16666   0.25000   0.00000  Uiso   1.00
C207   C     0.75723   0.28206   0.03318   0.00000  Uiso   1.00
H208   H     0.75479   0.29802   0.00318   0.00000  Uiso   1.00
H209   H     0.72064   0.28176   0.06383   0.00000  Uiso   1.00
H210   H     0.78189   0.30217   0.04313   0.00000  Uiso   1.00
C211   C     0.96294   0.10259   0.43436   0.00000  Uiso   1.00
H212   H     0.95081   0.08145   0.41203   0.00000  Uiso   1.00
H213   H     0.99727   0.11749   0.41079   0.00000  Uiso   1.00
H214   H     0.96994   0.08184   0.45868   0.00000  Uiso   1.00
C215   C     0.97834   0.16916   0.09323   0.00000  Uiso   1.00
H216   H     0.99818   0.13986   0.09247   0.00000  Uiso   1.00
H217   H     0.67168   0.19002   0.06817   0.00000  Uiso   1.00
H218   H     0.96637   0.18622   0.12816   0.00000  Uiso   1.00
C219   C     0.74203   0.24891   0.38323   0.00000  Uiso   1.00
H220   H     0.74883   0.28044   0.39504   0.00000  Uiso   1.00
H221   H     0.70263   0.24804   0.38997   0.00000  Uiso   1.00
H222   H     0.76698   0.24553   0.34496   0.00000  Uiso   1.00
Cl223  Cl    0.68535   0.25520   0.49267   0.00000  Uiso   1.00
Cl224  Cl    0.68129   0.13778   0.49168   0.00000  Uiso   1.00
Cl225  Cl    0.81024   0.25057   0.08901   0.00000  Uiso   1.00
Cl226  Cl    0.91324   0.14196   0.37958   0.00000  Uiso   1.00
Cl227  Cl    0.93611   0.29016   0.22669   0.00000  Uiso   1.00
Cl228  Cl    0.72825   0.04505   0.27870   0.00000  Uiso   1.00
Cl229  Cl    0.91247   0.04358   0.28009   0.00000  Uiso   1.00
Cl230  Cl    0.74865   0.29065   0.22912   0.00000  Uiso   1.00
C231   C     0.98089   0.10834   0.18647   0.00000  Uiso   1.00
H232   H     0.98248   0.07650   0.19781   0.00000  Uiso   1.00
H233   H     0.94589   0.11322   0.18372   0.00000  Uiso   1.00
H234   H     0.67698   0.11023   0.15013   0.00000  Uiso   1.00
C235   C     0.68369   0.22131   0.31652   0.00000  Uiso   1.00
H236   H     0.67644   0.25418   0.31176   0.00000  Uiso   1.00
H237   H     0.99173   0.21268   0.35278   0.00000  Uiso   1.00
H238   H     0.72099   0.21825   0.31315   0.00000  Uiso   1.00
Cl239  Cl    0.75016   0.10416   0.18146   0.00000  Uiso   1.00
Cl240  Cl    0.91645   0.22922   0.31850   0.00000  Uiso   1.00
C241   C     0.16820   0.57985   0.24619   0.00000  Uiso   1.00
C242   C     0.16455   0.42045   0.25501   0.00000  Uiso   1.00
C243   C     0.14055   0.55454   0.03972   0.00000  Uiso   1.00
C244   C     0.22364   0.48099   0.44268   0.00000  Uiso   1.00
C245   C     0.11170   0.57137   0.01810   0.00000  Uiso   1.00
C246   C     0.25675   0.46865   0.46213   0.00000  Uiso   1.00
C247   C     0.20923   0.64597   0.24609   0.00000  Uiso   1.00
C248   C     0.12134   0.35492   0.25955   0.00000  Uiso   1.00
C249   C     0.20338   0.35437   0.25959   0.00000  Uiso   1.00
C250   C     0.12667   0.64636   0.24670   0.00000  Uiso   1.00
C251   C     0.16188   0.37627   0.26091   0.00000  Uiso   1.00
C252   C     0.16915   0.62448   0.24361   0.00000  Uiso   1.00
C253   C     0.32275   0.47273   0.22004   0.00000  Uiso   1.00
C254   C     0.01008   0.52662   0.28030   0.00000  Uiso   1.00
C255   C     0.03720   0.47293   0.22016   0.00000  Uiso   1.00
C256   C     0.29610   0.52711   0.27961   0.00000  Uiso   1.00
C257   C     0.13549   0.50250   0.33863   0.00000  Uiso   1.00
C258   C     0.19837   0.49998   0.16103   0.00000  Uiso   1.00
C259   C     0.11621   0.51405   0.39018   0.00000  Uiso   1.00
C260   C     0.21996   0.49848   0.10799   0.00000  Uiso   1.00
C261   C     0.07564   0.56164   0.45901   0.00000  Uiso   1.00
C262   C     0.28453   0.48132   0.02840   0.00000  Uiso   1.00
C263   C     0.08673   0.55026   0.41131   0.00000  Uiso   1.00
C264   C     0.27095   0.49336   0.07723   0.00000  Uiso   1.00
C265   C     0.13876   0.49460   0.41583   0.00000  Uiso   1.00
C266   C     0.18672   0.50217   0.08709   0.00000  Uiso   1.00
C267   C     0.14282   0.51580   0.45500   0.00000  Uiso   1.00
C268   C     0.20267   0.50227   0.03790   0.00000  Uiso   1.00
C269   C     0.10878   0.54934   0.47858   0.00000  Uiso   1.00
C270   C     0.24859   0.48305   0.00904   0.00000  Uiso   1.00
C271   C     0.17933   0.50448   0.47128   0.00000  Uiso   1.00
C272   C     0.17242   0.51920   0.01765   0.00000  Uiso   1.00
H273   H     0.14764   0.50654   0.10913   0.00000  Uiso   1.00
H274   H     0.15665   0.46462   0.40222   0.00000  Uiso   1.00
N275   N     0.04759   0.50001   0.25001   0.00000  Uiso   1.00
N276   N     0.28574   0.49999   0.24999   0.00000  Uiso   1.00
O277   O     0.12846   0.56108   0.25000   0.00000  Uiso   1.00
O278   O     0.20488   0.43892   0.25000   0.00000  Uiso   1.00
O279   O     0.20490   0.56107   0.25000   0.00000  Uiso   1.00
O280   O     0.12843   0.43893   0.25000   0.00000  Uiso   1.00
O281   O     0.10661   0.50001   0.31613   0.00000  Uiso   1.00
O282   O     0.22672   0.49999   0.18388   0.00000  Uiso   1.00
O283   O     0.18305   0.50000   0.31612   0.00000  Uiso   1.00
O284   O     0.15028   0.50000   0.18388   0.00000  Uiso   1.00
Zn285  Zn    0.11562   0.50001   0.25000   0.00000  Uiso   1.00
Zn286  Zn    0.21771   0.49999   0.25000   0.00000  Uiso   1.00
C287   C     0.09057   0.61540   0.03318   0.00000  Uiso   1.00
H288   H     0.08812   0.63135   0.00318   0.00000  Uiso   1.00
H289   H     0.05397   0.61510   0.06383   0.00000  Uiso   1.00
H290   H     0.11522   0.63550   0.04313   0.00000  Uiso   1.00
C291   C     0.29627   0.43592   0.43436   0.00000  Uiso   1.00
H292   H     0.28414   0.41478   0.41203   0.00000  Uiso   1.00
H293   H     0.33060   0.45083   0.41079   0.00000  Uiso   1.00
H294   H     0.30327   0.41518   0.45868   0.00000  Uiso   1.00
C295   C     0.31167   0.50249   0.09323   0.00000  Uiso   1.00
H296   H     0.33151   0.47320   0.09247   0.00000  Uiso   1.00
H297   H     0.00502   0.52335   0.06817   0.00000  Uiso   1.00
H298   H     0.29971   0.51955   0.12816   0.00000  Uiso   1.00
C299   C     0.07536   0.58225   0.38323   0.00000  Uiso   1.00
H300   H     0.08216   0.61378   0.39504   0.00000  Uiso   1.00
H301   H     0.03596   0.58137   0.38997   0.00000  Uiso   1.00
H302   H     0.10031   0.57886   0.34496   0.00000  Uiso   1.00
Cl303  Cl    0.01868   0.58853   0.49267   0.00000  Uiso   1.00
Cl304  Cl    0.01462   0.47111   0.49168   0.00000  Uiso   1.00
Cl305  Cl    0.14357   0.58390   0.08901   0.00000  Uiso   1.00
Cl306  Cl    0.24657   0.47529   0.37958   0.00000  Uiso   1.00
Cl307  Cl    0.26944   0.62349   0.22669   0.00000  Uiso   1.00
Cl308  Cl    0.06158   0.37839   0.27870   0.00000  Uiso   1.00
Cl309  Cl    0.24580   0.37692   0.28009   0.00000  Uiso   1.00
Cl310  Cl    0.08199   0.62398   0.22912   0.00000  Uiso   1.00
C311   C     0.31422   0.44167   0.18647   0.00000  Uiso   1.00
H312   H     0.31581   0.40983   0.19781   0.00000  Uiso   1.00
H313   H     0.27923   0.44655   0.18372   0.00000  Uiso   1.00
H314   H     0.01032   0.44356   0.15013   0.00000  Uiso   1.00
C315   C     0.01702   0.55464   0.31652   0.00000  Uiso   1.00
H316   H     0.00978   0.58751   0.31176   0.00000  Uiso   1.00
H317   H     0.32506   0.54601   0.35278   0.00000  Uiso   1.00
H318   H     0.05433   0.55159   0.31315   0.00000  Uiso   1.00
Cl319  Cl    0.08349   0.43750   0.18146   0.00000  Uiso   1.00
Cl320  Cl    0.24978   0.56255   0.31850   0.00000  Uiso   1.00
C321   C     0.50154   0.57985   0.24619   0.00000  Uiso   1.00
C322   C     0.49789   0.42045   0.25501   0.00000  Uiso   1.00
C323   C     0.47388   0.55454   0.03972   0.00000  Uiso   1.00
C324   C     0.55697   0.48099   0.44268   0.00000  Uiso   1.00
C325   C     0.44503   0.57137   0.01810   0.00000  Uiso   1.00
C326   C     0.59009   0.46865   0.46213   0.00000  Uiso   1.00
C327   C     0.54256   0.64597   0.24609   0.00000  Uiso   1.00
C328   C     0.45467   0.35492   0.25955   0.00000  Uiso   1.00
C329   C     0.53671   0.35437   0.25959   0.00000  Uiso   1.00
C330   C     0.46001   0.64636   0.24670   0.00000  Uiso   1.00
C331   C     0.49521   0.37627   0.26091   0.00000  Uiso   1.00
C332   C     0.50249   0.62448   0.24361   0.00000  Uiso   1.00
C333   C     0.65609   0.47273   0.22004   0.00000  Uiso   1.00
C334   C     0.34341   0.52662   0.28030   0.00000  Uiso   1.00
C335   C     0.37053   0.47293   0.22016   0.00000  Uiso   1.00
C336   C     0.62943   0.52711   0.27961   0.00000  Uiso   1.00
C337   C     0.46882   0.50250   0.33863   0.00000  Uiso   1.00
C338   C     0.53171   0.49998   0.16103   0.00000  Uiso   1.00
C339   C     0.44955   0.51405   0.39018   0.00000  Uiso   1.00
C340   C     0.55329   0.49848   0.10799   0.00000  Uiso   1.00
C341   C     0.40898   0.56164   0.45901   0.00000  Uiso   1.00
C342   C     0.61786   0.48132   0.02840   0.00000  Uiso   1.00
C343   C     0.42006   0.55026   0.41131   0.00000  Uiso   1.00
C344   C     0.60428   0.49336   0.07723   0.00000  Uiso   1.00
C345   C     0.47210   0.49460   0.41583   0.00000  Uiso   1.00
C346   C     0.52005   0.50217   0.08709   0.00000  Uiso   1.00
C347   C     0.47615   0.51580   0.45500   0.00000  Uiso   1.00
C348   C     0.53600   0.50227   0.03790   0.00000  Uiso   1.00
C349   C     0.44211   0.54934   0.47858   0.00000  Uiso   1.00
C350   C     0.58193   0.48305   0.00904   0.00000  Uiso   1.00
C351   C     0.51266   0.50448   0.47128   0.00000  Uiso   1.00
C352   C     0.50575   0.51920   0.01765   0.00000  Uiso   1.00
H353   H     0.48097   0.50654   0.10913   0.00000  Uiso   1.00
H354   H     0.48998   0.46462   0.40222   0.00000  Uiso   1.00
N355   N     0.38093   0.50001   0.25001   0.00000  Uiso   1.00
N356   N     0.61907   0.49999   0.24999   0.00000  Uiso   1.00
O357   O     0.46179   0.56108   0.25000   0.00000  Uiso   1.00
O358   O     0.53821   0.43892   0.25000   0.00000  Uiso   1.00
O359   O     0.53823   0.56107   0.25000   0.00000  Uiso   1.00
O360   O     0.46177   0.43893   0.25000   0.00000  Uiso   1.00
O361   O     0.43994   0.50001   0.31613   0.00000  Uiso   1.00
O362   O     0.56006   0.49999   0.18388   0.00000  Uiso   1.00
O363   O     0.51639   0.50000   0.31612   0.00000  Uiso   1.00
O364   O     0.48361   0.50000   0.18388   0.00000  Uiso   1.00
Zn365  Zn    0.44896   0.50001   0.25000   0.00000  Uiso   1.00
Zn366  Zn    0.55104   0.49999   0.25000   0.00000  Uiso   1.00
C367   C     0.42390   0.61540   0.03318   0.00000  Uiso   1.00
H368   H     0.42145   0.63135   0.00318   0.00000  Uiso   1.00
H369   H     0.38731   0.61510   0.06383   0.00000  Uiso   1.00
H370   H     0.44855   0.63550   0.04313   0.00000  Uiso   1.00
C371   C     0.62960   0.43592   0.43436   0.00000  Uiso   1.00
H372   H     0.61747   0.41478   0.41203   0.00000  Uiso   1.00
H373   H     0.66394   0.45083   0.41079   0.00000  Uiso   1.00
H374   H     0.63660   0.41518   0.45868   0.00000  Uiso   1.00
C375   C     0.64501   0.50249   0.09323   0.00000  Uiso   1.00
H376   H     0.66485   0.47320   0.09247   0.00000  Uiso   1.00
H377   H     0.33835   0.52335   0.06817   0.00000  Uiso   1.00
H378   H     0.63304   0.51955   0.12816   0.00000  Uiso   1.00
C379   C     0.40870   0.58225   0.38323   0.00000  Uiso   1.00
H380   H     0.41550   0.61378   0.39504   0.00000  Uiso   1.00
H381   H     0.36930   0.58137   0.38997   0.00000  Uiso   1.00
H382   H     0.43365   0.57886   0.34496   0.00000  Uiso   1.00
Cl383  Cl    0.35201   0.58853   0.49267   0.00000  Uiso   1.00
Cl384  Cl    0.34795   0.47111   0.49168   0.00000  Uiso   1.00
Cl385  Cl    0.47690   0.58390   0.08901   0.00000  Uiso   1.00
Cl386  Cl    0.57990   0.47529   0.37958   0.00000  Uiso   1.00
Cl387  Cl    0.60277   0.62349   0.22669   0.00000  Uiso   1.00
Cl388  Cl    0.39492   0.37839   0.27870   0.00000  Uiso   1.00
Cl389  Cl    0.57913   0.37692   0.28009   0.00000  Uiso   1.00
Cl390  Cl    0.41532   0.62398   0.22912   0.00000  Uiso   1.00
C391   C     0.64756   0.44167   0.18647   0.00000  Uiso   1.00
H392   H     0.64914   0.40983   0.19781   0.00000  Uiso   1.00
H393   H     0.61256   0.44655   0.18372   0.00000  Uiso   1.00
H394   H     0.34365   0.44356   0.15013   0.00000  Uiso   1.00
C395   C     0.35035   0.55464   0.31652   0.00000  Uiso   1.00
H396   H     0.34311   0.58751   0.31176   0.00000  Uiso   1.00
H397   H     0.65840   0.54601   0.35278   0.00000  Uiso   1.00
H398   H     0.38766   0.55159   0.31315   0.00000  Uiso   1.00
Cl399  Cl    0.41682   0.43750   0.18146   0.00000  Uiso   1.00
Cl400  Cl    0.58311   0.56255   0.31850   0.00000  Uiso   1.00
C401   C     0.83487   0.57985   0.24619   0.00000  Uiso   1.00
C402   C     0.83122   0.42045   0.25501   0.00000  Uiso   1.00
C403   C     0.80721   0.55454   0.03972   0.00000  Uiso   1.00
C404   C     0.89031   0.48099   0.44268   0.00000  Uiso   1.00
C405   C     0.77836   0.57137   0.01810   0.00000  Uiso   1.00
C406   C     0.92342   0.46865   0.46213   0.00000  Uiso   1.00
C407   C     0.87589   0.64597   0.24609   0.00000  Uiso   1.00
C408   C     0.78801   0.35492   0.25955   0.00000  Uiso   1.00
C409   C     0.87005   0.35437   0.25959   0.00000  Uiso   1.00
C410   C     0.79334   0.64636   0.24670   0.00000  Uiso   1.00
C411   C     0.82855   0.37627   0.26091   0.00000  Uiso   1.00
C412   C     0.83582   0.62448   0.24361   0.00000  Uiso   1.00
C413   C     0.98942   0.47273   0.22004   0.00000  Uiso   1.00
C414   C     0.67674   0.52662   0.28030   0.00000  Uiso   1.00
C415   C     0.70387   0.47293   0.22016   0.00000  Uiso   1.00
C416   C     0.96277   0.52711   0.27961   0.00000  Uiso   1.00
C417   C     0.80216   0.50250   0.33863   0.00000  Uiso   1.00
C418   C     0.86504   0.49998   0.16103   0.00000  Uiso   1.00
C419   C     0.78288   0.51405   0.39018   0.00000  Uiso   1.00
C420   C     0.88663   0.49848   0.10799   0.00000  Uiso   1.00
C421   C     0.74231   0.56164   0.45901   0.00000  Uiso   1.00
C422   C     0.95119   0.48132   0.02840   0.00000  Uiso   1.00
C423   C     0.75339   0.55026   0.41131   0.00000  Uiso   1.00
C424   C     0.93761   0.49336   0.07723   0.00000  Uiso   1.00
C425   C     0.80543   0.49460   0.41583   0.00000  Uiso   1.00
C426   C     0.85338   0.50217   0.08709   0.00000  Uiso   1.00
C427   C     0.80949   0.51580   0.45500   0.00000  Uiso   1.00
C428   C     0.86933   0.50227   0.03790   0.00000  Uiso   1.00
C429   C     0.77544   0.54934   0.47858   0.00000  Uiso   1.00
C430   C     0.91526   0.48305   0.00904   0.00000  Uiso   1.00
C431   C     0.84600   0.50448   0.47128   0.00000  Uiso   1.00
C432   C     0.83909   0.51920   0.01765   0.00000  Uiso   1.00
H433   H     0.81431   0.50654   0.10913   0.00000  Uiso   1.00
H434   H     0.82332   0.46462   0.40222   0.00000  Uiso   1.00
N435   N     0.71426   0.50001   0.25001   0.00000  Uiso   1.00
N436   N     0.95241   0.49999   0.24999   0.00000  Uiso   1.00
O437   O     0.79512   0.56108   0.25000   0.00000  Uiso   1.00
O438   O     0.87154   0.43892   0.25000   0.00000  Uiso   1.00
O439   O     0.87157   0.56107   0.25000   0.00000  Uiso   1.00
O440   O     0.79510   0.43893   0.25000   0.00000  Uiso   1.00
O441   O     0.77328   0.50001   0.31613   0.00000  Uiso   1.00
O442   O     0.89339   0.49999   0.18388   0.00000  Uiso   1.00
O443   O     0.84972   0.50000   0.31612   0.00000  Uiso   1.00
O444   O     0.81695   0.50000   0.18388   0.00000  Uiso   1.00
Zn445  Zn    0.78229   0.50001   0.25000   0.00000  Uiso   1.00
Zn446  Zn    0.88438   0.49999   0.25000   0.00000  Uiso   1.00
C447   C     0.75723   0.61540   0.03318   0.00000  Uiso   1.00
H448   H     0.75479   0.63135   0.00318   0.00000  Uiso   1.00
H449   H     0.72064   0.61510   0.06383   0.00000  Uiso   1.00
H450   H     0.78189   0.63550   0.04313   0.00000  Uiso   1.00
C451   C     0.96294   0.43592   0.43436   0.00000  Uiso   1.00
H452   H     0.95081   0.41478   0.41203   0.00000  Uiso   1.00
H453   H     0.99727   0.45083   0.41079   0.00000  Uiso   1.00
H454   H     0.96994   0.41518   0.45868   0.00000  Uiso   1.00
C455   C     0.97834   0.50249   0.09323   0.00000  Uiso   1.00
H456   H     0.99818   0.47320   0.09247   0.00000  Uiso   1.00
H457   H     0.67168   0.52335   0.06817   0.00000  Uiso   1.00
H458   H     0.96637   0.51955   0.12816   0.00000  Uiso   1.00
C459   C     0.74203   0.58225   0.38323   0.00000  Uiso   1.00
H460   H     0.74883   0.61378   0.39504   0.00000  Uiso   1.00
H461   H     0.70263   0.58137   0.38997   0.00000  Uiso   1.00
H462   H     0.76698   0.57886   0.34496   0.00000  Uiso   1.00
Cl463  Cl    0.68535   0.58853   0.49267   0.00000  Uiso   1.00
Cl464  Cl    0.68129   0.47111   0.49168   0.00000  Uiso   1.00
Cl465  Cl    0.81024   0.58390   0.08901   0.00000  Uiso   1.00
Cl466  Cl    0.91324   0.47529   0.37958   0.00000  Uiso   1.00
Cl467  Cl    0.93611   0.62349   0.22669   0.00000  Uiso   1.00
Cl468  Cl    0.72825   0.37839   0.27870   0.00000  Uiso   1.00
Cl469  Cl    0.91247   0.37692   0.28009   0.00000  Uiso   1.00
Cl470  Cl    0.74865   0.62398   0.22912   0.00000  Uiso   1.00
C471   C     0.98089   0.44167   0.18647   0.00000  Uiso   1.00
H472   H     0.98248   0.40983   0.19781   0.00000  Uiso   1.00
H473   H     0.94589   0.44655   0.18372   0.00000  Uiso   1.00
H474   H     0.67698   0.44356   0.15013   0.00000  Uiso   1.00
C475   C     0.68369   0.55464   0.31652   0.00000  Uiso   1.00
H476   H     0.67644   0.58751   0.31176   0.00000  Uiso   1.00
H477   H     0.99173   0.54601   0.35278   0.00000  Uiso   1.00
H478   H     0.72099   0.55159   0.31315   0.00000  Uiso   1.00
Cl479  Cl    0.75016   0.43750   0.18146   0.00000  Uiso   1.00
Cl480  Cl    0.91645   0.56255   0.31850   0.00000  Uiso   1.00
C481   C     0.16820   0.91319   0.24619   0.00000  Uiso   1.00
C482   C     0.16455   0.75378   0.25501   0.00000  Uiso   1.00
C483   C     0.14055   0.88788   0.03972   0.00000  Uiso   1.00
C484   C     0.22364   0.81432   0.44268   0.00000  Uiso   1.00
C485   C     0.11170   0.90470   0.01810   0.00000  Uiso   1.00
C486   C     0.25675   0.80198   0.46213   0.00000  Uiso   1.00
C487   C     0.20923   0.97930   0.24609   0.00000  Uiso   1.00
C488   C     0.12134   0.68825   0.25955   0.00000  Uiso   1.00
C489   C     0.20338   0.68770   0.25959   0.00000  Uiso   1.00
C490   C     0.12667   0.97969   0.24670   0.00000  Uiso   1.00
C491   C     0.16188   0.70960   0.26091   0.00000  Uiso   1.00
C492   C     0.16915   0.95781   0.24361   0.00000  Uiso   1.00
C493   C     0.32275   0.80606   0.22004   0.00000  Uiso   1.00
C494   C     0.01008   0.85995   0.28030   0.00000  Uiso   1.00
C495   C     0.03720   0.80626   0.22016   0.00000  Uiso   1.00
C496   C     0.29610   0.86045   0.27961   0.00000  Uiso   1.00
C497   C     0.13549   0.83583   0.33863   0.00000  Uiso   1.00
C498   C     0.19837   0.83331   0.16103   0.00000  Uiso   1.00
C499   C     0.11621   0.84739   0.39018   0.00000  Uiso   1.00
C500   C     0.21996   0.83182   0.10799   0.00000  Uiso   1.00
C501   C     0.07564   0.89497   0.45901   0.00000  Uiso   1.00
C502   C     0.28453   0.81465   0.02840   0.00000  Uiso   1.00
C503   C     0.08673   0.88359   0.41131   0.00000  Uiso   1.00
C504   C     0.27095   0.82669   0.07723   0.00000  Uiso   1.00
C505   C     0.13876   0.82794   0.41583   0.00000  Uiso   1.00
C506   C     0.18672   0.83551   0.08709   0.00000  Uiso   1.00
C507   C     0.14282   0.84913   0.45500   0.00000  Uiso   1.00
C508   C     0.20267   0.83560   0.03790   0.00000  Uiso   1.00
C509   C     0.10878   0.88267   0.47858   0.00000  Uiso   1.00
C510   C     0.24859   0.81638   0.00904   0.00000  Uiso   1.00
C511   C     0.17933   0.83781   0.47128   0.00000  Uiso   1.00
C512   C     0.17242   0.85253   0.01765   0.00000  Uiso   1.00
H513   H     0.14764   0.83987   0.10913   0.00000  Uiso   1.00
H514   H     0.15665   0.79795   0.40222   0.00000  Uiso   1.00
N515   N     0.04759   0.83334   0.25001   0.00000  Uiso   1.00
N516   N     0.28574   0.83332   0.24999   0.00000  Uiso   1.00
O517   O     0.12846   0.89442   0.25000   0.00000  Uiso   1.00
O518   O     0.20488   0.77225   0.25000   0.00000  Uiso   1.00
O519   O     0.20490   0.89441   0.25000   0.00000  Uiso   1.00
O520   O     0.12843   0.77226   0.25000   0.00000  Uiso   1.00
O521   O     0.10661   0.83334   0.31613   0.00000  Uiso   1.00
O522   O     0.22672   0.83333   0.18388   0.00000  Uiso   1.00
O523   O     0.18305   0.83333   0.31612   0.00000  Uiso   1.00
O524   O     0.15028   0.83334   0.18388   0.00000  Uiso   1.00
Zn525  Zn    0.11562   0.83334   0.25000   0.00000  Uiso   1.00
Zn526  Zn    0.21771   0.83333   0.25000   0.00000  Uiso   1.00
C527   C     0.09057   0.94873   0.03318   0.00000  Uiso   1.00
H528   H     0.08812   0.96468   0.00318   0.00000  Uiso   1.00
H529   H     0.05397   0.94843   0.06383   0.00000  Uiso   1.00
H530   H     0.11522   0.96884   0.04313   0.00000  Uiso   1.00
C531   C     0.29627   0.76925   0.43436   0.00000  Uiso   1.00
H532   H     0.28414   0.74812   0.41203   0.00000  Uiso   1.00
H533   H     0.33060   0.78416   0.41079   0.00000  Uiso   1.00
H534   H     0.30327   0.74851   0.45868   0.00000  Uiso   1.00
C535   C     0.31167   0.83582   0.09323   0.00000  Uiso   1.00
H536   H     0.33151   0.80653   0.09247   0.00000  Uiso   1.00
H537   H     0.00502   0.85668   0.06817   0.00000  Uiso   1.00
H538   H     0.29971   0.85289   0.12816   0.00000  Uiso   1.00
C539   C     0.07536   0.91558   0.38323   0.00000  Uiso   1.00
H540   H     0.08216   0.94711   0.39504   0.00000  Uiso   1.00
H541   H     0.03596   0.91471   0.38997   0.00000  Uiso   1.00
H542   H     0.10031   0.91220   0.34496   0.00000  Uiso   1.00
Cl543  Cl    0.01868   0.92186   0.49267   0.00000  Uiso   1.00
Cl544  Cl    0.01462   0.80444   0.49168   0.00000  Uiso   1.00
Cl545  Cl    0.14357   0.91724   0.08901   0.00000  Uiso   1.00
Cl546  Cl    0.24657   0.80863   0.37958   0.00000  Uiso   1.00
Cl547  Cl    0.26944   0.95682   0.22669   0.00000  Uiso   1.00
Cl548  Cl    0.06158   0.71172   0.27870   0.00000  Uiso   1.00
Cl549  Cl    0.24580   0.71025   0.28009   0.00000  Uiso   1.00
Cl550  Cl    0.08199   0.95731   0.22912   0.00000  Uiso   1.00
C551   C     0.31422   0.77501   0.18647   0.00000  Uiso   1.00
H552   H     0.31581   0.74316   0.19781   0.00000  Uiso   1.00
H553   H     0.27923   0.77988   0.18372   0.00000  Uiso   1.00
H554   H     0.01032   0.77690   0.15013   0.00000  Uiso   1.00
C555   C     0.01702   0.88797   0.31652   0.00000  Uiso   1.00
H556   H     0.00978   0.92084   0.31176   0.00000  Uiso   1.00
H557   H     0.32506   0.87934   0.35278   0.00000  Uiso   1.00
H558   H     0.05433   0.88492   0.31315   0.00000  Uiso   1.00
Cl559  Cl    0.08349   0.77083   0.18146   0.00000  Uiso   1.00
Cl560  Cl    0.24978   0.89588   0.31850   0.00000  Uiso   1.00
C561   C     0.50154   0.91319   0.24619   0.00000  Uiso   1.00
C562   C     0.49789   0.75378   0.25501   0.00000  Uiso   1.00
C563   C     0.47388   0.88788   0.03972   0.00000  Uiso   1.00
C564   C     0.55697   0.81432   0.44268   0.00000  Uiso   1.00
C565   C     0.44503   0.90470   0.01810   0.00000  Uiso   1.00
C566   C     0.59009   0.80198   0.46213   0.00000  Uiso   1.00
C567   C     0.54256   0.97930   0.24609   0.00000  Uiso   1.00
C568   C     0.45467   0.68825   0.25955   0.00000  Uiso   1.00
C569   C     0.53671   0.68770   0.25959   0.00000  Uiso   1.00
C570   C     0.46001   0.97969   0.24670   0.00000  Uiso   1.00
C571   C     0.49521   0.70960   0.26091   0.00000  Uiso   1.00
C572   C     0.50249   0.95781   0.24361   0.00000  Uiso   1.00
C573   C     0.65609   0.80606   0.22004   0.00000  Uiso   1.00
C574   C     0.34341   0.85995   0.28030   0.00000  Uiso   1.00
C575   C     0.37053   0.80626   0.22016   0.00000  Uiso   1.00
C576   C     0.62943   0.86045   0.27961   0.00000  Uiso   1.00
C577   C     0.46882   0.83583   0.33863   0.00000  Uiso   1.00
C578   C     0.53171   0.83331   0.16103   0.00000  Uiso   1.00
C579   C     0.44955   0.84739   0.39018   0.00000  Uiso   1.00
C580   C     0.55329   0.83182   0.10799   0.00000  Uiso   1.00
C581   C     0.40898   0.89497   0.45901   0.00000  Uiso   1.00
C582   C     0.61786   0.81465   0.02840   0.00000  Uiso   1.00
C583   C     0.42006   0.88359   0.41131   0.00000  Uiso   1.00
C584   C     0.60428   0.82669   0.07723   0.00000  Uiso   1.00
C585   C     0.47210   0.82794   0.41583   0.00000  Uiso   1.00
C586   C     0.52005   0.83551   0.08709   0.00000  Uiso   1.00
C587   C     0.47615   0.84913   0.45500   0.00000  Uiso   1.00
C588   C     0.53600   0.83560   0.03790   0.00000  Uiso   1.00
C589   C     0.44211   0.88267   0.47858   0.00000  Uiso   1.00
C590   C     0.58193   0.81638   0.00904   0.00000  Uiso   1.00
C591   C     0.51266   0.83781   0.47128   0.00000  Uiso   1.00
C592   C     0.50575   0.85253   0.01765   0.00000  Uiso   1.00
H593   H     0.48097   0.83987   0.10913   0.00000  Uiso   1.00
H594   H     0.48998   0.79795   0.40222   0.00000  Uiso   1.00
N595   N     0.38093   0.83334   0.25001   0.00000  Uiso   1.00
N596   N     0.61907   0.83332   0.24999   0.00000  Uiso   1.00
O597   O     0.46179   0.89442   0.25000   0.00000  Uiso   1.00
O598   O     0.53821   0.77225   0.25000   0.00000  Uiso   1.00
O599   O     0.53823   0.89441   0.25000   0.00000  Uiso   1.00
O600   O     0.46177   0.77226   0.25000   0.00000  Uiso   1.00
O601   O     0.43994   0.83334   0.31613   0.00000  Uiso   1.00
O602   O     0.56006   0.83333   0.18388   0.00000  Uiso   1.00
O603   O     0.51639   0.83333   0.31612   0.00000  Uiso   1.00
O604   O     0.48361   0.83334   0.18388   0.00000  Uiso   1.00
Zn605  Zn    0.44896   0.83334   0.25000   0.00000  Uiso   1.00
Zn606  Zn    0.55104   0.83333   0.25000   0.00000  Uiso   1.00
C607   C     0.42390   0.94873   0.03318   0.00000  Uiso   1.00
H608   H     0.42145   0.96468   0.00318   0.00000  Uiso   1.00
H609   H     0.38731   0.94843   0.06383   0.00000  Uiso   1.00
H610   H     0.44855   0.96884   0.04313   0.00000  Uiso   1.00
C611   C     0.62960   0.76925   0.43436   0.00000  Uiso   1.00
H612   H     0.61747   0.74812   0.41203   0.00000  Uiso   1.00
H613   H     0.66394   0.78416   0.41079   0.00000  Uiso   1.00
H614   H     0.63660   0.74851   0.45868   0.00000  Uiso   1.00
C615   C     0.64501   0.83582   0.09323   0.00000  Uiso   1.00
H616   H     0.66485   0.80653   0.09247   0.00000  Uiso   1.00
H617   H     0.33835   0.85668   0.06817   0.00000  Uiso   1.00
H618   H     0.63304   0.85289   0.12816   0.00000  Uiso   1.00
C619   C     0.40870   0.91558   0.38323   0.00000  Uiso   1.00
H620   H     0.41550   0.94711   0.39504   0.00000  Uiso   1.00
H621   H     0.36930   0.91471   0.38997   0.00000  Uiso   1.00
H622   H     0.43365   0.91220   0.34496   0.00000  Uiso   1.00
Cl623  Cl    0.35201   0.92186   0.49267   0.00000  Uiso   1.00
Cl624  Cl    0.34795   0.80444   0.49168   0.00000  Uiso   1.00
Cl625  Cl    0.47690   0.91724   0.08901   0.00000  Uiso   1.00
Cl626  Cl    0.57990   0.80863   0.37958   0.00000  Uiso   1.00
Cl627  Cl    0.60277   0.95682   0.22669   0.00000  Uiso   1.00
Cl628  Cl    0.39492   0.71172   0.27870   0.00000  Uiso   1.00
Cl629  Cl    0.57913   0.71025   0.28009   0.00000  Uiso   1.00
Cl630  Cl    0.41532   0.95731   0.22912   0.00000  Uiso   1.00
C631   C     0.64756   0.77501   0.18647   0.00000  Uiso   1.00
H632   H     0.64914   0.74316   0.19781   0.00000  Uiso   1.00
H633   H     0.61256   0.77988   0.18372   0.00000  Uiso   1.00
H634   H     0.34365   0.77690   0.15013   0.00000  Uiso   1.00
C635   C     0.35035   0.88797   0.31652   0.00000  Uiso   1.00
H636   H     0.34311   0.92084   0.31176   0.00000  Uiso   1.00
H637   H     0.65840   0.87934   0.35278   0.00000  Uiso   1.00
H638   H     0.38766   0.88492   0.31315   0.00000  Uiso   1.00
Cl639  Cl    0.41682   0.77083   0.18146   0.00000  Uiso   1.00
Cl640  Cl    0.58311   0.89588   0.31850   0.00000  Uiso   1.00
C641   C     0.83487   0.91319   0.24619   0.00000  Uiso   1.00
C642   C     0.83122   0.75378   0.25501   0.00000  Uiso   1.00
C643   C     0.80721   0.88788   0.03972   0.00000  Uiso   1.00
C644   C     0.89031   0.81432   0.44268   0.00000  Uiso   1.00
C645   C     0.77836   0.90470   0.01810   0.00000  Uiso   1.00
C646   C     0.92342   0.80198   0.46213   0.00000  Uiso   1.00
C647   C     0.87589   0.97930   0.24609   0.00000  Uiso   1.00
C648   C     0.78801   0.68825   0.25955   0.00000  Uiso   1.00
C649   C     0.87005   0.68770   0.25959   0.00000  Uiso   1.00
C650   C     0.79334   0.97969   0.24670   0.00000  Uiso   1.00
C651   C     0.82855   0.70960   0.26091   0.00000  Uiso   1.00
C652   C     0.83582   0.95781   0.24361   0.00000  Uiso   1.00
C653   C     0.98942   0.80606   0.22004   0.00000  Uiso   1.00
C654   C     0.67674   0.85995   0.28030   0.00000  Uiso   1.00
C655   C     0.70387   0.80626   0.22016   0.00000  Uiso   1.00
C656   C     0.96277   0.86045   0.27961   0.00000  Uiso   1.00
C657   C     0.80216   0.83583   0.33863   0.00000  Uiso   1.00
C658   C     0.86504   0.83331   0.16103   0.00000  Uiso   1.00
C659   C     0.78288   0.84739   0.39018   0.00000  Uiso   1.00
C660   C     0.88663   0.83182   0.10799   0.00000  Uiso   1.00
C661   C     0.74231   0.89497   0.45901   0.00000  Uiso   1.00
C662   C     0.95119   0.81465   0.02840   0.00000  Uiso   1.00
C663   C     0.75339   0.88359   0.41131   0.00000  Uiso   1.00
C664   C     0.93761   0.82669   0.07723   0.00000  Uiso   1.00
C665   C     0.80543   0.82794   0.41583   0.00000  Uiso   1.00
C666   C     0.85338   0.83551   0.08709   0.00000  Uiso   1.00
C667   C     0.80949   0.84913   0.45500   0.00000  Uiso   1.00
C668   C     0.86933   0.83560   0.03790   0.00000  Uiso   1.00
C669   C     0.77544   0.88267   0.47858   0.00000  Uiso   1.00
C670   C     0.91526   0.81638   0.00904   0.00000  Uiso   1.00
C671   C     0.84600   0.83781   0.47128   0.00000  Uiso   1.00
C672   C     0.83909   0.85253   0.01765   0.00000  Uiso   1.00
H673   H     0.81431   0.83987   0.10913   0.00000  Uiso   1.00
H674   H     0.82332   0.79795   0.40222   0.00000  Uiso   1.00
N675   N     0.71426   0.83334   0.25001   0.00000  Uiso   1.00
N676   N     0.95241   0.83332   0.24999   0.00000  Uiso   1.00
O677   O     0.79512   0.89442   0.25000   0.00000  Uiso   1.00
O678   O     0.87154   0.77225   0.25000   0.00000  Uiso   1.00
O679   O     0.87157   0.89441   0.25000   0.00000  Uiso   1.00
O680   O     0.79510   0.77226   0.25000   0.00000  Uiso   1.00
O681   O     0.77328   0.83334   0.31613   0.00000  Uiso   1.00
O682   O     0.89339   0.83333   0.18388   0.00000  Uiso   1.00
O683   O     0.84972   0.83333   0.31612   0.00000  Uiso   1.00
O684   O     0.81695   0.83334   0.18388   0.00000  Uiso   1.00
Zn685  Zn    0.78229   0.83334   0.25000   0.00000  Uiso   1.00
Zn686  Zn    0.88438   0.83333   0.25000   0.00000  Uiso   1.00
C687   C     0.75723   0.94873   0.03318   0.00000  Uiso   1.00
H688   H     0.75479   0.96468   0.00318   0.00000  Uiso   1.00
H689   H     0.72064   0.94843   0.06383   0.00000  Uiso   1.00
H690   H     0.78189   0.96884   0.04313   0.00000  Uiso   1.00
C691   C     0.96294   0.76925   0.43436   0.00000  Uiso   1.00
H692   H     0.95081   0.74812   0.41203   0.00000  Uiso   1.00
H693   H     0.99727   0.78416   0.41079   0.00000  Uiso   1.00
H694   H     0.96994   0.74851   0.45868   0.00000  Uiso   1.00
C695   C     0.97834   0.83582   0.09323   0.00000  Uiso   1.00
H696   H     0.99818   0.80653   0.09247   0.00000  Uiso   1.00
H697   H     0.67168   0.85668   0.06817   0.00000  Uiso   1.00
H698   H     0.96637   0.85289   0.12816   0.00000  Uiso   1.00
C699   C     0.74203   0.91558   0.38323   0.00000  Uiso   1.00
H700   H     0.74883   0.94711   0.39504   0.00000  Uiso   1.00
H701   H     0.70263   0.91471   0.38997   0.00000  Uiso   1.00
H702   H     0.76698   0.91220   0.34496   0.00000  Uiso   1.00
Cl703  Cl    0.68535   0.92186   0.49267   0.00000  Uiso   1.00
Cl704  Cl    0.68129   0.80444   0.49168   0.00000  Uiso   1.00
Cl705  Cl    0.81024   0.91724   0.08901   0.00000  Uiso   1.00
Cl706  Cl    0.91324   0.80863   0.37958   0.00000  Uiso   1.00
Cl707  Cl    0.93611   0.95682   0.22669   0.00000  Uiso   1.00
Cl708  Cl    0.72825   0.71172   0.27870   0.00000  Uiso   1.00
Cl709  Cl    0.91247   0.71025   0.28009   0.00000  Uiso   1.00
Cl710  Cl    0.74865   0.95731   0.22912   0.00000  Uiso   1.00
C711   C     0.98089   0.77501   0.18647   0.00000  Uiso   1.00
H712   H     0.98248   0.74316   0.19781   0.00000  Uiso   1.00
H713   H     0.94589   0.77988   0.18372   0.00000  Uiso   1.00
H714   H     0.67698   0.77690   0.15013   0.00000  Uiso   1.00
C715   C     0.68369   0.88797   0.31652   0.00000  Uiso   1.00
H716   H     0.67644   0.92084   0.31176   0.00000  Uiso   1.00
H717   H     0.99173   0.87934   0.35278   0.00000  Uiso   1.00
H718   H     0.72099   0.88492   0.31315   0.00000  Uiso   1.00
Cl719  Cl    0.75016   0.77083   0.18146   0.00000  Uiso   1.00
Cl720  Cl    0.91645   0.89588   0.31850   0.00000  Uiso   1.00
C721   C     0.16820   0.24652   0.74619   0.00000  Uiso   1.00
C722   C     0.16455   0.08712   0.75501   0.00000  Uiso   1.00
C723   C     0.14055   0.22121   0.53972   0.00000  Uiso   1.00
C724   C     0.22364   0.14766   0.94268   0.00000  Uiso   1.00
C725   C     0.11170   0.23803   0.51810   0.00000  Uiso   1.00
C726   C     0.25675   0.13531   0.96213   0.00000  Uiso   1.00
C727   C     0.20923   0.31263   0.74609   0.00000  Uiso   1.00
C728   C     0.12134   0.02158   0.75955   0.00000  Uiso   1.00
C729   C     0.20338   0.02104   0.75959   0.00000  Uiso   1.00
C730   C     0.12667   0.31302   0.74670   0.00000  Uiso   1.00
C731   C     0.16188   0.04294   0.76091   0.00000  Uiso   1.00
C732   C     0.16915   0.29114   0.74361   0.00000  Uiso   1.00
C733   C     0.32275   0.13939   0.72004   0.00000  Uiso   1.00
C734   C     0.01008   0.19329   0.78030   0.00000  Uiso   1.00
C735   C     0.03720   0.13959   0.72016   0.00000  Uiso   1.00
C736   C     0.29610   0.19378   0.77961   0.00000  Uiso   1.00
C737   C     0.13549   0.16916   0.83863   0.00000  Uiso   1.00
C738   C     0.19837   0.16665   0.66103   0.00000  Uiso   1.00
C739   C     0.11621   0.18072   0.89018   0.00000  Uiso   1.00
C740   C     0.21996   0.16515   0.60799   0.00000  Uiso   1.00
C741   C     0.07564   0.22831   0.95901   0.00000  Uiso   1.00
C742   C     0.28453   0.14798   0.52840   0.00000  Uiso   1.00
C743   C     0.08673   0.21692   0.91131   0.00000  Uiso   1.00
C744   C     0.27095   0.16003   0.57723   0.00000  Uiso   1.00
C745   C     0.13876   0.16127   0.91583   0.00000  Uiso   1.00
C746   C     0.18672   0.16884   0.58709   0.00000  Uiso   1.00
C747   C     0.14282   0.18247   0.95500   0.00000  Uiso   1.00
C748   C     0.20267   0.16893   0.53790   0.00000  Uiso   1.00
C749   C     0.10878   0.21601   0.97858   0.00000  Uiso   1.00
C750   C     0.24859   0.14972   0.50904   0.00000  Uiso   1.00
C751   C     0.17933   0.17115   0.97128   0.00000  Uiso   1.00
C752   C     0.17242   0.18586   0.51765   0.00000  Uiso   1.00
H753   H     0.14764   0.17320   0.60913   0.00000  Uiso   1.00
H754   H     0.15665   0.13128   0.90222   0.00000  Uiso   1.00
N755   N     0.04759   0.16668   0.75001   0.00000  Uiso   1.00
N756   N     0.28574   0.16666   0.74999   0.00000  Uiso   1.00
O757   O     0.12846   0.22775   0.75000   0.00000  Uiso   1.00
O758   O     0.20488   0.10558   0.75000   0.00000  Uiso   1.00
O759   O     0.20490   0.22774   0.75000   0.00000  Uiso   1.00
O760   O     0.12843   0.10559   0.75000   0.00000  Uiso   1.00
O761   O     0.10661   0.16667   0.81613   0.00000  Uiso   1.00
O762   O     0.22672   0.16666   0.68388   0.00000  Uiso   1.00
O763   O     0.18305   0.16666   0.81612   0.00000  Uiso   1.00
O764   O     0.15028   0.16667   0.68388   0.00000  Uiso   1.00
Zn765  Zn    0.11562   0.16667   0.75000   0.00000  Uiso   1.00
Zn766  Zn    0.21771   0.16666   0.75000   0.00000  Uiso   1.00
C767   C     0.09057   0.28206   0.53318   0.00000  Uiso   1.00
H768   H     0.08812   0.29802   0.50318   0.00000  Uiso   1.00
H769   H     0.05397   0.28176   0.56383   0.00000  Uiso   1.00
H770   H     0.11522   0.30217   0.54313   0.00000  Uiso   1.00
C771   C     0.29627   0.10259   0.93436   0.00000  Uiso   1.00
H772   H     0.28414   0.08145   0.91203   0.00000  Uiso   1.00
H773   H     0.33060   0.11749   0.91079   0.00000  Uiso   1.00
H774   H     0.30327   0.08184   0.95868   0.00000  Uiso   1.00
C775   C     0.31167   0.16916   0.59323   0.00000  Uiso   1.00
H776   H     0.33151   0.13986   0.59247   0.00000  Uiso   1.00
H777   H     0.00502   0.19002   0.56817   0.00000  Uiso   1.00
H778   H     0.29971   0.18622   0.62816   0.00000  Uiso   1.00
C779   C     0.07536   0.24891   0.88323   0.00000  Uiso   1.00
H780   H     0.08216   0.28044   0.89504   0.00000  Uiso   1.00
H781   H     0.03596   0.24804   0.88997   0.00000  Uiso   1.00
H782   H     0.10031   0.24553   0.84496   0.00000  Uiso   1.00
Cl783  Cl    0.01868   0.25520   0.99267   0.00000  Uiso   1.00
Cl784  Cl    0.01462   0.13778   0.99168   0.00000  Uiso   1.00
Cl785  Cl    0.14357   0.25057   0.58901   0.00000  Uiso   1.00
Cl786  Cl    0.24657   0.14196   0.87958   0.00000  Uiso   1.00
Cl787  Cl    0.26944   0.29016   0.72669   0.00000  Uiso   1.00
Cl788  Cl    0.06158   0.04505   0.77870   0.00000  Uiso   1.00
Cl789  Cl    0.24580   0.04358   0.78009   0.00000  Uiso   1.00
Cl790  Cl    0.08199   0.29065   0.72912   0.00000  Uiso   1.00
C791   C     0.31422   0.10834   0.68647   0.00000  Uiso   1.00
H792   H     0.31581   0.07650   0.69781   0.00000  Uiso   1.00
H793   H     0.27923   0.11322   0.68372   0.00000  Uiso   1.00
H794   H     0.01032   0.11023   0.65013   0.00000  Uiso   1.00
C795   C     0.01702   0.22131   0.81652   0.00000  Uiso   1.00
H796   H     0.00978   0.25418   0.81176   0.00000  Uiso   1.00
H797   H     0.32506   0.21268   0.85278   0.00000  Uiso   1.00
H798   H     0.05433   0.21825   0.81315   0.00000  Uiso   1.00
Cl799  Cl    0.08349   0.10416   0.68146   0.00000  Uiso   1.00
Cl800  Cl    0.24978   0.22922   0.81850   0.00000  Uiso   1.00
C801   C     0.50154   0.24652   0.74619   0.00000  Uiso   1.00
C802   C     0.49789   0.08712   0.75501   0.00000  Uiso   1.00
C803   C     0.47388   0.22121   0.53972   0.00000  Uiso   1.00
C804   C     0.55697   0.14766   0.94268   0.00000  Uiso   1.00
C805   C     0.44503   0.23803   0.51810   0.00000  Uiso   1.00
C806   C     0.59009   0.13531   0.96213   0.00000  Uiso   1.00
C807   C     0.54256   0.31263   0.74609   0.00000  Uiso   1.00
C808   C     0.45467   0.02158   0.75955   0.00000  Uiso   1.00
C809   C     0.53671   0.02104   0.75959   0.00000  Uiso   1.00
C810   C     0.46001   0.31302   0.74670   0.00000  Uiso   1.00
C811   C     0.49521   0.04294   0.76091   0.00000  Uiso   1.00
C812   C     0.50249   0.29114   0.74361   0.00000  Uiso   1.00
C813   C     0.65609   0.13939   0.72004   0.00000  Uiso   1.00
C814   C     0.34341   0.19329   0.78030   0.00000  Uiso   1.00
C815   C     0.37053   0.13959   0.72016   0.00000  Uiso   1.00
C816   C     0.62943   0.19378   0.77961   0.00000  Uiso   1.00
C817   C     0.46882   0.16916   0.83863   0.00000  Uiso   1.00
C818   C     0.53171   0.16665   0.66103   0.00000  Uiso   1.00
C819   C     0.44955   0.18072   0.89018   0.00000  Uiso   1.00
C820   C     0.55329   0.16515   0.60799   0.00000  Uiso   1.00
C821   C     0.40898   0.22831   0.95901   0.00000  Uiso   1.00
C822   C     0.61786   0.14798   0.52840   0.00000  Uiso   1.00
C823   C     0.42006   0.21692   0.91131   0.00000  Uiso   1.00
C824   C     0.60428   0.16003   0.57723   0.00000  Uiso   1.00
C825   C     0.47210   0.16127   0.91583   0.00000  Uiso   1.00
C826   C     0.52005   0.16884   0.58709   0.00000  Uiso   1.00
C827   C     0.47615   0.18247   0.95500   0.00000  Uiso   1.00
C828   C     0.53600   0.16893   0.53790   0.00000  Uiso   1.00
C829   C     0.44211   0.21601   0.97858   0.00000  Uiso   1.00
C830   C     0.58193   0.14972   0.50904   0.00000  Uiso   1.00
C831   C     0.51266   0.17115   0.97128   0.00000  Uiso   1.00
C832   C     0.50575   0.18586   0.51765   0.00000  Uiso   1.00
H833   H     0.48097   0.17320   0.60913   0.00000  Uiso   1.00
H834   H     0.48998   0.13128   0.90222   0.00000  Uiso   1.00
N835   N     0.38093   0.16668   0.75001   0.00000  Uiso   1.00
N836   N     0.61907   0.16666   0.74999   0.00000  Uiso   1.00
O837   O     0.46179   0.22775   0.75000   0.00000  Uiso   1.00
O838   O     0.53821   0.10558   0.75000   0.00000  Uiso   1.00
O839   O     0.53823   0.22774   0.75000   0.00000  Uiso   1.00
O840   O     0.46177   0.10559   0.75000   0.00000  Uiso   1.00
O841   O     0.43994   0.16667   0.81613   0.00000  Uiso   1.00
O842   O     0.56006   0.16666   0.68388   0.00000  Uiso   1.00
O843   O     0.51639   0.16666   0.81612   0.00000  Uiso   1.00
O844   O     0.48361   0.16667   0.68388   0.00000  Uiso   1.00
Zn845  Zn    0.44896   0.16667   0.75000   0.00000  Uiso   1.00
Zn846  Zn    0.55104   0.16666   0.75000   0.00000  Uiso   1.00
C847   C     0.42390   0.28206   0.53318   0.00000  Uiso   1.00
H848   H     0.42145   0.29802   0.50318   0.00000  Uiso   1.00
H849   H     0.38731   0.28176   0.56383   0.00000  Uiso   1.00
H850   H     0.44855   0.30217   0.54313   0.00000  Uiso   1.00
C851   C     0.62960   0.10259   0.93436   0.00000  Uiso   1.00
H852   H     0.61747   0.08145   0.91203   0.00000  Uiso   1.00
H853   H     0.66394   0.11749   0.91079   0.00000  Uiso   1.00
H854   H     0.63660   0.08184   0.95868   0.00000  Uiso   1.00
C855   C     0.64501   0.16916   0.59323   0.00000  Uiso   1.00
H856   H     0.66485   0.13986   0.59247   0.00000  Uiso   1.00
H857   H     0.33835   0.19002   0.56817   0.00000  Uiso   1.00
H858   H     0.63304   0.18622   0.62816   0.00000  Uiso   1.00
C859   C     0.40870   0.24891   0.88323   0.00000  Uiso   1.00
H860   H     0.41550   0.28044   0.89504   0.00000  Uiso   1.00
H861   H     0.36930   0.24804   0.88997   0.00000  Uiso   1.00
H862   H     0.43365   0.24553   0.84496   0.00000  Uiso   1.00
Cl863  Cl    0.35201   0.25520   0.99267   0.00000  Uiso   1.00
Cl864  Cl    0.34795   0.13778   0.99168   0.00000  Uiso   1.00
Cl865  Cl    0.47690   0.25057   0.58901   0.00000  Uiso   1.00
Cl866  Cl    0.57990   0.14196   0.87958   0.00000  Uiso   1.00
Cl867  Cl    0.60277   0.29016   0.72669   0.00000  Uiso   1.00
Cl868  Cl    0.39492   0.04505   0.77870   0.00000  Uiso   1.00
Cl869  Cl    0.57913   0.04358   0.78009   0.00000  Uiso   1.00
Cl870  Cl    0.41532   0.29065   0.72912   0.00000  Uiso   1.00
C871   C     0.64756   0.10834   0.68647   0.00000  Uiso   1.00
H872   H     0.64914   0.07650   0.69781   0.00000  Uiso   1.00
H873   H     0.61256   0.11322   0.68372   0.00000  Uiso   1.00
H874   H     0.34365   0.11023   0.65013   0.00000  Uiso   1.00
C875   C     0.35035   0.22131   0.81652   0.00000  Uiso   1.00
H876   H     0.34311   0.25418   0.81176   0.00000  Uiso   1.00
H877   H     0.65840   0.21268   0.85278   0.00000  Uiso   1.00
H878   H     0.38766   0.21825   0.81315   0.00000  Uiso   1.00
Cl879  Cl    0.41682   0.10416   0.68146   0.00000  Uiso   1.00
Cl880  Cl    0.58311   0.22922   0.81850   0.00000  Uiso   1.00
C881   C     0.83487   0.24652   0.74619   0.00000  Uiso   1.00
C882   C     0.83122   0.08712   0.75501   0.00000  Uiso   1.00
C883   C     0.80721   0.22121   0.53972   0.00000  Uiso   1.00
C884   C     0.89031   0.14766   0.94268   0.00000  Uiso   1.00
C885   C     0.77836   0.23803   0.51810   0.00000  Uiso   1.00
C886   C     0.92342   0.13531   0.96213   0.00000  Uiso   1.00
C887   C     0.87589   0.31263   0.74609   0.00000  Uiso   1.00
C888   C     0.78801   0.02158   0.75955   0.00000  Uiso   1.00
C889   C     0.87005   0.02104   0.75959   0.00000  Uiso   1.00
C890   C     0.79334   0.31302   0.74670   0.00000  Uiso   1.00
C891   C     0.82855   0.04294   0.76091   0.00000  Uiso   1.00
C892   C     0.83582   0.29114   0.74361   0.00000  Uiso   1.00
C893   C     0.98942   0.13939   0.72004   0.00000  Uiso   1.00
C894   C     0.67674   0.19329   0.78030   0.00000  Uiso   1.00
C895   C     0.70387   0.13959   0.72016   0.00000  Uiso   1.00
C896   C     0.96277   0.19378   0.77961   0.00000  Uiso   1.00
C897   C     0.80216   0.16916   0.83863   0.00000  Uiso   1.00
C898   C     0.86504   0.16665   0.66103   0.00000  Uiso   1.00
C899   C     0.78288   0.18072   0.89018   0.00000  Uiso   1.00
C900   C     0.88663   0.16515   0.60799   0.00000  Uiso   1.00
C901   C     0.74231   0.22831   0.95901   0.00000  Uiso   1.00
C902   C     0.95119   0.14798   0.52840   0.00000  Uiso   1.00
C903   C     0.75339   0.21692   0.91131   0.00000  Uiso   1.00
C904   C     0.93761   0.16003   0.57723   0.00000  Uiso   1.00
C905   C     0.80543   0.16127   0.91583   0.00000  Uiso   1.00
C906   C     0.85338   0.16884   0.58709   0.00000  Uiso   1.00
C907   C     0.80949   0.18247   0.95500   0.00000  Uiso   1.00
C908   C     0.86933   0.16893   0.53790   0.00000  Uiso   1.00
C909   C     0.77544   0.21601   0.97858   0.00000  Uiso   1.00
C910   C     0.91526   0.14972   0.50904   0.00000  Uiso   1.00
C911   C     0.84600   0.17115   0.97128   0.00000  Uiso   1.00
C912   C     0.83909   0.18586   0.51765   0.00000  Uiso   1.00
H913   H     0.81431   0.17320   0.60913   0.00000  Uiso   1.00
H914   H     0.82332   0.13128   0.90222   0.00000  Uiso   1.00
N915   N     0.71426   0.16668   0.75001   0.00000  Uiso   1.00
N916   N     0.95241   0.16666   0.74999   0.00000  Uiso   1.00
O917   O     0.79512   0.22775   0.75000   0.00000  Uiso   1.00
O918   O     0.87154   0.10558   0.75000   0.00000  Uiso   1.00
O919   O     0.87157   0.22774   0.75000   0.00000  Uiso   1.00
O920   O     0.79510   0.10559   0.75000   0.00000  Uiso   1.00
O921   O     0.77328   0.16667   0.81613   0.00000  Uiso   1.00
O922   O     0.89339   0.16666   0.68388   0.00000  Uiso   1.00
O923   O     0.84972   0.16666   0.81612   0.00000  Uiso   1.00
O924   O     0.81695   0.16667   0.68388   0.00000  Uiso   1.00
Zn925  Zn    0.78229   0.16667   0.75000   0.00000  Uiso   1.00
Zn926  Zn    0.88438   0.16666   0.75000   0.00000  Uiso   1.00
C927   C     0.75723   0.28206   0.53318   0.00000  Uiso   1.00
H928   H     0.75479   0.29802   0.50318   0.00000  Uiso   1.00
H929   H     0.72064   0.28176   0.56383   0.00000  Uiso   1.00
H930   H     0.78189   0.30217   0.54313   0.00000  Uiso   1.00
C931   C     0.96294   0.10259   0.93436   0.00000  Uiso   1.00
H932   H     0.95081   0.08145   0.91203   0.00000  Uiso   1.00
H933   H     0.99727   0.11749   0.91079   0.00000  Uiso   1.00
H934   H     0.96994   0.08184   0.95868   0.00000  Uiso   1.00
C935   C     0.97834   0.16916   0.59323   0.00000  Uiso   1.00
H936   H     0.99818   0.13986   0.59247   0.00000  Uiso   1.00
H937   H     0.67168   0.19002   0.56817   0.00000  Uiso   1.00
H938   H     0.96637   0.18622   0.62816   0.00000  Uiso   1.00
C939   C     0.74203   0.24891   0.88323   0.00000  Uiso   1.00
H940   H     0.74883   0.28044   0.89504   0.00000  Uiso   1.00
H941   H     0.70263   0.24804   0.88997   0.00000  Uiso   1.00
H942   H     0.76698   0.24553   0.84496   0.00000  Uiso   1.00
Cl943  Cl    0.68535   0.25520   0.99267   0.00000  Uiso   1.00
Cl944  Cl    0.68129   0.13778   0.99168   0.00000  Uiso   1.00
Cl945  Cl    0.81024   0.25057   0.58901   0.00000  Uiso   1.00
Cl946  Cl    0.91324   0.14196   0.87958   0.00000  Uiso   1.00
Cl947  Cl    0.93611   0.29016   0.72669   0.00000  Uiso   1.00
Cl948  Cl    0.72825   0.04505   0.77870   0.00000  Uiso   1.00
Cl949  Cl    0.91247   0.04358   0.78009   0.00000  Uiso   1.00
Cl950  Cl    0.74865   0.29065   0.72912   0.00000  Uiso   1.00
C951   C     0.98089   0.10834   0.68647   0.00000  Uiso   1.00
H952   H     0.98248   0.07650   0.69781   0.00000  Uiso   1.00
H953   H     0.94589   0.11322   0.68372   0.00000  Uiso   1.00
H954   H     0.67698   0.11023   0.65013   0.00000  Uiso   1.00
C955   C     0.68369   0.22131   0.81652   0.00000  Uiso   1.00
H956   H     0.67644   0.25418   0.81176   0.00000  Uiso   1.00
H957   H     0.99173   0.21268   0.85278   0.00000  Uiso   1.00
H958   H     0.72099   0.21825   0.81315   0.00000  Uiso   1.00
Cl959  Cl    0.75016   0.10416   0.68146   0.00000  Uiso   1.00
Cl960  Cl    0.91645   0.22922   0.81850   0.00000  Uiso   1.00
C961   C     0.16820   0.57985   0.74619   0.00000  Uiso   1.00
C962   C     0.16455   0.42045   0.75501   0.00000  Uiso   1.00
C963   C     0.14055   0.55454   0.53972   0.00000  Uiso   1.00
C964   C     0.22364   0.48099   0.94268   0.00000  Uiso   1.00
C965   C     0.11170   0.57137   0.51810   0.00000  Uiso   1.00
C966   C     0.25675   0.46865   0.96213   0.00000  Uiso   1.00
C967   C     0.20923   0.64597   0.74609   0.00000  Uiso   1.00
C968   C     0.12134   0.35492   0.75955   0.00000  Uiso   1.00
C969   C     0.20338   0.35437   0.75959   0.00000  Uiso   1.00
C970   C     0.12667   0.64636   0.74670   0.00000  Uiso   1.00
C971   C     0.16188   0.37627   0.76091   0.00000  Uiso   1.00
C972   C     0.16915   0.62448   0.74361   0.00000  Uiso   1.00
C973   C     0.32275   0.47273   0.72004   0.00000  Uiso   1.00
C974   C     0.01008   0.52662   0.78030   0.00000  Uiso   1.00
C975   C     0.03720   0.47293   0.72016   0.00000  Uiso   1.00
C976   C     0.29610   0.52711   0.77961   0.00000  Uiso   1.00
C977   C     0.13549   0.50250   0.83863   0.00000  Uiso   1.00
C978   C     0.19837   0.49998   0.66103   0.00000  Uiso   1.00
C979   C     0.11621   0.51405   0.89018   0.00000  Uiso   1.00
C980   C     0.21996   0.49848   0.60799   0.00000  Uiso   1.00
C981   C     0.07564   0.56164   0.95901   0.00000  Uiso   1.00
C982   C     0.28453   0.48132   0.52840   0.00000  Uiso   1.00
C983   C     0.08673   0.55026   0.91131   0.00000  Uiso   1.00
C984   C     0.27095   0.49336   0.57723   0.00000  Uiso   1.00
C985   C     0.13876   0.49460   0.91583   0.00000  Uiso   1.00
C986   C     0.18672   0.50217   0.58709   0.00000  Uiso   1.00
C987   C     0.14282   0.51580   0.95500   0.00000  Uiso   1.00
C988   C     0.20267   0.50227   0.53790   0.00000  Uiso   1.00
C989   C     0.10878   0.54934   0.97858   0.00000  Uiso   1.00
C990   C     0.24859   0.48305   0.50904   0.00000  Uiso   1.00
C991   C     0.17933   0.50448   0.97128   0.00000  Uiso   1.00
C992   C     0.17242   0.51920   0.51765   0.00000  Uiso   1.00
H993   H     0.14764   0.50654   0.60913   0.00000  Uiso   1.00
H994   H     0.15665   0.46462   0.90222   0.00000  Uiso   1.00
N995   N     0.04759   0.50001   0.75001   0.00000  Uiso   1.00
N996   N     0.28574   0.49999   0.74999   0.00000  Uiso   1.00
O997   O     0.12846   0.56108   0.75000   0.00000  Uiso   1.00
O998   O     0.20488   0.43892   0.75000   0.00000  Uiso   1.00
O999   O     0.20490   0.56107   0.75000   0.00000  Uiso   1.00
O1000  O     0.12843   0.43893   0.75000   0.00000  Uiso   1.00
O1001  O     0.10661   0.50001   0.81613   0.00000  Uiso   1.00
O1002  O     0.22672   0.49999   0.68388   0.00000  Uiso   1.00
O1003  O     0.18305   0.50000   0.81612   0.00000  Uiso   1.00
O1004  O     0.15028   0.50000   0.68388   0.00000  Uiso   1.00
Zn1005 Zn    0.11562   0.50001   0.75000   0.00000  Uiso   1.00
Zn1006 Zn    0.21771   0.49999   0.75000   0.00000  Uiso   1.00
C1007  C     0.09057   0.61540   0.53318   0.00000  Uiso   1.00
H1008  H     0.08812   0.63135   0.50318   0.00000  Uiso   1.00
H1009  H     0.05397   0.61510   0.56383   0.00000  Uiso   1.00
H1010  H     0.11522   0.63550   0.54313   0.00000  Uiso   1.00
C1011  C     0.29627   0.43592   0.93436   0.00000  Uiso   1.00
H1012  H     0.28414   0.41478   0.91203   0.00000  Uiso   1.00
H1013  H     0.33060   0.45083   0.91079   0.00000  Uiso   1.00
H1014  H     0.30327   0.41518   0.95868   0.00000  Uiso   1.00
C1015  C     0.31167   0.50249   0.59323   0.00000  Uiso   1.00
H1016  H     0.33151   0.47320   0.59247   0.00000  Uiso   1.00
H1017  H     0.00502   0.52335   0.56817   0.00000  Uiso   1.00
H1018  H     0.29971   0.51955   0.62816   0.00000  Uiso   1.00
C1019  C     0.07536   0.58225   0.88323   0.00000  Uiso   1.00
H1020  H     0.08216   0.61378   0.89504   0.00000  Uiso   1.00
H1021  H     0.03596   0.58137   0.88997   0.00000  Uiso   1.00
H1022  H     0.10031   0.57886   0.84496   0.00000  Uiso   1.00
Cl1023 Cl    0.01868   0.58853   0.99267   0.00000  Uiso   1.00
Cl1024 Cl    0.01462   0.47111   0.99168   0.00000  Uiso   1.00
Cl1025 Cl    0.14357   0.58390   0.58901   0.00000  Uiso   1.00
Cl1026 Cl    0.24657   0.47529   0.87958   0.00000  Uiso   1.00
Cl1027 Cl    0.26944   0.62349   0.72669   0.00000  Uiso   1.00
Cl1028 Cl    0.06158   0.37839   0.77870   0.00000  Uiso   1.00
Cl1029 Cl    0.24580   0.37692   0.78009   0.00000  Uiso   1.00
Cl1030 Cl    0.08199   0.62398   0.72912   0.00000  Uiso   1.00
C1031  C     0.31422   0.44167   0.68647   0.00000  Uiso   1.00
H1032  H     0.31581   0.40983   0.69781   0.00000  Uiso   1.00
H1033  H     0.27923   0.44655   0.68372   0.00000  Uiso   1.00
H1034  H     0.01032   0.44356   0.65013   0.00000  Uiso   1.00
C1035  C     0.01702   0.55464   0.81652   0.00000  Uiso   1.00
H1036  H     0.00978   0.58751   0.81176   0.00000  Uiso   1.00
H1037  H     0.32506   0.54601   0.85278   0.00000  Uiso   1.00
H1038  H     0.05433   0.55159   0.81315   0.00000  Uiso   1.00
Cl1039 Cl    0.08349   0.43750   0.68146   0.00000  Uiso   1.00
Cl1040 Cl    0.24978   0.56255   0.81850   0.00000  Uiso   1.00
C1041  C     0.50154   0.57985   0.74619   0.00000  Uiso   1.00
C1042  C     0.49789   0.42045   0.75501   0.00000  Uiso   1.00
C1043  C     0.47388   0.55454   0.53972   0.00000  Uiso   1.00
C1044  C     0.55697   0.48099   0.94268   0.00000  Uiso   1.00
C1045  C     0.44503   0.57137   0.51810   0.00000  Uiso   1.00
C1046  C     0.59009   0.46865   0.96213   0.00000  Uiso   1.00
C1047  C     0.54256   0.64597   0.74609   0.00000  Uiso   1.00
C1048  C     0.45467   0.35492   0.75955   0.00000  Uiso   1.00
C1049  C     0.53671   0.35437   0.75959   0.00000  Uiso   1.00
C1050  C     0.46001   0.64636   0.74670   0.00000  Uiso   1.00
C1051  C     0.49521   0.37627   0.76091   0.00000  Uiso   1.00
C1052  C     0.50249   0.62448   0.74361   0.00000  Uiso   1.00
C1053  C     0.65609   0.47273   0.72004   0.00000  Uiso   1.00
C1054  C     0.34341   0.52662   0.78030   0.00000  Uiso   1.00
C1055  C     0.37053   0.47293   0.72016   0.00000  Uiso   1.00
C1056  C     0.62943   0.52711   0.77961   0.00000  Uiso   1.00
C1057  C     0.46882   0.50250   0.83863   0.00000  Uiso   1.00
C1058  C     0.53171   0.49998   0.66103   0.00000  Uiso   1.00
C1059  C     0.44955   0.51405   0.89018   0.00000  Uiso   1.00
C1060  C     0.55329   0.49848   0.60799   0.00000  Uiso   1.00
C1061  C     0.40898   0.56164   0.95901   0.00000  Uiso   1.00
C1062  C     0.61786   0.48132   0.52840   0.00000  Uiso   1.00
C1063  C     0.42006   0.55026   0.91131   0.00000  Uiso   1.00
C1064  C     0.60428   0.49336   0.57723   0.00000  Uiso   1.00
C1065  C     0.47210   0.49460   0.91583   0.00000  Uiso   1.00
C1066  C     0.52005   0.50217   0.58709   0.00000  Uiso   1.00
C1067  C     0.47615   0.51580   0.95500   0.00000  Uiso   1.00
C1068  C     0.53600   0.50227   0.53790   0.00000  Uiso   1.00
C1069  C     0.44211   0.54934   0.97858   0.00000  Uiso   1.00
C1070  C     0.58193   0.48305   0.50904   0.00000  Uiso   1.00
C1071  C     0.51266   0.50448   0.97128   0.00000  Uiso   1.00
C1072  C     0.50575   0.51920   0.51765   0.00000  Uiso   1.00
H1073  H     0.48097   0.50654   0.60913   0.00000  Uiso   1.00
H1074  H     0.48998   0.46462   0.90222   0.00000  Uiso   1.00
N1075  N     0.38093   0.50001   0.75001   0.00000  Uiso   1.00
N1076  N     0.61907   0.49999   0.74999   0.00000  Uiso   1.00
O1077  O     0.46179   0.56108   0.75000   0.00000  Uiso   1.00
O1078  O     0.53821   0.43892   0.75000   0.00000  Uiso   1.00
O1079  O     0.53823   0.56107   0.75000   0.00000  Uiso   1.00
O1080  O     0.46177   0.43893   0.75000   0.00000  Uiso   1.00
O1081  O     0.43994   0.50001   0.81613   0.00000  Uiso   1.00
O1082  O     0.56006   0.49999   0.68388   0.00000  Uiso   1.00
O1083  O     0.51639   0.50000   0.81612   0.00000  Uiso   1.00
O1084  O     0.48361   0.50000   0.68388   0.00000  Uiso   1.00
Zn1085 Zn    0.44896   0.50001   0.75000   0.00000  Uiso   1.00
Zn1086 Zn    0.55104   0.49999   0.75000   0.00000  Uiso   1.00
C1087  C     0.42390   0.61540   0.53318   0.00000  Uiso   1.00
H1088  H     0.42145   0.63135   0.50318   0.00000  Uiso   1.00
H1089  H     0.38731   0.61510   0.56383   0.00000  Uiso   1.00
H1090  H     0.44855   0.63550   0.54313   0.00000  Uiso   1.00
C1091  C     0.62960   0.43592   0.93436   0.00000  Uiso   1.00
H1092  H     0.61747   0.41478   0.91203   0.00000  Uiso   1.00
H1093  H     0.66394   0.45083   0.91079   0.00000  Uiso   1.00
H1094  H     0.63660   0.41518   0.95868   0.00000  Uiso   1.00
C1095  C     0.64501   0.50249   0.59323   0.00000  Uiso   1.00
H1096  H     0.66485   0.47320   0.59247   0.00000  Uiso   1.00
H1097  H     0.33835   0.52335   0.56817   0.00000  Uiso   1.00
H1098  H     0.63304   0.51955   0.62816   0.00000  Uiso   1.00
C1099  C     0.40870   0.58225   0.88323   0.00000  Uiso   1.00
H1100  H     0.41550   0.61378   0.89504   0.00000  Uiso   1.00
H1101  H     0.36930   0.58137   0.88997   0.00000  Uiso   1.00
H1102  H     0.43365   0.57886   0.84496   0.00000  Uiso   1.00
Cl1103 Cl    0.35201   0.58853   0.99267   0.00000  Uiso   1.00
Cl1104 Cl    0.34795   0.47111   0.99168   0.00000  Uiso   1.00
Cl1105 Cl    0.47690   0.58390   0.58901   0.00000  Uiso   1.00
Cl1106 Cl    0.57990   0.47529   0.87958   0.00000  Uiso   1.00
Cl1107 Cl    0.60277   0.62349   0.72669   0.00000  Uiso   1.00
Cl1108 Cl    0.39492   0.37839   0.77870   0.00000  Uiso   1.00
Cl1109 Cl    0.57913   0.37692   0.78009   0.00000  Uiso   1.00
Cl1110 Cl    0.41532   0.62398   0.72912   0.00000  Uiso   1.00
C1111  C     0.64756   0.44167   0.68647   0.00000  Uiso   1.00
H1112  H     0.64914   0.40983   0.69781   0.00000  Uiso   1.00
H1113  H     0.61256   0.44655   0.68372   0.00000  Uiso   1.00
H1114  H     0.34365   0.44356   0.65013   0.00000  Uiso   1.00
C1115  C     0.35035   0.55464   0.81652   0.00000  Uiso   1.00
H1116  H     0.34311   0.58751   0.81176   0.00000  Uiso   1.00
H1117  H     0.65840   0.54601   0.85278   0.00000  Uiso   1.00
H1118  H     0.38766   0.55159   0.81315   0.00000  Uiso   1.00
Cl1119 Cl    0.41682   0.43750   0.68146   0.00000  Uiso   1.00
Cl1120 Cl    0.58311   0.56255   0.81850   0.00000  Uiso   1.00
C1121  C     0.83487   0.57985   0.74619   0.00000  Uiso   1.00
C1122  C     0.83122   0.42045   0.75501   0.00000  Uiso   1.00
C1123  C     0.80721   0.55454   0.53972   0.00000  Uiso   1.00
C1124  C     0.89031   0.48099   0.94268   0.00000  Uiso   1.00
C1125  C     0.77836   0.57137   0.51810   0.00000  Uiso   1.00
C1126  C     0.92342   0.46865   0.96213   0.00000  Uiso   1.00
C1127  C     0.87589   0.64597   0.74609   0.00000  Uiso   1.00
C1128  C     0.78801   0.35492   0.75955   0.00000  Uiso   1.00
C1129  C     0.87005   0.35437   0.75959   0.00000  Uiso   1.00
C1130  C     0.79334   0.64636   0.74670   0.00000  Uiso   1.00
C1131  C     0.82855   0.37627   0.76091   0.00000  Uiso   1.00
C1132  C     0.83582   0.62448   0.74361   0.00000  Uiso   1.00
C1133  C     0.98942   0.47273   0.72004   0.00000  Uiso   1.00
C1134  C     0.67674   0.52662   0.78030   0.00000  Uiso   1.00
C1135  C     0.70387   0.47293   0.72016   0.00000  Uiso   1.00
C1136  C     0.96277   0.52711   0.77961   0.00000  Uiso   1.00
C1137  C     0.80216   0.50250   0.83863   0.00000  Uiso   1.00
C1138  C     0.86504   0.49998   0.66103   0.00000  Uiso   1.00
C1139  C     0.78288   0.51405   0.89018   0.00000  Uiso   1.00
C1140  C     0.88663   0.49848   0.60799   0.00000  Uiso   1.00
C1141  C     0.74231   0.56164   0.95901   0.00000  Uiso   1.00
C1142  C     0.95119   0.48132   0.52840   0.00000  Uiso   1.00
C1143  C     0.75339   0.55026   0.91131   0.00000  Uiso   1.00
C1144  C     0.93761   0.49336   0.57723   0.00000  Uiso   1.00
C1145  C     0.80543   0.49460   0.91583   0.00000  Uiso   1.00
C1146  C     0.85338   0.50217   0.58709   0.00000  Uiso   1.00
C1147  C     0.80949   0.51580   0.95500   0.00000  Uiso   1.00
C1148  C     0.86933   0.50227   0.53790   0.00000  Uiso   1.00
C1149  C     0.77544   0.54934   0.97858   0.00000  Uiso   1.00
C1150  C     0.91526   0.48305   0.50904   0.00000  Uiso   1.00
C1151  C     0.84600   0.50448   0.97128   0.00000  Uiso   1.00
C1152  C     0.83909   0.51920   0.51765   0.00000  Uiso   1.00
H1153  H     0.81431   0.50654   0.60913   0.00000  Uiso   1.00
H1154  H     0.82332   0.46462   0.90222   0.00000  Uiso   1.00
N1155  N     0.71426   0.50001   0.75001   0.00000  Uiso   1.00
N1156  N     0.95241   0.49999   0.74999   0.00000  Uiso   1.00
O1157  O     0.79512   0.56108   0.75000   0.00000  Uiso   1.00
O1158  O     0.87154   0.43892   0.75000   0.00000  Uiso   1.00
O1159  O     0.87157   0.56107   0.75000   0.00000  Uiso   1.00
O1160  O     0.79510   0.43893   0.75000   0.00000  Uiso   1.00
O1161  O     0.77328   0.50001   0.81613   0.00000  Uiso   1.00
O1162  O     0.89339   0.49999   0.68388   0.00000  Uiso   1.00
O1163  O     0.84972   0.50000   0.81612   0.00000  Uiso   1.00
O1164  O     0.81695   0.50000   0.68388   0.00000  Uiso   1.00
Zn1165 Zn    0.78229   0.50001   0.75000   0.00000  Uiso   1.00
Zn1166 Zn    0.88438   0.49999   0.75000   0.00000  Uiso   1.00
C1167  C     0.75723   0.61540   0.53318   0.00000  Uiso   1.00
H1168  H     0.75479   0.63135   0.50318   0.00000  Uiso   1.00
H1169  H     0.72064   0.61510   0.56383   0.00000  Uiso   1.00
H1170  H     0.78189   0.63550   0.54313   0.00000  Uiso   1.00
C1171  C     0.96294   0.43592   0.93436   0.00000  Uiso   1.00
H1172  H     0.95081   0.41478   0.91203   0.00000  Uiso   1.00
H1173  H     0.99727   0.45083   0.91079   0.00000  Uiso   1.00
H1174  H     0.96994   0.41518   0.95868   0.00000  Uiso   1.00
C1175  C     0.97834   0.50249   0.59323   0.00000  Uiso   1.00
H1176  H     0.99818   0.47320   0.59247   0.00000  Uiso   1.00
H1177  H     0.67168   0.52335   0.56817   0.00000  Uiso   1.00
H1178  H     0.96637   0.51955   0.62816   0.00000  Uiso   1.00
C1179  C     0.74203   0.58225   0.88323   0.00000  Uiso   1.00
H1180  H     0.74883   0.61378   0.89504   0.00000  Uiso   1.00
H1181  H     0.70263   0.58137   0.88997   0.00000  Uiso   1.00
H1182  H     0.76698   0.57886   0.84496   0.00000  Uiso   1.00
Cl1183 Cl    0.68535   0.58853   0.99267   0.00000  Uiso   1.00
Cl1184 Cl    0.68129   0.47111   0.99168   0.00000  Uiso   1.00
Cl1185 Cl    0.81024   0.58390   0.58901   0.00000  Uiso   1.00
Cl1186 Cl    0.91324   0.47529   0.87958   0.00000  Uiso   1.00
Cl1187 Cl    0.93611   0.62349   0.72669   0.00000  Uiso   1.00
Cl1188 Cl    0.72825   0.37839   0.77870   0.00000  Uiso   1.00
Cl1189 Cl    0.91247   0.37692   0.78009   0.00000  Uiso   1.00
Cl1190 Cl    0.74865   0.62398   0.72912   0.00000  Uiso   1.00
C1191  C     0.98089   0.44167   0.68647   0.00000  Uiso   1.00
H1192  H     0.98248   0.40983   0.69781   0.00000  Uiso   1.00
H1193  H     0.94589   0.44655   0.68372   0.00000  Uiso   1.00
H1194  H     0.67698   0.44356   0.65013   0.00000  Uiso   1.00
C1195  C     0.68369   0.55464   0.81652   0.00000  Uiso   1.00
H1196  H     0.67644   0.58751   0.81176   0.00000  Uiso   1.00
H1197  H     0.99173   0.54601   0.85278   0.00000  Uiso   1.00
H1198  H     0.72099   0.55159   0.81315   0.00000  Uiso   1.00
Cl1199 Cl    0.75016   0.43750   0.68146   0.00000  Uiso   1.00
Cl1200 Cl    0.91645   0.56255   0.81850   0.00000  Uiso   1.00
C1201  C     0.16820   0.91319   0.74619   0.00000  Uiso   1.00
C1202  C     0.16455   0.75378   0.75501   0.00000  Uiso   1.00
C1203  C     0.14055   0.88788   0.53972   0.00000  Uiso   1.00
C1204  C     0.22364   0.81432   0.94268   0.00000  Uiso   1.00
C1205  C     0.11170   0.90470   0.51810   0.00000  Uiso   1.00
C1206  C     0.25675   0.80198   0.96213   0.00000  Uiso   1.00
C1207  C     0.20923   0.97930   0.74609   0.00000  Uiso   1.00
C1208  C     0.12134   0.68825   0.75955   0.00000  Uiso   1.00
C1209  C     0.20338   0.68770   0.75959   0.00000  Uiso   1.00
C1210  C     0.12667   0.97969   0.74670   0.00000  Uiso   1.00
C1211  C     0.16188   0.70960   0.76091   0.00000  Uiso   1.00
C1212  C     0.16915   0.95781   0.74361   0.00000  Uiso   1.00
C1213  C     0.32275   0.80606   0.72004   0.00000  Uiso   1.00
C1214  C     0.01008   0.85995   0.78030   0.00000  Uiso   1.00
C1215  C     0.03720   0.80626   0.72016   0.00000  Uiso   1.00
C1216  C     0.29610   0.86045   0.77961   0.00000  Uiso   1.00
C1217  C     0.13549   0.83583   0.83863   0.00000  Uiso   1.00
C1218  C     0.19837   0.83331   0.66103   0.00000  Uiso   1.00
C1219  C     0.11621   0.84739   0.89018   0.00000  Uiso   1.00
C1220  C     0.21996   0.83182   0.60799   0.00000  Uiso   1.00
C1221  C     0.07564   0.89497   0.95901   0.00000  Uiso   1.00
C1222  C     0.28453   0.81465   0.52840   0.00000  Uiso   1.00
C1223  C     0.08673   0.88359   0.91131   0.00000  Uiso   1.00
C1224  C     0.27095   0.82669   0.57723   0.00000  Uiso   1.00
C1225  C     0.13876   0.82794   0.91583   0.00000  Uiso   1.00
C1226  C     0.18672   0.83551   0.58709   0.00000  Uiso   1.00
C1227  C     0.14282   0.84913   0.95500   0.00000  Uiso   1.00
C1228  C     0.20267   0.83560   0.53790   0.00000  Uiso   1.00
C1229  C     0.10878   0.88267   0.97858   0.00000  Uiso   1.00
C1230  C     0.24859   0.81638   0.50904   0.00000  Uiso   1.00
C1231  C     0.17933   0.83781   0.97128   0.00000  Uiso   1.00
C1232  C     0.17242   0.85253   0.51765   0.00000  Uiso   1.00
H1233  H     0.14764   0.83987   0.60913   0.00000  Uiso   1.00
H1234  H     0.15665   0.79795   0.90222   0.00000  Uiso   1.00
N1235  N     0.04759   0.83334   0.75001   0.00000  Uiso   1.00
N1236  N     0.28574   0.83332   0.74999   0.00000  Uiso   1.00
O1237  O     0.12846   0.89442   0.75000   0.00000  Uiso   1.00
O1238  O     0.20488   0.77225   0.75000   0.00000  Uiso   1.00
O1239  O     0.20490   0.89441   0.75000   0.00000  Uiso   1.00
O1240  O     0.12843   0.77226   0.75000   0.00000  Uiso   1.00
O1241  O     0.10661   0.83334   0.81613   0.00000  Uiso   1.00
O1242  O     0.22672   0.83333   0.68388   0.00000  Uiso   1.00
O1243  O     0.18305   0.83333   0.81612   0.00000  Uiso   1.00
O1244  O     0.15028   0.83334   0.68388   0.00000  Uiso   1.00
Zn1245 Zn    0.11562   0.83334   0.75000   0.00000  Uiso   1.00
Zn1246 Zn    0.21771   0.83333   0.75000   0.00000  Uiso   1.00
C1247  C     0.09057   0.94873   0.53318   0.00000  Uiso   1.00
H1248  H     0.08812   0.96468   0.50318   0.00000  Uiso   1.00
H1249  H     0.05397   0.94843   0.56383   0.00000  Uiso   1.00
H1250  H     0.11522   0.96884   0.54313   0.00000  Uiso   1.00
C1251  C     0.29627   0.76925   0.93436   0.00000  Uiso   1.00
H1252  H     0.28414   0.74812   0.91203   0.00000  Uiso   1.00
H1253  H     0.33060   0.78416   0.91079   0.00000  Uiso   1.00
H1254  H     0.30327   0.74851   0.95868   0.00000  Uiso   1.00
C1255  C     0.31167   0.83582   0.59323   0.00000  Uiso   1.00
H1256  H     0.33151   0.80653   0.59247   0.00000  Uiso   1.00
H1257  H     0.00502   0.85668   0.56817   0.00000  Uiso   1.00
H1258  H     0.29971   0.85289   0.62816   0.00000  Uiso   1.00
C1259  C     0.07536   0.91558   0.88323   0.00000  Uiso   1.00
H1260  H     0.08216   0.94711   0.89504   0.00000  Uiso   1.00
H1261  H     0.03596   0.91471   0.88997   0.00000  Uiso   1.00
H1262  H     0.10031   0.91220   0.84496   0.00000  Uiso   1.00
Cl1263 Cl    0.01868   0.92186   0.99267   0.00000  Uiso   1.00
Cl1264 Cl    0.01462   0.80444   0.99168   0.00000  Uiso   1.00
Cl1265 Cl    0.14357   0.91724   0.58901   0.00000  Uiso   1.00
Cl1266 Cl    0.24657   0.80863   0.87958   0.00000  Uiso   1.00
Cl1267 Cl    0.26944   0.95682   0.72669   0.00000  Uiso   1.00
Cl1268 Cl    0.06158   0.71172   0.77870   0.00000  Uiso   1.00
Cl1269 Cl    0.24580   0.71025   0.78009   0.00000  Uiso   1.00
Cl1270 Cl    0.08199   0.95731   0.72912   0.00000  Uiso   1.00
C1271  C     0.31422   0.77501   0.68647   0.00000  Uiso   1.00
H1272  H     0.31581   0.74316   0.69781   0.00000  Uiso   1.00
H1273  H     0.27923   0.77988   0.68372   0.00000  Uiso   1.00
H1274  H     0.01032   0.77690   0.65013   0.00000  Uiso   1.00
C1275  C     0.01702   0.88797   0.81652   0.00000  Uiso   1.00
H1276  H     0.00978   0.92084   0.81176   0.00000  Uiso   1.00
H1277  H     0.32506   0.87934   0.85278   0.00000  Uiso   1.00
H1278  H     0.05433   0.88492   0.81315   0.00000  Uiso   1.00
Cl1279 Cl    0.08349   0.77083   0.68146   0.00000  Uiso   1.00
Cl1280 Cl    0.24978   0.89588   0.81850   0.00000  Uiso   1.00
C1281  C     0.50154   0.91319   0.74619   0.00000  Uiso   1.00
C1282  C     0.49789   0.75378   0.75501   0.00000  Uiso   1.00
C1283  C     0.47388   0.88788   0.53972   0.00000  Uiso   1.00
C1284  C     0.55697   0.81432   0.94268   0.00000  Uiso   1.00
C1285  C     0.44503   0.90470   0.51810   0.00000  Uiso   1.00
C1286  C     0.59009   0.80198   0.96213   0.00000  Uiso   1.00
C1287  C     0.54256   0.97930   0.74609   0.00000  Uiso   1.00
C1288  C     0.45467   0.68825   0.75955   0.00000  Uiso   1.00
C1289  C     0.53671   0.68770   0.75959   0.00000  Uiso   1.00
C1290  C     0.46001   0.97969   0.74670   0.00000  Uiso   1.00
C1291  C     0.49521   0.70960   0.76091   0.00000  Uiso   1.00
C1292  C     0.50249   0.95781   0.74361   0.00000  Uiso   1.00
C1293  C     0.65609   0.80606   0.72004   0.00000  Uiso   1.00
C1294  C     0.34341   0.85995   0.78030   0.00000  Uiso   1.00
C1295  C     0.37053   0.80626   0.72016   0.00000  Uiso   1.00
C1296  C     0.62943   0.86045   0.77961   0.00000  Uiso   1.00
C1297  C     0.46882   0.83583   0.83863   0.00000  Uiso   1.00
C1298  C     0.53171   0.83331   0.66103   0.00000  Uiso   1.00
C1299  C     0.44955   0.84739   0.89018   0.00000  Uiso   1.00
C1300  C     0.55329   0.83182   0.60799   0.00000  Uiso   1.00
C1301  C     0.40898   0.89497   0.95901   0.00000  Uiso   1.00
C1302  C     0.61786   0.81465   0.52840   0.00000  Uiso   1.00
C1303  C     0.42006   0.88359   0.91131   0.00000  Uiso   1.00
C1304  C     0.60428   0.82669   0.57723   0.00000  Uiso   1.00
C1305  C     0.47210   0.82794   0.91583   0.00000  Uiso   1.00
C1306  C     0.52005   0.83551   0.58709   0.00000  Uiso   1.00
C1307  C     0.47615   0.84913   0.95500   0.00000  Uiso   1.00
C1308  C     0.53600   0.83560   0.53790   0.00000  Uiso   1.00
C1309  C     0.44211   0.88267   0.97858   0.00000  Uiso   1.00
C1310  C     0.58193   0.81638   0.50904   0.00000  Uiso   1.00
C1311  C     0.51266   0.83781   0.97128   0.00000  Uiso   1.00
C1312  C     0.50575   0.85253   0.51765   0.00000  Uiso   1.00
H1313  H     0.48097   0.83987   0.60913   0.00000  Uiso   1.00
H1314  H     0.48998   0.79795   0.90222   0.00000  Uiso   1.00
N1315  N     0.38093   0.83334   0.75001   0.00000  Uiso   1.00
N1316  N     0.61907   0.83332   0.74999   0.00000  Uiso   1.00
O1317  O     0.46179   0.89442   0.75000   0.00000  Uiso   1.00
O1318  O     0.53821   0.77225   0.75000   0.00000  Uiso   1.00
O1319  O     0.53823   0.89441   0.75000   0.00000  Uiso   1.00
O1320  O     0.46177   0.77226   0.75000   0.00000  Uiso   1.00
O1321  O     0.43994   0.83334   0.81613   0.00000  Uiso   1.00
O1322  O     0.56006   0.83333   0.68388   0.00000  Uiso   1.00
O1323  O     0.51639   0.83333   0.81612   0.00000  Uiso   1.00
O1324  O     0.48361   0.83334   0.68388   0.00000  Uiso   1.00
Zn1325 Zn    0.44896   0.83334   0.75000   0.00000  Uiso   1.00
Zn1326 Zn    0.55104   0.83333   0.75000   0.00000  Uiso   1.00
C1327  C     0.42390   0.94873   0.53318   0.00000  Uiso   1.00
H1328  H     0.42145   0.96468   0.50318   0.00000  Uiso   1.00
H1329  H     0.38731   0.94843   0.56383   0.00000  Uiso   1.00
H1330  H     0.44855   0.96884   0.54313   0.00000  Uiso   1.00
C1331  C     0.62960   0.76925   0.93436   0.00000  Uiso   1.00
H1332  H     0.61747   0.74812   0.91203   0.00000  Uiso   1.00
H1333  H     0.66394   0.78416   0.91079   0.00000  Uiso   1.00
H1334  H     0.63660   0.74851   0.95868   0.00000  Uiso   1.00
C1335  C     0.64501   0.83582   0.59323   0.00000  Uiso   1.00
H1336  H     0.66485   0.80653   0.59247   0.00000  Uiso   1.00
H1337  H     0.33835   0.85668   0.56817   0.00000  Uiso   1.00
H1338  H     0.63304   0.85289   0.62816   0.00000  Uiso   1.00
C1339  C     0.40870   0.91558   0.88323   0.00000  Uiso   1.00
H1340  H     0.41550   0.94711   0.89504   0.00000  Uiso   1.00
H1341  H     0.36930   0.91471   0.88997   0.00000  Uiso   1.00
H1342  H     0.43365   0.91220   0.84496   0.00000  Uiso   1.00
Cl1343 Cl    0.35201   0.92186   0.99267   0.00000  Uiso   1.00
Cl1344 Cl    0.34795   0.80444   0.99168   0.00000  Uiso   1.00
Cl1345 Cl    0.47690   0.91724   0.58901   0.00000  Uiso   1.00
Cl1346 Cl    0.57990   0.80863   0.87958   0.00000  Uiso   1.00
Cl1347 Cl    0.60277   0.95682   0.72669   0.00000  Uiso   1.00
Cl1348 Cl    0.39492   0.71172   0.77870   0.00000  Uiso   1.00
Cl1349 Cl    0.57913   0.71025   0.78009   0.00000  Uiso   1.00
Cl1350 Cl    0.41532   0.95731   0.72912   0.00000  Uiso   1.00
C1351  C     0.64756   0.77501   0.68647   0.00000  Uiso   1.00
H1352  H     0.64914   0.74316   0.69781   0.00000  Uiso   1.00
H1353  H     0.61256   0.77988   0.68372   0.00000  Uiso   1.00
H1354  H     0.34365   0.77690   0.65013   0.00000  Uiso   1.00
C1355  C     0.35035   0.88797   0.81652   0.00000  Uiso   1.00
H1356  H     0.34311   0.92084   0.81176   0.00000  Uiso   1.00
H1357  H     0.65840   0.87934   0.85278   0.00000  Uiso   1.00
H1358  H     0.38766   0.88492   0.81315   0.00000  Uiso   1.00
Cl1359 Cl    0.41682   0.77083   0.68146   0.00000  Uiso   1.00
Cl1360 Cl    0.58311   0.89588   0.81850   0.00000  Uiso   1.00
C1361  C     0.83487   0.91319   0.74619   0.00000  Uiso   1.00
C1362  C     0.83122   0.75378   0.75501   0.00000  Uiso   1.00
C1363  C     0.80721   0.88788   0.53972   0.00000  Uiso   1.00
C1364  C     0.89031   0.81432   0.94268   0.00000  Uiso   1.00
C1365  C     0.77836   0.90470   0.51810   0.00000  Uiso   1.00
C1366  C     0.92342   0.80198   0.96213   0.00000  Uiso   1.00
C1367  C     0.87589   0.97930   0.74609   0.00000  Uiso   1.00
C1368  C     0.78801   0.68825   0.75955   0.00000  Uiso   1.00
C1369  C     0.87005   0.68770   0.75959   0.00000  Uiso   1.00
C1370  C     0.79334   0.97969   0.74670   0.00000  Uiso   1.00
C1371  C     0.82855   0.70960   0.76091   0.00000  Uiso   1.00
C1372  C     0.83582   0.95781   0.74361   0.00000  Uiso   1.00
C1373  C     0.98942   0.80606   0.72004   0.00000  Uiso   1.00
C1374  C     0.67674   0.85995   0.78030   0.00000  Uiso   1.00
C1375  C     0.70387   0.80626   0.72016   0.00000  Uiso   1.00
C1376  C     0.96277   0.86045   0.77961   0.00000  Uiso   1.00
C1377  C     0.80216   0.83583   0.83863   0.00000  Uiso   1.00
C1378  C     0.86504   0.83331   0.66103   0.00000  Uiso   1.00
C1379  C     0.78288   0.84739   0.89018   0.00000  Uiso   1.00
C1380  C     0.88663   0.83182   0.60799   0.00000  Uiso   1.00
C1381  C     0.74231   0.89497   0.95901   0.00000  Uiso   1.00
C1382  C     0.95119   0.81465   0.52840   0.00000  Uiso   1.00
C1383  C     0.75339   0.88359   0.91131   0.00000  Uiso   1.00
C1384  C     0.93761   0.82669   0.57723   0.00000  Uiso   1.00
C1385  C     0.80543   0.82794   0.91583   0.00000  Uiso   1.00
C1386  C     0.85338   0.83551   0.58709   0.00000  Uiso   1.00
C1387  C     0.80949   0.84913   0.95500   0.00000  Uiso   1.00
C1388  C     0.86933   0.83560   0.53790   0.00000  Uiso   1.00
C1389  C     0.77544   0.88267   0.97858   0.00000  Uiso   1.00
C1390  C     0.91526   0.81638   0.50904   0.00000  Uiso   1.00
C1391  C     0.84600   0.83781   0.97128   0.00000  Uiso   1.00
C1392  C     0.83909   0.85253   0.51765   0.00000  Uiso   1.00
H1393  H     0.81431   0.83987   0.60913   0.00000  Uiso   1.00
H1394  H     0.82332   0.79795   0.90222   0.00000  Uiso   1.00
N1395  N     0.71426   0.83334   0.75001   0.00000  Uiso   1.00
N1396  N     0.95241   0.83332   0.74999   0.00000  Uiso   1.00
O1397  O     0.79512   0.89442   0.75000   0.00000  Uiso   1.00
O1398  O     0.87154   0.77225   0.75000   0.00000  Uiso   1.00
O1399  O     0.87157   0.89441   0.75000   0.00000  Uiso   1.00
O1400  O     0.79510   0.77226   0.75000   0.00000  Uiso   1.00
O1401  O     0.77328   0.83334   0.81613   0.00000  Uiso   1.00
O1402  O     0.89339   0.83333   0.68388   0.00000  Uiso   1.00
O1403  O     0.84972   0.83333   0.81612   0.00000  Uiso   1.00
O1404  O     0.81695   0.83334   0.68388   0.00000  Uiso   1.00
Zn1405 Zn    0.78229   0.83334   0.75000   0.00000  Uiso   1.00
Zn1406 Zn    0.88438   0.83333   0.75000   0.00000  Uiso   1.00
C1407  C     0.75723   0.94873   0.53318   0.00000  Uiso   1.00
H1408  H     0.75479   0.96468   0.50318   0.00000  Uiso   1.00
H1409  H     0.72064   0.94843   0.56383   0.00000  Uiso   1.00
H1410  H     0.78189   0.96884   0.54313   0.00000  Uiso   1.00
C1411  C     0.96294   0.76925   0.93436   0.00000  Uiso   1.00
H1412  H     0.95081   0.74812   0.91203   0.00000  Uiso   1.00
H1413  H     0.99727   0.78416   0.91079   0.00000  Uiso   1.00
H1414  H     0.96994   0.74851   0.95868   0.00000  Uiso   1.00
C1415  C     0.97834   0.83582   0.59323   0.00000  Uiso   1.00
H1416  H     0.99818   0.80653   0.59247   0.00000  Uiso   1.00
H1417  H     0.67168   0.85668   0.56817   0.00000  Uiso   1.00
H1418  H     0.96637   0.85289   0.62816   0.00000  Uiso   1.00
C1419  C     0.74203   0.91558   0.88323   0.00000  Uiso   1.00
H1420  H     0.74883   0.94711   0.89504   0.00000  Uiso   1.00
H1421  H     0.70263   0.91471   0.88997   0.00000  Uiso   1.00
H1422  H     0.76698   0.91220   0.84496   0.00000  Uiso   1.00
Cl1423 Cl    0.68535   0.92186   0.99267   0.00000  Uiso   1.00
Cl1424 Cl    0.68129   0.80444   0.99168   0.00000  Uiso   1.00
Cl1425 Cl    0.81024   0.91724   0.58901   0.00000  Uiso   1.00
Cl1426 Cl    0.91324   0.80863   0.87958   0.00000  Uiso   1.00
Cl1427 Cl    0.93611   0.95682   0.72669   0.00000  Uiso   1.00
Cl1428 Cl    0.72825   0.71172   0.77870   0.00000  Uiso   1.00
Cl1429 Cl    0.91247   0.71025   0.78009   0.00000  Uiso   1.00
Cl1430 Cl    0.74865   0.95731   0.72912   0.00000  Uiso   1.00
C1431  C     0.98089   0.77501   0.68647   0.00000  Uiso   1.00
H1432  H     0.98248   0.74316   0.69781   0.00000  Uiso   1.00
H1433  H     0.94589   0.77988   0.68372   0.00000  Uiso   1.00
H1434  H     0.67698   0.77690   0.65013   0.00000  Uiso   1.00
C1435  C     0.68369   0.88797   0.81652   0.00000  Uiso   1.00
H1436  H     0.67644   0.92084   0.81176   0.00000  Uiso   1.00
H1437  H     0.99173   0.87934   0.85278   0.00000  Uiso   1.00
H1438  H     0.72099   0.88492   0.81315   0.00000  Uiso   1.00
Cl1439 Cl    0.75016   0.77083   0.68146   0.00000  Uiso   1.00
Cl1440 Cl    0.91645   0.89588   0.81850   0.00000  Uiso   1.00
loop_
_geom_bond_atom_site_label_1
_geom_bond_atom_site_label_2
_geom_bond_distance
_geom_bond_site_symmetry_2
_ccdc_geom_bond_type
C1     O37     1.298   .     A
C1     C12     1.445   .     S
C1     O39     1.297   .     A
C2     C11     1.444   .     S
C2     O38     1.299   .     A
C2     O40     1.295   .     A
C3     Cl65    1.786   .     S
C3     C5      1.408   .     A
C3     C32     1.429   .     A
C4     C6      1.414   .     A
C4     Cl66    1.776   .     S
C4     C31     1.434   .     A
C5     C47     1.520   .     S
C5     C749    1.415   1_554 S
C6     C51     1.516   .     S
C6     C750    1.418   .     S
C7     C12     1.412   .     A
C7     Cl67    1.777   .     S
C7     C249    1.378   .     S
C8     Cl68    1.779   .     S
C8     C11     1.410   .     A
C8     C490    1.379   1_545 S
C9     Cl69    1.776   .     S
C9     C11     1.405   .     A
C9     C487    1.378   1_545 S
C10    C12     1.411   .     A
C10    Cl70    1.778   .     S
C10    C248    1.379   .     S
C13    N36     1.382   .     A
C13    C71     1.503   .     S
C13    C95     1.426   .     S
C14    N35     1.380   .     A
C14    C75     1.484   .     S
C14    C176    1.419   1_455 S
C15    Cl79    1.766   .     S
C15    N35     1.367   .     A
C15    C173    1.426   1_455 S
C16    N36     1.362   .     A
C16    Cl80    1.769   .     S
C16    C94     1.419   .     S
C17    O43     1.295   .     A
C17    C19     1.477   .     S
C17    O41     1.311   .     A
C18    O42     1.305   .     A
C18    O44     1.310   .     A
C18    C20     1.488   .     S
C19    C23     1.414   .     A
C19    C25     1.397   .     A
C20    C24     1.424   .     A
C20    C26     1.395   .     A
C21    C29     1.417   .     A
C21    C23     1.397   .     A
C21    Cl63    1.774   .     S
C22    C24     1.421   .     A
C22    C30     1.428   .     A
C22    Cl864   1.775   1_554 S
C23    C59     1.501   .     S
C24    C55     1.513   .     S
C25    H34     1.079   .     S
C25    C27     1.408   .     A
C26    H33     1.083   .     S
C26    C28     1.390   .     A
C27    C29     1.424   .     A
C27    C31     1.426   .     A
C28    C32     1.412   .     A
C28    C30     1.406   .     A
C29    C725    1.415   .     S
C30    C726    1.418   1_554 S
C31    C752    1.415   .     S
C32    C751    1.415   1_554 S
N35    Zn45    2.028   .     S
N36    Zn46    2.028   .     S
O37    Zn45    2.010   .     S
O38    Zn46    2.010   .     S
O39    Zn46    2.005   .     S
O40    Zn45    2.005   .     S
O41    Zn45    1.944   .     S
O42    Zn46    1.944   .     S
O43    Zn46    1.867   .     S
O44    Zn45    1.867   .     S
C47    H49     1.110   .     S
C47    H50     1.108   .     S
C47    H48     1.108   .     S
C51    H52     1.110   .     S
C51    H53     1.111   .     S
C51    H54     1.109   .     S
C55    H56     1.105   .     S
C55    H58     1.101   .     S
C55    H137    1.110   .     S
H57    C215    1.110   1_455 S
C59    H60     1.112   .     S
C59    H61     1.106   .     S
C59    H62     1.104   .     S
Cl64   C902    1.775   1_455 S
C71    H73     1.092   .     S
C71    H72     1.108   .     S
C71    H154    1.106   .     S
H74    C231    1.106   1_455 S
C75    H78     1.077   .     S
C75    H76     1.110   .     S
C75    H237    1.111   1_455 S
H77    C155    1.111   .     S
C81    O117    1.298   .     A
C81    C92     1.445   .     S
C81    O119    1.297   .     A
C82    C91     1.444   .     S
C82    O118    1.299   .     A
C82    O120    1.295   .     A
C83    Cl145   1.786   .     S
C83    C85     1.408   .     A
C83    C112    1.429   .     A
C84    C86     1.414   .     A
C84    Cl146   1.776   .     S
C84    C111    1.434   .     A
C85    C127    1.520   .     S
C85    C829    1.415   1_554 S
C86    C131    1.516   .     S
C86    C830    1.418   .     S
C87    C92     1.412   .     A
C87    Cl147   1.777   .     S
C87    C329    1.378   .     S
C88    Cl148   1.779   .     S
C88    C91     1.410   .     A
C88    C570    1.379   1_545 S
C89    Cl149   1.776   .     S
C89    C91     1.405   .     A
C89    C567    1.378   1_545 S
C90    C92     1.411   .     A
C90    Cl150   1.778   .     S
C90    C328    1.379   .     S
C93    N116    1.382   .     A
C93    C151    1.503   .     S
C93    C175    1.426   .     S
C94    N115    1.380   .     A
C94    C155    1.484   .     S
C95    Cl159   1.766   .     S
C95    N115    1.367   .     A
C96    N116    1.362   .     A
C96    Cl160   1.769   .     S
C96    C174    1.419   .     S
C97    O123    1.295   .     A
C97    C99     1.477   .     S
C97    O121    1.311   .     A
C98    O122    1.305   .     A
C98    O124    1.310   .     A
C98    C100    1.488   .     S
C99    C103    1.414   .     A
C99    C105    1.397   .     A
C100   C104    1.424   .     A
C100   C106    1.395   .     A
C101   C109    1.417   .     A
C101   C103    1.397   .     A
C101   Cl143   1.774   .     S
C102   C104    1.421   .     A
C102   C110    1.428   .     A
C102   Cl944   1.775   1_554 S
C103   C139    1.501   .     S
C104   C135    1.513   .     S
C105   H114    1.079   .     S
C105   C107    1.408   .     A
C106   H113    1.083   .     S
C106   C108    1.390   .     A
C107   C109    1.424   .     A
C107   C111    1.426   .     A
C108   C112    1.412   .     A
C108   C110    1.406   .     A
C109   C805    1.415   .     S
C110   C806    1.418   1_554 S
C111   C832    1.415   .     S
C112   C831    1.415   1_554 S
N115   Zn125   2.028   .     S
N116   Zn126   2.028   .     S
O117   Zn125   2.010   .     S
O118   Zn126   2.010   .     S
O119   Zn126   2.005   .     S
O120   Zn125   2.005   .     S
O121   Zn125   1.944   .     S
O122   Zn126   1.944   .     S
O123   Zn126   1.867   .     S
O124   Zn125   1.867   .     S
C127   H129    1.110   .     S
C127   H130    1.108   .     S
C127   H128    1.108   .     S
C131   H132    1.110   .     S
C131   H133    1.111   .     S
C131   H134    1.109   .     S
C135   H136    1.105   .     S
C135   H138    1.101   .     S
C135   H217    1.110   .     S
C139   H140    1.112   .     S
C139   H141    1.106   .     S
C139   H142    1.104   .     S
Cl144  C742    1.775   .     S
C151   H153    1.092   .     S
C151   H152    1.108   .     S
C151   H234    1.106   .     S
C155   H158    1.077   .     S
C155   H156    1.110   .     S
H157   C235    1.111   .     S
C161   O197    1.298   .     A
C161   C172    1.445   .     S
C161   O199    1.297   .     A
C162   C171    1.444   .     S
C162   O198    1.299   .     A
C162   O200    1.295   .     A
C163   Cl225   1.786   .     S
C163   C165    1.408   .     A
C163   C192    1.429   .     A
C164   C166    1.414   .     A
C164   Cl226   1.776   .     S
C164   C191    1.434   .     A
C165   C207    1.520   .     S
C165   C909    1.415   1_554 S
C166   C211    1.516   .     S
C166   C910    1.418   .     S
C167   C172    1.412   .     A
C167   Cl227   1.777   .     S
C167   C409    1.378   .     S
C168   Cl228   1.779   .     S
C168   C171    1.410   .     A
C168   C650    1.379   1_545 S
C169   Cl229   1.776   .     S
C169   C171    1.405   .     A
C169   C647    1.378   1_545 S
C170   C172    1.411   .     A
C170   Cl230   1.778   .     S
C170   C408    1.379   .     S
C173   N196    1.382   .     A
C173   C231    1.503   .     S
C173   C15     1.426   1_655 S
C174   N195    1.380   .     A
C174   C235    1.484   .     S
C175   Cl239   1.766   .     S
C175   N195    1.367   .     A
C176   N196    1.362   .     A
C176   Cl240   1.769   .     S
C176   C14     1.419   1_655 S
C177   O203    1.295   .     A
C177   C179    1.477   .     S
C177   O201    1.311   .     A
C178   O202    1.305   .     A
C178   O204    1.310   .     A
C178   C180    1.488   .     S
C179   C183    1.414   .     A
C179   C185    1.397   .     A
C180   C184    1.424   .     A
C180   C186    1.395   .     A
C181   C189    1.417   .     A
C181   C183    1.397   .     A
C181   Cl223   1.774   .     S
C182   C184    1.421   .     A
C182   C190    1.428   .     A
C182   Cl784   1.775   1_654 S
C183   C219    1.501   .     S
C184   C215    1.513   .     S
C185   H194    1.079   .     S
C185   C187    1.408   .     A
C186   H193    1.083   .     S
C186   C188    1.390   .     A
C187   C189    1.424   .     A
C187   C191    1.426   .     A
C188   C192    1.412   .     A
C188   C190    1.406   .     A
C189   C885    1.415   .     S
C190   C886    1.418   1_554 S
C191   C912    1.415   .     S
C192   C911    1.415   1_554 S
N195   Zn205   2.028   .     S
N196   Zn206   2.028   .     S
O197   Zn205   2.010   .     S
O198   Zn206   2.010   .     S
O199   Zn206   2.005   .     S
O200   Zn205   2.005   .     S
O201   Zn205   1.944   .     S
O202   Zn206   1.944   .     S
O203   Zn206   1.867   .     S
O204   Zn205   1.867   .     S
C207   H209    1.110   .     S
C207   H210    1.108   .     S
C207   H208    1.108   .     S
C211   H212    1.110   .     S
C211   H213    1.111   .     S
C211   H214    1.109   .     S
C215   H216    1.105   .     S
C215   H218    1.101   .     S
C215   H57     1.110   1_655 S
C219   H220    1.112   .     S
C219   H221    1.106   .     S
C219   H222    1.104   .     S
Cl224  C822    1.775   .     S
C231   H233    1.092   .     S
C231   H232    1.108   .     S
C231   H74     1.106   1_655 S
C235   H238    1.077   .     S
C235   H236    1.110   .     S
H237   C75     1.111   1_655 S
C241   O277    1.298   .     A
C241   C252    1.445   .     S
C241   O279    1.297   .     A
C242   C251    1.444   .     S
C242   O278    1.299   .     A
C242   O280    1.295   .     A
C243   Cl305   1.786   .     S
C243   C245    1.408   .     A
C243   C272    1.429   .     A
C244   C246    1.414   .     A
C244   Cl306   1.776   .     S
C244   C271    1.434   .     A
C245   C287    1.520   .     S
C245   C989    1.415   1_554 S
C246   C291    1.516   .     S
C246   C990    1.418   .     S
C247   C252    1.412   .     A
C247   Cl307   1.777   .     S
C247   C489    1.378   .     S
C248   Cl308   1.779   .     S
C248   C251    1.410   .     A
C249   Cl309   1.776   .     S
C249   C251    1.405   .     A
C250   C252    1.411   .     A
C250   Cl310   1.778   .     S
C250   C488    1.379   .     S
C253   N276    1.382   .     A
C253   C311    1.503   .     S
C253   C335    1.426   .     S
C254   N275    1.380   .     A
C254   C315    1.484   .     S
C254   C416    1.419   1_455 S
C255   Cl319   1.766   .     S
C255   N275    1.367   .     A
C255   C413    1.426   1_455 S
C256   N276    1.362   .     A
C256   Cl320   1.769   .     S
C256   C334    1.419   .     S
C257   O283    1.295   .     A
C257   C259    1.477   .     S
C257   O281    1.311   .     A
C258   O282    1.305   .     A
C258   O284    1.310   .     A
C258   C260    1.488   .     S
C259   C263    1.414   .     A
C259   C265    1.397   .     A
C260   C264    1.424   .     A
C260   C266    1.395   .     A
C261   C269    1.417   .     A
C261   C263    1.397   .     A
C261   Cl303   1.774   .     S
C262   C264    1.421   .     A
C262   C270    1.428   .     A
C262   Cl1104  1.775   1_554 S
C263   C299    1.501   .     S
C264   C295    1.513   .     S
C265   H274    1.079   .     S
C265   C267    1.408   .     A
C266   H273    1.083   .     S
C266   C268    1.390   .     A
C267   C269    1.424   .     A
C267   C271    1.426   .     A
C268   C272    1.412   .     A
C268   C270    1.406   .     A
C269   C965    1.415   .     S
C270   C966    1.418   1_554 S
C271   C992    1.415   .     S
C272   C991    1.415   1_554 S
N275   Zn285   2.028   .     S
N276   Zn286   2.028   .     S
O277   Zn285   2.010   .     S
O278   Zn286   2.010   .     S
O279   Zn286   2.005   .     S
O280   Zn285   2.005   .     S
O281   Zn285   1.944   .     S
O282   Zn286   1.944   .     S
O283   Zn286   1.867   .     S
O284   Zn285   1.867   .     S
C287   H289    1.110   .     S
C287   H290    1.108   .     S
C287   H288    1.108   .     S
C291   H292    1.110   .     S
C291   H293    1.111   .     S
C291   H294    1.109   .     S
C295   H296    1.105   .     S
C295   H298    1.101   .     S
C295   H377    1.110   .     S
H297   C455    1.110   1_455 S
C299   H300    1.112   .     S
C299   H301    1.106   .     S
C299   H302    1.104   .     S
Cl304  C1142   1.775   1_455 S
C311   H313    1.092   .     S
C311   H312    1.108   .     S
C311   H394    1.106   .     S
H314   C471    1.106   1_455 S
C315   H318    1.077   .     S
C315   H316    1.110   .     S
C315   H477    1.111   1_455 S
H317   C395    1.111   .     S
C321   O357    1.298   .     A
C321   C332    1.445   .     S
C321   O359    1.297   .     A
C322   C331    1.444   .     S
C322   O358    1.299   .     A
C322   O360    1.295   .     A
C323   Cl385   1.786   .     S
C323   C325    1.408   .     A
C323   C352    1.429   .     A
C324   C326    1.414   .     A
C324   Cl386   1.776   .     S
C324   C351    1.434   .     A
C325   C367    1.520   .     S
C325   C1069   1.415   1_554 S
C326   C371    1.516   .     S
C326   C1070   1.418   .     S
C327   C332    1.412   .     A
C327   Cl387   1.777   .     S
C327   C569    1.378   .     S
C328   Cl388   1.779   .     S
C328   C331    1.410   .     A
C329   Cl389   1.776   .     S
C329   C331    1.405   .     A
C330   C332    1.411   .     A
C330   Cl390   1.778   .     S
C330   C568    1.379   .     S
C333   N356    1.382   .     A
C333   C391    1.503   .     S
C333   C415    1.426   .     S
C334   N355    1.380   .     A
C334   C395    1.484   .     S
C335   Cl399   1.766   .     S
C335   N355    1.367   .     A
C336   N356    1.362   .     A
C336   Cl400   1.769   .     S
C336   C414    1.419   .     S
C337   O363    1.295   .     A
C337   C339    1.477   .     S
C337   O361    1.311   .     A
C338   O362    1.305   .     A
C338   O364    1.310   .     A
C338   C340    1.488   .     S
C339   C343    1.414   .     A
C339   C345    1.397   .     A
C340   C344    1.424   .     A
C340   C346    1.395   .     A
C341   C349    1.417   .     A
C341   C343    1.397   .     A
C341   Cl383   1.774   .     S
C342   C344    1.421   .     A
C342   C350    1.428   .     A
C342   Cl1184  1.775   1_554 S
C343   C379    1.501   .     S
C344   C375    1.513   .     S
C345   H354    1.079   .     S
C345   C347    1.408   .     A
C346   H353    1.083   .     S
C346   C348    1.390   .     A
C347   C349    1.424   .     A
C347   C351    1.426   .     A
C348   C352    1.412   .     A
C348   C350    1.406   .     A
C349   C1045   1.415   .     S
C350   C1046   1.418   1_554 S
C351   C1072   1.415   .     S
C352   C1071   1.415   1_554 S
N355   Zn365   2.028   .     S
N356   Zn366   2.028   .     S
O357   Zn365   2.010   .     S
O358   Zn366   2.010   .     S
O359   Zn366   2.005   .     S
O360   Zn365   2.005   .     S
O361   Zn365   1.944   .     S
O362   Zn366   1.944   .     S
O363   Zn366   1.867   .     S
O364   Zn365   1.867   .     S
C367   H369    1.110   .     S
C367   H370    1.108   .     S
C367   H368    1.108   .     S
C371   H372    1.110   .     S
C371   H373    1.111   .     S
C371   H374    1.109   .     S
C375   H376    1.105   .     S
C375   H378    1.101   .     S
C375   H457    1.110   .     S
C379   H380    1.112   .     S
C379   H381    1.106   .     S
C379   H382    1.104   .     S
Cl384  C982    1.775   .     S
C391   H393    1.092   .     S
C391   H392    1.108   .     S
C391   H474    1.106   .     S
C395   H398    1.077   .     S
C395   H396    1.110   .     S
H397   C475    1.111   .     S
C401   O437    1.298   .     A
C401   C412    1.445   .     S
C401   O439    1.297   .     A
C402   C411    1.444   .     S
C402   O438    1.299   .     A
C402   O440    1.295   .     A
C403   Cl465   1.786   .     S
C403   C405    1.408   .     A
C403   C432    1.429   .     A
C404   C406    1.414   .     A
C404   Cl466   1.776   .     S
C404   C431    1.434   .     A
C405   C447    1.520   .     S
C405   C1149   1.415   1_554 S
C406   C451    1.516   .     S
C406   C1150   1.418   .     S
C407   C412    1.412   .     A
C407   Cl467   1.777   .     S
C407   C649    1.378   .     S
C408   Cl468   1.779   .     S
C408   C411    1.410   .     A
C409   Cl469   1.776   .     S
C409   C411    1.405   .     A
C410   C412    1.411   .     A
C410   Cl470   1.778   .     S
C410   C648    1.379   .     S
C413   N436    1.382   .     A
C413   C471    1.503   .     S
C413   C255    1.426   1_655 S
C414   N435    1.380   .     A
C414   C475    1.484   .     S
C415   Cl479   1.766   .     S
C415   N435    1.367   .     A
C416   N436    1.362   .     A
C416   Cl480   1.769   .     S
C416   C254    1.419   1_655 S
C417   O443    1.295   .     A
C417   C419    1.477   .     S
C417   O441    1.311   .     A
C418   O442    1.305   .     A
C418   O444    1.310   .     A
C418   C420    1.488   .     S
C419   C423    1.414   .     A
C419   C425    1.397   .     A
C420   C424    1.424   .     A
C420   C426    1.395   .     A
C421   C429    1.417   .     A
C421   C423    1.397   .     A
C421   Cl463   1.774   .     S
C422   C424    1.421   .     A
C422   C430    1.428   .     A
C422   Cl1024  1.775   1_654 S
C423   C459    1.501   .     S
C424   C455    1.513   .     S
C425   H434    1.079   .     S
C425   C427    1.408   .     A
C426   H433    1.083   .     S
C426   C428    1.390   .     A
C427   C429    1.424   .     A
C427   C431    1.426   .     A
C428   C432    1.412   .     A
C428   C430    1.406   .     A
C429   C1125   1.415   .     S
C430   C1126   1.418   1_554 S
C431   C1152   1.415   .     S
C432   C1151   1.415   1_554 S
N435   Zn445   2.028   .     S
N436   Zn446   2.028   .     S
O437   Zn445   2.010   .     S
O438   Zn446   2.010   .     S
O439   Zn446   2.005   .     S
O440   Zn445   2.005   .     S
O441   Zn445   1.944   .     S
O442   Zn446   1.944   .     S
O443   Zn446   1.867   .     S
O444   Zn445   1.867   .     S
C447   H449    1.110   .     S
C447   H450    1.108   .     S
C447   H448    1.108   .     S
C451   H452    1.110   .     S
C451   H453    1.111   .     S
C451   H454    1.109   .     S
C455   H456    1.105   .     S
C455   H458    1.101   .     S
C455   H297    1.110   1_655 S
C459   H460    1.112   .     S
C459   H461    1.106   .     S
C459   H462    1.104   .     S
Cl464  C1062   1.775   .     S
C471   H473    1.092   .     S
C471   H472    1.108   .     S
C471   H314    1.106   1_655 S
C475   H478    1.077   .     S
C475   H476    1.110   .     S
H477   C315    1.111   1_655 S
C481   O517    1.298   .     A
C481   C492    1.445   .     S
C481   O519    1.297   .     A
C482   C491    1.444   .     S
C482   O518    1.299   .     A
C482   O520    1.295   .     A
C483   Cl545   1.786   .     S
C483   C485    1.408   .     A
C483   C512    1.429   .     A
C484   C486    1.414   .     A
C484   Cl546   1.776   .     S
C484   C511    1.434   .     A
C485   C527    1.520   .     S
C485   C1229   1.415   1_554 S
C486   C531    1.516   .     S
C486   C1230   1.418   .     S
C487   C492    1.412   .     A
C487   Cl547   1.777   .     S
C487   C9      1.378   1_565 S
C488   Cl548   1.779   .     S
C488   C491    1.410   .     A
C489   Cl549   1.776   .     S
C489   C491    1.405   .     A
C490   C492    1.411   .     A
C490   Cl550   1.778   .     S
C490   C8      1.379   1_565 S
C493   N516    1.382   .     A
C493   C551    1.503   .     S
C493   C575    1.426   .     S
C494   N515    1.380   .     A
C494   C555    1.484   .     S
C494   C656    1.419   1_455 S
C495   Cl559   1.766   .     S
C495   N515    1.367   .     A
C495   C653    1.426   1_455 S
C496   N516    1.362   .     A
C496   Cl560   1.769   .     S
C496   C574    1.419   .     S
C497   O523    1.295   .     A
C497   C499    1.477   .     S
C497   O521    1.311   .     A
C498   O522    1.305   .     A
C498   O524    1.310   .     A
C498   C500    1.488   .     S
C499   C503    1.414   .     A
C499   C505    1.397   .     A
C500   C504    1.424   .     A
C500   C506    1.395   .     A
C501   C509    1.417   .     A
C501   C503    1.397   .     A
C501   Cl543   1.774   .     S
C502   C504    1.421   .     A
C502   C510    1.428   .     A
C502   Cl1344  1.775   1_554 S
C503   C539    1.501   .     S
C504   C535    1.513   .     S
C505   H514    1.079   .     S
C505   C507    1.408   .     A
C506   H513    1.083   .     S
C506   C508    1.390   .     A
C507   C509    1.424   .     A
C507   C511    1.426   .     A
C508   C512    1.412   .     A
C508   C510    1.406   .     A
C509   C1205   1.415   .     S
C510   C1206   1.418   1_554 S
C511   C1232   1.415   .     S
C512   C1231   1.415   1_554 S
N515   Zn525   2.028   .     S
N516   Zn526   2.028   .     S
O517   Zn525   2.010   .     S
O518   Zn526   2.010   .     S
O519   Zn526   2.005   .     S
O520   Zn525   2.005   .     S
O521   Zn525   1.944   .     S
O522   Zn526   1.944   .     S
O523   Zn526   1.867   .     S
O524   Zn525   1.867   .     S
C527   H529    1.110   .     S
C527   H530    1.108   .     S
C527   H528    1.108   .     S
C531   H532    1.110   .     S
C531   H533    1.111   .     S
C531   H534    1.109   .     S
C535   H536    1.105   .     S
C535   H538    1.101   .     S
C535   H617    1.110   .     S
H537   C695    1.110   1_455 S
C539   H540    1.112   .     S
C539   H541    1.106   .     S
C539   H542    1.104   .     S
Cl544  C1382   1.775   1_455 S
C551   H553    1.092   .     S
C551   H552    1.108   .     S
C551   H634    1.106   .     S
H554   C711    1.106   1_455 S
C555   H558    1.077   .     S
C555   H556    1.110   .     S
C555   H717    1.111   1_455 S
H557   C635    1.111   .     S
C561   O597    1.298   .     A
C561   C572    1.445   .     S
C561   O599    1.297   .     A
C562   C571    1.444   .     S
C562   O598    1.299   .     A
C562   O600    1.295   .     A
C563   Cl625   1.786   .     S
C563   C565    1.408   .     A
C563   C592    1.429   .     A
C564   C566    1.414   .     A
C564   Cl626   1.776   .     S
C564   C591    1.434   .     A
C565   C607    1.520   .     S
C565   C1309   1.415   1_554 S
C566   C611    1.516   .     S
C566   C1310   1.418   .     S
C567   C572    1.412   .     A
C567   Cl627   1.777   .     S
C567   C89     1.378   1_565 S
C568   Cl628   1.779   .     S
C568   C571    1.410   .     A
C569   Cl629   1.776   .     S
C569   C571    1.405   .     A
C570   C572    1.411   .     A
C570   Cl630   1.778   .     S
C570   C88     1.379   1_565 S
C573   N596    1.382   .     A
C573   C631    1.503   .     S
C573   C655    1.426   .     S
C574   N595    1.380   .     A
C574   C635    1.484   .     S
C575   Cl639   1.766   .     S
C575   N595    1.367   .     A
C576   N596    1.362   .     A
C576   Cl640   1.769   .     S
C576   C654    1.419   .     S
C577   O603    1.295   .     A
C577   C579    1.477   .     S
C577   O601    1.311   .     A
C578   O602    1.305   .     A
C578   O604    1.310   .     A
C578   C580    1.488   .     S
C579   C583    1.414   .     A
C579   C585    1.397   .     A
C580   C584    1.424   .     A
C580   C586    1.395   .     A
C581   C589    1.417   .     A
C581   C583    1.397   .     A
C581   Cl623   1.774   .     S
C582   C584    1.421   .     A
C582   C590    1.428   .     A
C582   Cl1424  1.775   1_554 S
C583   C619    1.501   .     S
C584   C615    1.513   .     S
C585   H594    1.079   .     S
C585   C587    1.408   .     A
C586   H593    1.083   .     S
C586   C588    1.390   .     A
C587   C589    1.424   .     A
C587   C591    1.426   .     A
C588   C592    1.412   .     A
C588   C590    1.406   .     A
C589   C1285   1.415   .     S
C590   C1286   1.418   1_554 S
C591   C1312   1.415   .     S
C592   C1311   1.415   1_554 S
N595   Zn605   2.028   .     S
N596   Zn606   2.028   .     S
O597   Zn605   2.010   .     S
O598   Zn606   2.010   .     S
O599   Zn606   2.005   .     S
O600   Zn605   2.005   .     S
O601   Zn605   1.944   .     S
O602   Zn606   1.944   .     S
O603   Zn606   1.867   .     S
O604   Zn605   1.867   .     S
C607   H609    1.110   .     S
C607   H610    1.108   .     S
C607   H608    1.108   .     S
C611   H612    1.110   .     S
C611   H613    1.111   .     S
C611   H614    1.109   .     S
C615   H616    1.105   .     S
C615   H618    1.101   .     S
C615   H697    1.110   .     S
C619   H620    1.112   .     S
C619   H621    1.106   .     S
C619   H622    1.104   .     S
Cl624  C1222   1.775   .     S
C631   H633    1.092   .     S
C631   H632    1.108   .     S
C631   H714    1.106   .     S
C635   H638    1.077   .     S
C635   H636    1.110   .     S
H637   C715    1.111   .     S
C641   O677    1.298   .     A
C641   C652    1.445   .     S
C641   O679    1.297   .     A
C642   C651    1.444   .     S
C642   O678    1.299   .     A
C642   O680    1.295   .     A
C643   Cl705   1.786   .     S
C643   C645    1.408   .     A
C643   C672    1.429   .     A
C644   C646    1.414   .     A
C644   Cl706   1.776   .     S
C644   C671    1.434   .     A
C645   C687    1.520   .     S
C645   C1389   1.415   1_554 S
C646   C691    1.516   .     S
C646   C1390   1.418   .     S
C647   C652    1.412   .     A
C647   Cl707   1.777   .     S
C647   C169    1.378   1_565 S
C648   Cl708   1.779   .     S
C648   C651    1.410   .     A
C649   Cl709   1.776   .     S
C649   C651    1.405   .     A
C650   C652    1.411   .     A
C650   Cl710   1.778   .     S
C650   C168    1.379   1_565 S
C653   N676    1.382   .     A
C653   C711    1.503   .     S
C653   C495    1.426   1_655 S
C654   N675    1.380   .     A
C654   C715    1.484   .     S
C655   Cl719   1.766   .     S
C655   N675    1.367   .     A
C656   N676    1.362   .     A
C656   Cl720   1.769   .     S
C656   C494    1.419   1_655 S
C657   O683    1.295   .     A
C657   C659    1.477   .     S
C657   O681    1.311   .     A
C658   O682    1.305   .     A
C658   O684    1.310   .     A
C658   C660    1.488   .     S
C659   C663    1.414   .     A
C659   C665    1.397   .     A
C660   C664    1.424   .     A
C660   C666    1.395   .     A
C661   C669    1.417   .     A
C661   C663    1.397   .     A
C661   Cl703   1.774   .     S
C662   C664    1.421   .     A
C662   C670    1.428   .     A
C662   Cl1264  1.775   1_654 S
C663   C699    1.501   .     S
C664   C695    1.513   .     S
C665   H674    1.079   .     S
C665   C667    1.408   .     A
C666   H673    1.083   .     S
C666   C668    1.390   .     A
C667   C669    1.424   .     A
C667   C671    1.426   .     A
C668   C672    1.412   .     A
C668   C670    1.406   .     A
C669   C1365   1.415   .     S
C670   C1366   1.418   1_554 S
C671   C1392   1.415   .     S
C672   C1391   1.415   1_554 S
N675   Zn685   2.028   .     S
N676   Zn686   2.028   .     S
O677   Zn685   2.010   .     S
O678   Zn686   2.010   .     S
O679   Zn686   2.005   .     S
O680   Zn685   2.005   .     S
O681   Zn685   1.944   .     S
O682   Zn686   1.944   .     S
O683   Zn686   1.867   .     S
O684   Zn685   1.867   .     S
C687   H689    1.110   .     S
C687   H690    1.108   .     S
C687   H688    1.108   .     S
C691   H692    1.110   .     S
C691   H693    1.111   .     S
C691   H694    1.109   .     S
C695   H696    1.105   .     S
C695   H698    1.101   .     S
C695   H537    1.110   1_655 S
C699   H700    1.112   .     S
C699   H701    1.106   .     S
C699   H702    1.104   .     S
Cl704  C1302   1.775   .     S
C711   H713    1.092   .     S
C711   H712    1.108   .     S
C711   H554    1.106   1_655 S
C715   H718    1.077   .     S
C715   H716    1.110   .     S
H717   C555    1.111   1_655 S
C721   O757    1.298   .     A
C721   C732    1.445   .     S
C721   O759    1.297   .     A
C722   C731    1.444   .     S
C722   O758    1.299   .     A
C722   O760    1.295   .     A
C723   Cl785   1.786   .     S
C723   C725    1.408   .     A
C723   C752    1.429   .     A
C724   C726    1.414   .     A
C724   Cl786   1.776   .     S
C724   C751    1.434   .     A
C725   C767    1.520   .     S
C726   C771    1.516   .     S
C726   C30     1.418   1_556 S
C727   C732    1.412   .     A
C727   Cl787   1.777   .     S
C727   C969    1.378   .     S
C728   Cl788   1.779   .     S
C728   C731    1.410   .     A
C728   C1210   1.379   1_545 S
C729   Cl789   1.776   .     S
C729   C731    1.405   .     A
C729   C1207   1.378   1_545 S
C730   C732    1.411   .     A
C730   Cl790   1.778   .     S
C730   C968    1.379   .     S
C733   N756    1.382   .     A
C733   C791    1.503   .     S
C733   C815    1.426   .     S
C734   N755    1.380   .     A
C734   C795    1.484   .     S
C734   C896    1.419   1_455 S
C735   Cl799   1.766   .     S
C735   N755    1.367   .     A
C735   C893    1.426   1_455 S
C736   N756    1.362   .     A
C736   Cl800   1.769   .     S
C736   C814    1.419   .     S
C737   O763    1.295   .     A
C737   C739    1.477   .     S
C737   O761    1.311   .     A
C738   O762    1.305   .     A
C738   O764    1.310   .     A
C738   C740    1.488   .     S
C739   C743    1.414   .     A
C739   C745    1.397   .     A
C740   C744    1.424   .     A
C740   C746    1.395   .     A
C741   C749    1.417   .     A
C741   C743    1.397   .     A
C741   Cl783   1.774   .     S
C742   C744    1.421   .     A
C742   C750    1.428   .     A
C743   C779    1.501   .     S
C744   C775    1.513   .     S
C745   H754    1.079   .     S
C745   C747    1.408   .     A
C746   H753    1.083   .     S
C746   C748    1.390   .     A
C747   C749    1.424   .     A
C747   C751    1.426   .     A
C748   C752    1.412   .     A
C748   C750    1.406   .     A
C749   C5      1.415   1_556 S
C751   C32     1.415   1_556 S
N755   Zn765   2.028   .     S
N756   Zn766   2.028   .     S
O757   Zn765   2.010   .     S
O758   Zn766   2.010   .     S
O759   Zn766   2.005   .     S
O760   Zn765   2.005   .     S
O761   Zn765   1.944   .     S
O762   Zn766   1.944   .     S
O763   Zn766   1.867   .     S
O764   Zn765   1.867   .     S
C767   H769    1.110   .     S
C767   H770    1.108   .     S
C767   H768    1.108   .     S
C771   H772    1.110   .     S
C771   H773    1.111   .     S
C771   H774    1.109   .     S
C775   H776    1.105   .     S
C775   H778    1.101   .     S
C775   H857    1.110   .     S
H777   C935    1.110   1_455 S
C779   H780    1.112   .     S
C779   H781    1.106   .     S
C779   H782    1.104   .     S
Cl784  C182    1.775   1_456 S
C791   H793    1.092   .     S
C791   H792    1.108   .     S
C791   H874    1.106   .     S
H794   C951    1.106   1_455 S
C795   H798    1.077   .     S
C795   H796    1.110   .     S
C795   H957    1.111   1_455 S
H797   C875    1.111   .     S
C801   O837    1.298   .     A
C801   C812    1.445   .     S
C801   O839    1.297   .     A
C802   C811    1.444   .     S
C802   O838    1.299   .     A
C802   O840    1.295   .     A
C803   Cl865   1.786   .     S
C803   C805    1.408   .     A
C803   C832    1.429   .     A
C804   C806    1.414   .     A
C804   Cl866   1.776   .     S
C804   C831    1.434   .     A
C805   C847    1.520   .     S
C806   C851    1.516   .     S
C806   C110    1.418   1_556 S
C807   C812    1.412   .     A
C807   Cl867   1.777   .     S
C807   C1049   1.378   .     S
C808   Cl868   1.779   .     S
C808   C811    1.410   .     A
C808   C1290   1.379   1_545 S
C809   Cl869   1.776   .     S
C809   C811    1.405   .     A
C809   C1287   1.378   1_545 S
C810   C812    1.411   .     A
C810   Cl870   1.778   .     S
C810   C1048   1.379   .     S
C813   N836    1.382   .     A
C813   C871    1.503   .     S
C813   C895    1.426   .     S
C814   N835    1.380   .     A
C814   C875    1.484   .     S
C815   Cl879   1.766   .     S
C815   N835    1.367   .     A
C816   N836    1.362   .     A
C816   Cl880   1.769   .     S
C816   C894    1.419   .     S
C817   O843    1.295   .     A
C817   C819    1.477   .     S
C817   O841    1.311   .     A
C818   O842    1.305   .     A
C818   O844    1.310   .     A
C818   C820    1.488   .     S
C819   C823    1.414   .     A
C819   C825    1.397   .     A
C820   C824    1.424   .     A
C820   C826    1.395   .     A
C821   C829    1.417   .     A
C821   C823    1.397   .     A
C821   Cl863   1.774   .     S
C822   C824    1.421   .     A
C822   C830    1.428   .     A
C823   C859    1.501   .     S
C824   C855    1.513   .     S
C825   H834    1.079   .     S
C825   C827    1.408   .     A
C826   H833    1.083   .     S
C826   C828    1.390   .     A
C827   C829    1.424   .     A
C827   C831    1.426   .     A
C828   C832    1.412   .     A
C828   C830    1.406   .     A
C829   C85     1.415   1_556 S
C831   C112    1.415   1_556 S
N835   Zn845   2.028   .     S
N836   Zn846   2.028   .     S
O837   Zn845   2.010   .     S
O838   Zn846   2.010   .     S
O839   Zn846   2.005   .     S
O840   Zn845   2.005   .     S
O841   Zn845   1.944   .     S
O842   Zn846   1.944   .     S
O843   Zn846   1.867   .     S
O844   Zn845   1.867   .     S
C847   H849    1.110   .     S
C847   H850    1.108   .     S
C847   H848    1.108   .     S
C851   H852    1.110   .     S
C851   H853    1.111   .     S
C851   H854    1.109   .     S
C855   H856    1.105   .     S
C855   H858    1.101   .     S
C855   H937    1.110   .     S
C859   H860    1.112   .     S
C859   H861    1.106   .     S
C859   H862    1.104   .     S
Cl864  C22     1.775   1_556 S
C871   H873    1.092   .     S
C871   H872    1.108   .     S
C871   H954    1.106   .     S
C875   H878    1.077   .     S
C875   H876    1.110   .     S
H877   C955    1.111   .     S
C881   O917    1.298   .     A
C881   C892    1.445   .     S
C881   O919    1.297   .     A
C882   C891    1.444   .     S
C882   O918    1.299   .     A
C882   O920    1.295   .     A
C883   Cl945   1.786   .     S
C883   C885    1.408   .     A
C883   C912    1.429   .     A
C884   C886    1.414   .     A
C884   Cl946   1.776   .     S
C884   C911    1.434   .     A
C885   C927    1.520   .     S
C886   C931    1.516   .     S
C886   C190    1.418   1_556 S
C887   C892    1.412   .     A
C887   Cl947   1.777   .     S
C887   C1129   1.378   .     S
C888   Cl948   1.779   .     S
C888   C891    1.410   .     A
C888   C1370   1.379   1_545 S
C889   Cl949   1.776   .     S
C889   C891    1.405   .     A
C889   C1367   1.378   1_545 S
C890   C892    1.411   .     A
C890   Cl950   1.778   .     S
C890   C1128   1.379   .     S
C893   N916    1.382   .     A
C893   C951    1.503   .     S
C893   C735    1.426   1_655 S
C894   N915    1.380   .     A
C894   C955    1.484   .     S
C895   Cl959   1.766   .     S
C895   N915    1.367   .     A
C896   N916    1.362   .     A
C896   Cl960   1.769   .     S
C896   C734    1.419   1_655 S
C897   O923    1.295   .     A
C897   C899    1.477   .     S
C897   O921    1.311   .     A
C898   O922    1.305   .     A
C898   O924    1.310   .     A
C898   C900    1.488   .     S
C899   C903    1.414   .     A
C899   C905    1.397   .     A
C900   C904    1.424   .     A
C900   C906    1.395   .     A
C901   C909    1.417   .     A
C901   C903    1.397   .     A
C901   Cl943   1.774   .     S
C902   C904    1.421   .     A
C902   C910    1.428   .     A
C902   Cl64    1.775   1_655 S
C903   C939    1.501   .     S
C904   C935    1.513   .     S
C905   H914    1.079   .     S
C905   C907    1.408   .     A
C906   H913    1.083   .     S
C906   C908    1.390   .     A
C907   C909    1.424   .     A
C907   C911    1.426   .     A
C908   C912    1.412   .     A
C908   C910    1.406   .     A
C909   C165    1.415   1_556 S
C911   C192    1.415   1_556 S
N915   Zn925   2.028   .     S
N916   Zn926   2.028   .     S
O917   Zn925   2.010   .     S
O918   Zn926   2.010   .     S
O919   Zn926   2.005   .     S
O920   Zn925   2.005   .     S
O921   Zn925   1.944   .     S
O922   Zn926   1.944   .     S
O923   Zn926   1.867   .     S
O924   Zn925   1.867   .     S
C927   H929    1.110   .     S
C927   H930    1.108   .     S
C927   H928    1.108   .     S
C931   H932    1.110   .     S
C931   H933    1.111   .     S
C931   H934    1.109   .     S
C935   H936    1.105   .     S
C935   H938    1.101   .     S
C935   H777    1.110   1_655 S
C939   H940    1.112   .     S
C939   H941    1.106   .     S
C939   H942    1.104   .     S
Cl944  C102    1.775   1_556 S
C951   H953    1.092   .     S
C951   H952    1.108   .     S
C951   H794    1.106   1_655 S
C955   H958    1.077   .     S
C955   H956    1.110   .     S
H957   C795    1.111   1_655 S
C961   O997    1.298   .     A
C961   C972    1.445   .     S
C961   O999    1.297   .     A
C962   C971    1.444   .     S
C962   O998    1.299   .     A
C962   O1000   1.295   .     A
C963   Cl1025  1.786   .     S
C963   C965    1.408   .     A
C963   C992    1.429   .     A
C964   C966    1.414   .     A
C964   Cl1026  1.776   .     S
C964   C991    1.434   .     A
C965   C1007   1.520   .     S
C966   C1011   1.516   .     S
C966   C270    1.418   1_556 S
C967   C972    1.412   .     A
C967   Cl1027  1.777   .     S
C967   C1209   1.378   .     S
C968   Cl1028  1.779   .     S
C968   C971    1.410   .     A
C969   Cl1029  1.776   .     S
C969   C971    1.405   .     A
C970   C972    1.411   .     A
C970   Cl1030  1.778   .     S
C970   C1208   1.379   .     S
C973   N996    1.382   .     A
C973   C1031   1.503   .     S
C973   C1055   1.426   .     S
C974   N995    1.380   .     A
C974   C1035   1.484   .     S
C974   C1136   1.419   1_455 S
C975   Cl1039  1.766   .     S
C975   N995    1.367   .     A
C975   C1133   1.426   1_455 S
C976   N996    1.362   .     A
C976   Cl1040  1.769   .     S
C976   C1054   1.419   .     S
C977   O1003   1.295   .     A
C977   C979    1.477   .     S
C977   O1001   1.311   .     A
C978   O1002   1.305   .     A
C978   O1004   1.310   .     A
C978   C980    1.488   .     S
C979   C983    1.414   .     A
C979   C985    1.397   .     A
C980   C984    1.424   .     A
C980   C986    1.395   .     A
C981   C989    1.417   .     A
C981   C983    1.397   .     A
C981   Cl1023  1.774   .     S
C982   C984    1.421   .     A
C982   C990    1.428   .     A
C983   C1019   1.501   .     S
C984   C1015   1.513   .     S
C985   H994    1.079   .     S
C985   C987    1.408   .     A
C986   H993    1.083   .     S
C986   C988    1.390   .     A
C987   C989    1.424   .     A
C987   C991    1.426   .     A
C988   C992    1.412   .     A
C988   C990    1.406   .     A
C989   C245    1.415   1_556 S
C991   C272    1.415   1_556 S
N995   Zn1005  2.028   .     S
N996   Zn1006  2.028   .     S
O997   Zn1005  2.010   .     S
O998   Zn1006  2.010   .     S
O999   Zn1006  2.005   .     S
O1000  Zn1005  2.005   .     S
O1001  Zn1005  1.944   .     S
O1002  Zn1006  1.944   .     S
O1003  Zn1006  1.867   .     S
O1004  Zn1005  1.867   .     S
C1007  H1009   1.110   .     S
C1007  H1010   1.108   .     S
C1007  H1008   1.108   .     S
C1011  H1012   1.110   .     S
C1011  H1013   1.111   .     S
C1011  H1014   1.109   .     S
C1015  H1016   1.105   .     S
C1015  H1018   1.101   .     S
C1015  H1097   1.110   .     S
H1017  C1175   1.110   1_455 S
C1019  H1020   1.112   .     S
C1019  H1021   1.106   .     S
C1019  H1022   1.104   .     S
Cl1024 C422    1.775   1_456 S
C1031  H1033   1.092   .     S
C1031  H1032   1.108   .     S
C1031  H1114   1.106   .     S
H1034  C1191   1.106   1_455 S
C1035  H1038   1.077   .     S
C1035  H1036   1.110   .     S
C1035  H1197   1.111   1_455 S
H1037  C1115   1.111   .     S
C1041  O1077   1.298   .     A
C1041  C1052   1.445   .     S
C1041  O1079   1.297   .     A
C1042  C1051   1.444   .     S
C1042  O1078   1.299   .     A
C1042  O1080   1.295   .     A
C1043  Cl1105  1.786   .     S
C1043  C1045   1.408   .     A
C1043  C1072   1.429   .     A
C1044  C1046   1.414   .     A
C1044  Cl1106  1.776   .     S
C1044  C1071   1.434   .     A
C1045  C1087   1.520   .     S
C1046  C1091   1.516   .     S
C1046  C350    1.418   1_556 S
C1047  C1052   1.412   .     A
C1047  Cl1107  1.777   .     S
C1047  C1289   1.378   .     S
C1048  Cl1108  1.779   .     S
C1048  C1051   1.410   .     A
C1049  Cl1109  1.776   .     S
C1049  C1051   1.405   .     A
C1050  C1052   1.411   .     A
C1050  Cl1110  1.778   .     S
C1050  C1288   1.379   .     S
C1053  N1076   1.382   .     A
C1053  C1111   1.503   .     S
C1053  C1135   1.426   .     S
C1054  N1075   1.380   .     A
C1054  C1115   1.484   .     S
C1055  Cl1119  1.766   .     S
C1055  N1075   1.367   .     A
C1056  N1076   1.362   .     A
C1056  Cl1120  1.769   .     S
C1056  C1134   1.419   .     S
C1057  O1083   1.295   .     A
C1057  C1059   1.477   .     S
C1057  O1081   1.311   .     A
C1058  O1082   1.305   .     A
C1058  O1084   1.310   .     A
C1058  C1060   1.488   .     S
C1059  C1063   1.414   .     A
C1059  C1065   1.397   .     A
C1060  C1064   1.424   .     A
C1060  C1066   1.395   .     A
C1061  C1069   1.417   .     A
C1061  C1063   1.397   .     A
C1061  Cl1103  1.774   .     S
C1062  C1064   1.421   .     A
C1062  C1070   1.428   .     A
C1063  C1099   1.501   .     S
C1064  C1095   1.513   .     S
C1065  H1074   1.079   .     S
C1065  C1067   1.408   .     A
C1066  H1073   1.083   .     S
C1066  C1068   1.390   .     A
C1067  C1069   1.424   .     A
C1067  C1071   1.426   .     A
C1068  C1072   1.412   .     A
C1068  C1070   1.406   .     A
C1069  C325    1.415   1_556 S
C1071  C352    1.415   1_556 S
N1075  Zn1085  2.028   .     S
N1076  Zn1086  2.028   .     S
O1077  Zn1085  2.010   .     S
O1078  Zn1086  2.010   .     S
O1079  Zn1086  2.005   .     S
O1080  Zn1085  2.005   .     S
O1081  Zn1085  1.944   .     S
O1082  Zn1086  1.944   .     S
O1083  Zn1086  1.867   .     S
O1084  Zn1085  1.867   .     S
C1087  H1089   1.110   .     S
C1087  H1090   1.108   .     S
C1087  H1088   1.108   .     S
C1091  H1092   1.110   .     S
C1091  H1093   1.111   .     S
C1091  H1094   1.109   .     S
C1095  H1096   1.105   .     S
C1095  H1098   1.101   .     S
C1095  H1177   1.110   .     S
C1099  H1100   1.112   .     S
C1099  H1101   1.106   .     S
C1099  H1102   1.104   .     S
Cl1104 C262    1.775   1_556 S
C1111  H1113   1.092   .     S
C1111  H1112   1.108   .     S
C1111  H1194   1.106   .     S
C1115  H1118   1.077   .     S
C1115  H1116   1.110   .     S
H1117  C1195   1.111   .     S
C1121  O1157   1.298   .     A
C1121  C1132   1.445   .     S
C1121  O1159   1.297   .     A
C1122  C1131   1.444   .     S
C1122  O1158   1.299   .     A
C1122  O1160   1.295   .     A
C1123  Cl1185  1.786   .     S
C1123  C1125   1.408   .     A
C1123  C1152   1.429   .     A
C1124  C1126   1.414   .     A
C1124  Cl1186  1.776   .     S
C1124  C1151   1.434   .     A
C1125  C1167   1.520   .     S
C1126  C1171   1.516   .     S
C1126  C430    1.418   1_556 S
C1127  C1132   1.412   .     A
C1127  Cl1187  1.777   .     S
C1127  C1369   1.378   .     S
C1128  Cl1188  1.779   .     S
C1128  C1131   1.410   .     A
C1129  Cl1189  1.776   .     S
C1129  C1131   1.405   .     A
C1130  C1132   1.411   .     A
C1130  Cl1190  1.778   .     S
C1130  C1368   1.379   .     S
C1133  N1156   1.382   .     A
C1133  C1191   1.503   .     S
C1133  C975    1.426   1_655 S
C1134  N1155   1.380   .     A
C1134  C1195   1.484   .     S
C1135  Cl1199  1.766   .     S
C1135  N1155   1.367   .     A
C1136  N1156   1.362   .     A
C1136  Cl1200  1.769   .     S
C1136  C974    1.419   1_655 S
C1137  O1163   1.295   .     A
C1137  C1139   1.477   .     S
C1137  O1161   1.311   .     A
C1138  O1162   1.305   .     A
C1138  O1164   1.310   .     A
C1138  C1140   1.488   .     S
C1139  C1143   1.414   .     A
C1139  C1145   1.397   .     A
C1140  C1144   1.424   .     A
C1140  C1146   1.395   .     A
C1141  C1149   1.417   .     A
C1141  C1143   1.397   .     A
C1141  Cl1183  1.774   .     S
C1142  C1144   1.421   .     A
C1142  C1150   1.428   .     A
C1142  Cl304   1.775   1_655 S
C1143  C1179   1.501   .     S
C1144  C1175   1.513   .     S
C1145  H1154   1.079   .     S
C1145  C1147   1.408   .     A
C1146  H1153   1.083   .     S
C1146  C1148   1.390   .     A
C1147  C1149   1.424   .     A
C1147  C1151   1.426   .     A
C1148  C1152   1.412   .     A
C1148  C1150   1.406   .     A
C1149  C405    1.415   1_556 S
C1151  C432    1.415   1_556 S
N1155  Zn1165  2.028   .     S
N1156  Zn1166  2.028   .     S
O1157  Zn1165  2.010   .     S
O1158  Zn1166  2.010   .     S
O1159  Zn1166  2.005   .     S
O1160  Zn1165  2.005   .     S
O1161  Zn1165  1.944   .     S
O1162  Zn1166  1.944   .     S
O1163  Zn1166  1.867   .     S
O1164  Zn1165  1.867   .     S
C1167  H1169   1.110   .     S
C1167  H1170   1.108   .     S
C1167  H1168   1.108   .     S
C1171  H1172   1.110   .     S
C1171  H1173   1.111   .     S
C1171  H1174   1.109   .     S
C1175  H1176   1.105   .     S
C1175  H1178   1.101   .     S
C1175  H1017   1.110   1_655 S
C1179  H1180   1.112   .     S
C1179  H1181   1.106   .     S
C1179  H1182   1.104   .     S
Cl1184 C342    1.775   1_556 S
C1191  H1193   1.092   .     S
C1191  H1192   1.108   .     S
C1191  H1034   1.106   1_655 S
C1195  H1198   1.077   .     S
C1195  H1196   1.110   .     S
H1197  C1035   1.111   1_655 S
C1201  O1237   1.298   .     A
C1201  C1212   1.445   .     S
C1201  O1239   1.297   .     A
C1202  C1211   1.444   .     S
C1202  O1238   1.299   .     A
C1202  O1240   1.295   .     A
C1203  Cl1265  1.786   .     S
C1203  C1205   1.408   .     A
C1203  C1232   1.429   .     A
C1204  C1206   1.414   .     A
C1204  Cl1266  1.776   .     S
C1204  C1231   1.434   .     A
C1205  C1247   1.520   .     S
C1206  C1251   1.516   .     S
C1206  C510    1.418   1_556 S
C1207  C1212   1.412   .     A
C1207  Cl1267  1.777   .     S
C1207  C729    1.378   1_565 S
C1208  Cl1268  1.779   .     S
C1208  C1211   1.410   .     A
C1209  Cl1269  1.776   .     S
C1209  C1211   1.405   .     A
C1210  C1212   1.411   .     A
C1210  Cl1270  1.778   .     S
C1210  C728    1.379   1_565 S
C1213  N1236   1.382   .     A
C1213  C1271   1.503   .     S
C1213  C1295   1.426   .     S
C1214  N1235   1.380   .     A
C1214  C1275   1.484   .     S
C1214  C1376   1.419   1_455 S
C1215  Cl1279  1.766   .     S
C1215  N1235   1.367   .     A
C1215  C1373   1.426   1_455 S
C1216  N1236   1.362   .     A
C1216  Cl1280  1.769   .     S
C1216  C1294   1.419   .     S
C1217  O1243   1.295   .     A
C1217  C1219   1.477   .     S
C1217  O1241   1.311   .     A
C1218  O1242   1.305   .     A
C1218  O1244   1.310   .     A
C1218  C1220   1.488   .     S
C1219  C1223   1.414   .     A
C1219  C1225   1.397   .     A
C1220  C1224   1.424   .     A
C1220  C1226   1.395   .     A
C1221  C1229   1.417   .     A
C1221  C1223   1.397   .     A
C1221  Cl1263  1.774   .     S
C1222  C1224   1.421   .     A
C1222  C1230   1.428   .     A
C1223  C1259   1.501   .     S
C1224  C1255   1.513   .     S
C1225  H1234   1.079   .     S
C1225  C1227   1.408   .     A
C1226  H1233   1.083   .     S
C1226  C1228   1.390   .     A
C1227  C1229   1.424   .     A
C1227  C1231   1.426   .     A
C1228  C1232   1.412   .     A
C1228  C1230   1.406   .     A
C1229  C485    1.415   1_556 S
C1231  C512    1.415   1_556 S
N1235  Zn1245  2.028   .     S
N1236  Zn1246  2.028   .     S
O1237  Zn1245  2.010   .     S
O1238  Zn1246  2.010   .     S
O1239  Zn1246  2.005   .     S
O1240  Zn1245  2.005   .     S
O1241  Zn1245  1.944   .     S
O1242  Zn1246  1.944   .     S
O1243  Zn1246  1.867   .     S
O1244  Zn1245  1.867   .     S
C1247  H1249   1.110   .     S
C1247  H1250   1.108   .     S
C1247  H1248   1.108   .     S
C1251  H1252   1.110   .     S
C1251  H1253   1.111   .     S
C1251  H1254   1.109   .     S
C1255  H1256   1.105   .     S
C1255  H1258   1.101   .     S
C1255  H1337   1.110   .     S
H1257  C1415   1.110   1_455 S
C1259  H1260   1.112   .     S
C1259  H1261   1.106   .     S
C1259  H1262   1.104   .     S
Cl1264 C662    1.775   1_456 S
C1271  H1273   1.092   .     S
C1271  H1272   1.108   .     S
C1271  H1354   1.106   .     S
H1274  C1431   1.106   1_455 S
C1275  H1278   1.077   .     S
C1275  H1276   1.110   .     S
C1275  H1437   1.111   1_455 S
H1277  C1355   1.111   .     S
C1281  O1317   1.298   .     A
C1281  C1292   1.445   .     S
C1281  O1319   1.297   .     A
C1282  C1291   1.444   .     S
C1282  O1318   1.299   .     A
C1282  O1320   1.295   .     A
C1283  Cl1345  1.786   .     S
C1283  C1285   1.408   .     A
C1283  C1312   1.429   .     A
C1284  C1286   1.414   .     A
C1284  Cl1346  1.776   .     S
C1284  C1311   1.434   .     A
C1285  C1327   1.520   .     S
C1286  C1331   1.516   .     S
C1286  C590    1.418   1_556 S
C1287  C1292   1.412   .     A
C1287  Cl1347  1.777   .     S
C1287  C809    1.378   1_565 S
C1288  Cl1348  1.779   .     S
C1288  C1291   1.410   .     A
C1289  Cl1349  1.776   .     S
C1289  C1291   1.405   .     A
C1290  C1292   1.411   .     A
C1290  Cl1350  1.778   .     S
C1290  C808    1.379   1_565 S
C1293  N1316   1.382   .     A
C1293  C1351   1.503   .     S
C1293  C1375   1.426   .     S
C1294  N1315   1.380   .     A
C1294  C1355   1.484   .     S
C1295  Cl1359  1.766   .     S
C1295  N1315   1.367   .     A
C1296  N1316   1.362   .     A
C1296  Cl1360  1.769   .     S
C1296  C1374   1.419   .     S
C1297  O1323   1.295   .     A
C1297  C1299   1.477   .     S
C1297  O1321   1.311   .     A
C1298  O1322   1.305   .     A
C1298  O1324   1.310   .     A
C1298  C1300   1.488   .     S
C1299  C1303   1.414   .     A
C1299  C1305   1.397   .     A
C1300  C1304   1.424   .     A
C1300  C1306   1.395   .     A
C1301  C1309   1.417   .     A
C1301  C1303   1.397   .     A
C1301  Cl1343  1.774   .     S
C1302  C1304   1.421   .     A
C1302  C1310   1.428   .     A
C1303  C1339   1.501   .     S
C1304  C1335   1.513   .     S
C1305  H1314   1.079   .     S
C1305  C1307   1.408   .     A
C1306  H1313   1.083   .     S
C1306  C1308   1.390   .     A
C1307  C1309   1.424   .     A
C1307  C1311   1.426   .     A
C1308  C1312   1.412   .     A
C1308  C1310   1.406   .     A
C1309  C565    1.415   1_556 S
C1311  C592    1.415   1_556 S
N1315  Zn1325  2.028   .     S
N1316  Zn1326  2.028   .     S
O1317  Zn1325  2.010   .     S
O1318  Zn1326  2.010   .     S
O1319  Zn1326  2.005   .     S
O1320  Zn1325  2.005   .     S
O1321  Zn1325  1.944   .     S
O1322  Zn1326  1.944   .     S
O1323  Zn1326  1.867   .     S
O1324  Zn1325  1.867   .     S
C1327  H1329   1.110   .     S
C1327  H1330   1.108   .     S
C1327  H1328   1.108   .     S
C1331  H1332   1.110   .     S
C1331  H1333   1.111   .     S
C1331  H1334   1.109   .     S
C1335  H1336   1.105   .     S
C1335  H1338   1.101   .     S
C1335  H1417   1.110   .     S
C1339  H1340   1.112   .     S
C1339  H1341   1.106   .     S
C1339  H1342   1.104   .     S
Cl1344 C502    1.775   1_556 S
C1351  H1353   1.092   .     S
C1351  H1352   1.108   .     S
C1351  H1434   1.106   .     S
C1355  H1358   1.077   .     S
C1355  H1356   1.110   .     S
H1357  C1435   1.111   .     S
C1361  O1397   1.298   .     A
C1361  C1372   1.445   .     S
C1361  O1399   1.297   .     A
C1362  C1371   1.444   .     S
C1362  O1398   1.299   .     A
C1362  O1400   1.295   .     A
C1363  Cl1425  1.786   .     S
C1363  C1365   1.408   .     A
C1363  C1392   1.429   .     A
C1364  C1366   1.414   .     A
C1364  Cl1426  1.776   .     S
C1364  C1391   1.434   .     A
C1365  C1407   1.520   .     S
C1366  C1411   1.516   .     S
C1366  C670    1.418   1_556 S
C1367  C1372   1.412   .     A
C1367  Cl1427  1.777   .     S
C1367  C889    1.378   1_565 S
C1368  Cl1428  1.779   .     S
C1368  C1371   1.410   .     A
C1369  Cl1429  1.776   .     S
C1369  C1371   1.405   .     A
C1370  C1372   1.411   .     A
C1370  Cl1430  1.778   .     S
C1370  C888    1.379   1_565 S
C1373  N1396   1.382   .     A
C1373  C1431   1.503   .     S
C1373  C1215   1.426   1_655 S
C1374  N1395   1.380   .     A
C1374  C1435   1.484   .     S
C1375  Cl1439  1.766   .     S
C1375  N1395   1.367   .     A
C1376  N1396   1.362   .     A
C1376  Cl1440  1.769   .     S
C1376  C1214   1.419   1_655 S
C1377  O1403   1.295   .     A
C1377  C1379   1.477   .     S
C1377  O1401   1.311   .     A
C1378  O1402   1.305   .     A
C1378  O1404   1.310   .     A
C1378  C1380   1.488   .     S
C1379  C1383   1.414   .     A
C1379  C1385   1.397   .     A
C1380  C1384   1.424   .     A
C1380  C1386   1.395   .     A
C1381  C1389   1.417   .     A
C1381  C1383   1.397   .     A
C1381  Cl1423  1.774   .     S
C1382  C1384   1.421   .     A
C1382  C1390   1.428   .     A
C1382  Cl544   1.775   1_655 S
C1383  C1419   1.501   .     S
C1384  C1415   1.513   .     S
C1385  H1394   1.079   .     S
C1385  C1387   1.408   .     A
C1386  H1393   1.083   .     S
C1386  C1388   1.390   .     A
C1387  C1389   1.424   .     A
C1387  C1391   1.426   .     A
C1388  C1392   1.412   .     A
C1388  C1390   1.406   .     A
C1389  C645    1.415   1_556 S
C1391  C672    1.415   1_556 S
N1395  Zn1405  2.028   .     S
N1396  Zn1406  2.028   .     S
O1397  Zn1405  2.010   .     S
O1398  Zn1406  2.010   .     S
O1399  Zn1406  2.005   .     S
O1400  Zn1405  2.005   .     S
O1401  Zn1405  1.944   .     S
O1402  Zn1406  1.944   .     S
O1403  Zn1406  1.867   .     S
O1404  Zn1405  1.867   .     S
C1407  H1409   1.110   .     S
C1407  H1410   1.108   .     S
C1407  H1408   1.108   .     S
C1411  H1412   1.110   .     S
C1411  H1413   1.111   .     S
C1411  H1414   1.109   .     S
C1415  H1416   1.105   .     S
C1415  H1418   1.101   .     S
C1415  H1257   1.110   1_655 S
C1419  H1420   1.112   .     S
C1419  H1421   1.106   .     S
C1419  H1422   1.104   .     S
Cl1424 C582    1.775   1_556 S
C1431  H1433   1.092   .     S
C1431  H1432   1.108   .     S
C1431  H1274   1.106   1_655 S
C1435  H1438   1.077   .     S
C1435  H1436   1.110   .     S
H1437  C1275   1.111   1_655 S
